file 31784 1679472508                                           
version 2
run analysis_2kr_easy_game_mode-90-20230322-09:08:28-7328
attr configname analysis_2kr_easy_game_mode
attr datetime 20230322-09:08:28
attr experiment analysis_2kr_easy_game_mode
attr inifile omnetpp.ini
attr iterationvars "$0=25, $1=5, $2=10, $3=3.5, $4=0"
attr iterationvarsf 25,5,10,3.5,0-
attr measurement "$0=25, $1=5, $2=10, $3=3.5, $4=0"
attr network Network
attr processid 7328
attr repetition 0
attr replication #0
attr resultdir results
attr runnumber 90
attr seedset 0
param *.boss.arrival_mean 25
param *.boss.service_mean 5
param *.minion.arrival_mean 10
param *.minion.service_mean 3.5
param *.player.recover_rate_x 0
param **.minion.arrival_distribution 0
param **.minion.service_distribution 0
param **.boss.arrival_distribution 0
param **.boss.service_distribution 0

vector 0 Network.player minion_waiting_time_stat:vector ETV
attr source signal_minion_waiting_time
vector 1 Network.player minion_defeated_stat:vector ETV
attr source signal_minion_defeated
vector 2 Network.player minion_response_time_stat:vector ETV
attr source signal_minion_response_time
vector 3 Network.player boss_waiting_time_stat:vector ETV
attr source signal_boss_waiting_time
vector 4 Network.player boss_defeated_stat:vector ETV
attr source signal_boss_defeated
vector 5 Network.player boss_response_time_stat:vector ETV
attr source signal_boss_response_time
vector 6 Network.player minion_recovered_stat:vector ETV
attr source signal_minion_recovered
vector 7 Network.player minion_throughput:vector ETV
attr source signal_minion_throughput
vector 8 Network.player boss_throughput:vector ETV
attr source signal_boss_throughput
0	1633 7542 161 1046 356.599406890352 2491.497376120721 229 0 26.077254072075 779.5652076521 10362.499550796
1	9175 5652 162 1047 359.462432480182 2491.567657522694 207 35 241 28566 4681236
2	14827 8013 162 1047 359.462432480182 2491.567657522694 207 0.03167084473 32.737096172738 1370.8953953061 17194.386943409
3	22840 2440 164 1049 370.603771219516 2496.059055200273 90 0 9.181661607981 35.984927356947 204.9752259224
4	25280 2408 165 1050 376.53809870059 2499.363283228894 90 20 109 5805 435165
5	27688 3475 165 1050 376.53809870059 2499.363283228894 90 0.121370652183 18.647554819068 422.91900886869 3237.6894529531
6	31163 582 193 955 485.046315532251 2224.868444655778 22 8 29 407 8415
7	31745 19 1051 1051 2500 2500 1 0.0964 0.0964 0.0964 0.00929296
8	31764 19 1051 1051 2500 2500 1 0.0436 0.0436 0.0436 0.00190096

