version 2
run analysis_2kr_easy_game_mode-139-20230322-09:08:38-7578
attr configname analysis_2kr_easy_game_mode
attr datetime 20230322-09:08:38
attr experiment analysis_2kr_easy_game_mode
attr inifile omnetpp.ini
attr iterationvars "$0=25, $1=7.5, $2=10, $3=3.5, $4=100"
attr iterationvarsf 25,7.5,10,3.5,100-
attr measurement "$0=25, $1=7.5, $2=10, $3=3.5, $4=100"
attr network Network
attr processid 7578
attr repetition 4
attr replication #4
attr resultdir results
attr runnumber 139
attr seedset 4
param *.boss.arrival_mean 25
param *.boss.service_mean 7.5
param *.minion.arrival_mean 10
param *.minion.service_mean 3.5
param *.player.recover_rate_x 100
param **.minion.arrival_distribution 0
param **.minion.service_distribution 0
param **.boss.arrival_distribution 0
param **.boss.service_distribution 0

vector 0 Network.player minion_waiting_time_stat:vector ETV
attr source signal_minion_waiting_time
vector 1 Network.player minion_defeated_stat:vector ETV
attr source signal_minion_defeated
vector 2 Network.player minion_response_time_stat:vector ETV
attr source signal_minion_response_time
vector 3 Network.player boss_waiting_time_stat:vector ETV
attr source signal_boss_waiting_time
vector 4 Network.player boss_defeated_stat:vector ETV
attr source signal_boss_defeated
vector 5 Network.player boss_response_time_stat:vector ETV
attr source signal_boss_response_time
vector 6 Network.player minion_recovered_stat:vector ETV
attr source signal_minion_recovered
vector 7 Network.player minion_throughput:vector ETV
attr source signal_minion_throughput
vector 8 Network.player boss_throughput:vector ETV
attr source signal_boss_throughput
0	191	352.978059280825	0
0	196	354.792886293601	1.373053593045
0	197	355.336690636385	1.30754615828
0	200	367.990366123876	0
0	203	370.215756671625	0
0	206	378.052364412856	0
0	209	392.371167949294	0
0	212	406.946512179946	0
0	218	436.999506600332	8.615974796621
0	221	444.011401927085	0
0	227	450.98066652757	0
0	230	451.73028784658	0
0	244	483.598133145751	25.840465948505
0	245	486.11270613818	17.575296596282
0	248	492.342749094427	18.360730794521
0	249	497.867006109389	23.337264498487
0	265	537.618964552049	62.074783939566
0	266	540.947196857659	53.850413606085
0	267	541.247945058339	43.098287285831
0	268	541.477150275483	40.958677278559
0	269	542.021513375357	38.013652399214
0	270	544.777604913214	23.165117138819
0	271	546.319005874095	18.395472658563
0	272	546.924906851279	9.479822672575
0	275	549.654586714758	1.390200533566
0	278	590.493629256602	0
0	284	604.765275245444	2.560892576364
0	287	615.409528465206	0
0	290	618.465673972245	0
0	295	620.526404226498	0.80855643164
0	298	624.902133945787	5.068832888941
0	301	632.563982402195	9.486211247264
0	308	647.021928033027	21.926642379404
0	309	652.956107570237	20.113481127017
0	312	663.981196631222	24.132712088327
0	313	669.56673823599	26.907967729923
0	314	670.956352830693	11.361648997047
0	317	673.829436125857	0
0	320	675.985266668192	0.65176816773
0	323	685.799272517424	5.972615742169
0	326	695.833199109934	4.923056681931
0	335	705.942330591255	6.404528566069
0	336	709.709994206839	9.657565114429
0	337	711.22078678345	9.942673833812
0	338	711.400527591392	5.957038821723
0	341	720.668128982073	0
0	346	726.893165724753	3.582575016611
0	351	731.656406575023	6.901214559652
0	352	731.691187010329	4.721498147451
0	357	739.279294829912	8.918664731718
0	358	740.118078457083	6.753953359298
0	359	747.406599869988	13.878419918052
0	362	747.957665793117	0
0	377	785.616464863021	0
0	383	795.442348993819	1.244831393978
0	392	807.179797116405	10.556097714439
0	395	814.500769866935	17.773680796345
0	402	821.143977326502	20.009994428729
0	405	827.331541881366	25.345239316313
0	406	831.507890685985	23.831751843
0	411	837.950079036246	22.527292003837
0	414	838.871068695273	23.262568324679
0	415	838.974635477749	23.040050066253
0	420	860.249064849504	34.722751039419
0	421	861.981251363855	26.306242165225
0	424	863.171592249292	26.459032023521
0	425	865.225045248252	26.931122252605
0	426	867.237276900225	22.125339015293
0	427	867.292219900918	18.004087023217
0	432	877.939774838103	15.090042551155
0	433	880.513300719043	12.694111210759
0	434	881.976241699748	5.380335495592
0	437	884.676733301921	0
0	440	890.125790668226	0
0	446	900.262481539194	0.414396407384
0	449	912.201097435126	0
0	452	923.643963894053	4.75623570041
0	457	928.0941874797	3.670510427914
0	460	938.381219048982	13.635890171325
0	461	938.418855420598	1.539914575082
0	464	960.517106469297	0
0	476	1033.384009707371	0
0	479	1049.993380740303	0
0	485	1082.984639060615	0
0	495	1111.920129164562	28.059573071375
0	496	1117.097496541869	28.480167388328
0	497	1120.140211383166	17.014623760152
0	500	1134.762032603282	0
0	507	1152.539275993118	11.266423428138
0	508	1159.417885939341	12.369298733127
0	509	1159.632290349757	12.094341393221
0	512	1164.904607599407	0
0	515	1178.101504796177	0
0	518	1183.818427798031	0
0	521	1195.078255801779	0
0	524	1207.401156566698	0
0	532	1218.174916901502	3.287052131768
0	533	1218.230289289381	0.255540857257
0	536	1226.344634059431	0
0	539	1235.378878174354	0
0	542	1248.5441424239	0.329862856791
0	545	1260.172834019304	7.024357048832
0	548	1265.493396779247	0
0	551	1276.969427052902	0
0	563	1304.002257148155	11.690916362413
0	566	1308.17405787577	0
0	569	1344.116104056895	0
0	572	1345.863914804289	0.550449177178
0	575	1354.599587035081	0
0	578	1358.272471843205	1.451910999364
0	590	1418.050847215568	12.246796364372
0	595	1422.571244312071	3.990309934599
0	596	1423.872605066731	4.50735403935
0	605	1432.419036892483	8.047222094412
0	608	1436.820376852627	10.7396226064
0	609	1437.924518399511	7.700944482584
0	610	1438.226776294902	6.052320734304
0	615	1439.97153411426	6.131269348202
0	616	1443.910531964757	5.670722755059
0	617	1447.842732923559	8.542938638257
0	620	1454.687437572133	2.033282683506
0	623	1457.883931666083	0
0	626	1463.273812668466	0
0	629	1472.018476230275	0
0	632	1477.399749256812	2.413925415712
0	635	1488.484311171099	0
0	641	1495.80909887314	2.108395275284
0	644	1514.130707624126	0
0	659	1558.380997347461	31.402060168849
0	662	1560.94884828646	0
0	665	1564.5415027936	0
0	668	1570.621567227446	0
0	671	1589.074637641165	0
0	683	1601.261526922386	7.071580505101
0	684	1601.493494029308	5.387735627929
0	694	1620.519143544074	20.861772358948
0	695	1622.635438075092	22.176074333224
0	696	1623.64404996905	14.950351860715
0	697	1633.693559974025	15.610631991883
0	698	1636.034362214614	16.62537652593
0	701	1643.470809558966	0
0	704	1654.772490570587	0
0	712	1676.711091384707	21.167816406843
0	713	1679.21386364079	9.911188929424
0	716	1691.348428581574	0
0	719	1692.056031350476	0
0	729	1710.214080963806	16.656503852612
0	732	1713.508603372005	19.002621812546
0	733	1714.480123088399	11.607829278919
0	734	1725.776577196435	13.257341396501
0	737	1740.523544655067	0
0	740	1745.556817795269	0
0	745	1750.930132388233	4.295873776174
0	748	1753.882603877783	3.602186685667
0	749	1757.086472762503	4.393072054491
0	752	1790.6533783296	0
0	755	1800.323722204645	6.052854991442
0	764	1830.835735441091	16.7985002295
0	765	1832.623797167416	15.826317225433
0	770	1837.332010284723	16.123264552043
0	775	1843.593471518963	20.292784571988
0	780	1848.89973498803	14.980472098942
0	783	1852.086267538725	17.945181477965
0	784	1852.227132880936	12.839503325967
0	785	1853.139876692913	12.442207437808
0	786	1853.432288123305	8.086991853863
0	787	1855.938418746694	7.737156416427
0	788	1858.122859277753	7.457711928729
0	791	1880.733915395693	0
0	794	1887.902990653761	4.839818692971
0	800	1893.733431208284	0.13822583815
0	803	1904.705244863345	0
0	809	1932.300439084964	0
0	812	1939.475494742049	0
0	815	1963.425493522929	0
0	818	1969.498394029052	5.472283105929
0	821	1971.246932154973	1.475925951892
0	824	1977.582003380281	0
0	830	2004.651654727298	0
0	833	2013.816493378783	0
0	839	2026.065640661776	0
0	842	2034.283285546739	0
0	845	2037.391245495991	0
0	848	2043.749151434587	3.052001102107
0	851	2048.643317069185	0.927178497994
0	854	2049.697799527098	0
0	860	2084.366810896809	0
0	863	2095.024971664933	0
0	869	2115.576932845457	0
0	875	2132.838212740182	0
0	878	2151.954268436023	0
0	890	2175.804034837298	0
0	893	2180.444845152746	0
0	898	2191.250611217286	0.966071779876
0	899	2193.336365702762	2.682935007622
0	902	2201.54298104968	0
0	905	2203.319575982824	0
0	912	2211.284943361315	6.093946272422
0	913	2213.100115375857	4.601187618778
0	914	2215.478176911635	5.443860165191
0	917	2218.906711902633	0
0	920	2223.371926576437	0
0	923	2224.580073242819	0.023132939396
0	929	2244.961594400775	2.617224661963
0	932	2248.739991410801	3.255056145493
0	937	2254.087592906102	3.555714628594
0	938	2257.14960632318	6.597864314277
0	941	2260.354931549517	0.077983277696
0	944	2269.751915838153	3.11547002434
0	947	2276.951709861753	0.793266920888
0	956	2316.980496204125	38.761015168056
0	957	2324.054312167151	34.729904433515
0	958	2324.541789796884	34.463646799077
0	959	2328.324317323435	11.606684371576
0	962	2332.111623841822	1.994558255993
0	971	2349.319225527921	15.043460065029
0	972	2349.945048326474	14.18086794359
0	973	2352.010507519772	10.754455155535
0	974	2353.303851468507	4.242481141301
0	985	2366.882836723012	6.728887858395
0	1001	2397.790333240972	35.708462966689
0	1002	2398.248725636991	26.718960667032
0	1005	2400.556735381945	28.827267901404
0	1006	2402.274031418871	26.111211107652
0	1007	2406.937794641717	24.393046410067
0	1008	2409.661337116044	24.031277486784
0	1011	2412.199611237298	19.495816506942
0	1012	2416.546358770545	16.773014013051
0	1013	2418.355159098634	8.503967857812
0	1020	2429.374615481496	10.118026637889
0	1021	2433.245241796142	13.723096345899
0	1022	2439.740181890479	19.072440044876
0	1025	2439.880233104867	0
0	1028	2470.080629290396	0
0	1031	2494.914627525382	0
0	1034	2496.938180140693	1.683521436177
1	196	354.792886293601	50
1	197	355.336690636385	51
1	198	356.568872983455	52
1	201	368.562917823828	53
1	204	374.044839010066	54
1	207	378.251254639535	55
1	210	394.922750141305	56
1	213	411.37744257042	57
1	219	441.971147006097	58
1	222	445.221560294784	59
1	228	451.660405781133	60
1	231	452.505930088541	61
1	245	486.11270613818	62
1	248	492.342749094427	63
1	249	497.867006109389	64
1	266	540.947196857659	65
1	267	541.247945058339	66
1	268	541.477150275483	67
1	269	542.021513375357	68
1	270	544.777604913214	69
1	271	546.319005874095	70
1	272	546.924906851279	71
1	275	549.654586714758	72
1	276	553.607373216511	73
1	279	596.213677819839	74
1	285	605.206621088151	75
1	288	616.293008400664	76
1	295	620.526404226498	77
1	301	632.563982402195	78
1	309	652.956107570237	79
1	312	663.981196631222	80
1	313	669.56673823599	81
1	314	670.956352830693	82
1	315	671.202751586002	83
1	320	675.985266668192	84
1	326	695.833199109934	85
1	336	709.709994206839	86
1	337	711.22078678345	87
1	338	711.400527591392	88
1	339	715.840641780021	89
1	346	726.893165724753	90
1	351	731.656406575023	91
1	352	731.691187010329	92
1	358	740.118078457083	93
1	359	747.406599869988	94
1	360	747.909926590032	95
1	363	748.641445768201	96
1	378	790.868108186448	97
1	402	821.143977326502	98
1	405	827.331541881366	99
1	406	831.507890685985	100
1	414	838.871068695273	101
1	415	838.974635477749	102
1	421	861.981251363855	103
1	424	863.171592249292	104
1	425	865.225045248252	105
1	426	867.237276900225	106
1	427	867.292219900918	107
1	432	877.939774838103	108
1	433	880.513300719043	109
1	434	881.976241699748	110
1	435	884.352717773659	111
1	438	887.244185111399	112
1	441	890.614935310137	113
1	447	909.223224993891	114
1	461	938.418855420598	115
1	462	943.103272490598	116
1	465	960.754967104179	117
1	477	1035.013210275695	118
1	480	1053.023671758405	119
1	496	1117.097496541869	120
1	497	1120.140211383166	121
1	498	1122.585445468399	122
1	508	1159.417885939341	123
1	509	1159.632290349757	124
1	510	1160.402127127832	125
1	513	1165.799545074856	126
1	516	1178.406014307149	127
1	519	1194.856099218322	128
1	522	1202.613739208825	129
1	525	1208.030832384118	130
1	533	1218.230289289381	131
1	534	1219.771168207235	132
1	537	1231.901409813201	133
1	542	1248.5441424239	134
1	546	1261.145782566317	135
1	549	1267.594680927833	136
1	552	1284.165662099489	137
1	564	1307.85250897115	138
1	567	1316.847932511295	139
1	572	1345.863914804289	140
1	573	1346.983732759807	141
1	578	1358.272471843205	142
1	579	1359.216374497216	143
1	595	1422.571244312071	144
1	596	1423.872605066731	145
1	605	1432.419036892483	146
1	608	1436.820376852627	147
1	609	1437.924518399511	148
1	610	1438.226776294902	149
1	615	1439.97153411426	150
1	616	1443.910531964757	151
1	617	1447.842732923559	152
1	620	1454.687437572133	153
1	621	1457.03519228388	154
1	624	1462.015932659566	155
1	627	1465.874912025241	156
1	632	1477.399749256812	157
1	633	1478.808208329977	158
1	636	1490.009764393905	159
1	642	1506.98794702566	160
1	645	1515.00118433463	161
1	660	1559.298818875276	162
1	663	1561.934206375078	163
1	666	1569.557422350356	164
1	669	1575.170852153152	165
1	672	1589.681284251913	166
1	684	1601.493494029308	167
1	695	1622.635438075092	168
1	696	1623.64404996905	169
1	697	1633.693559974025	170
1	698	1636.034362214614	171
1	699	1636.637838998127	172
1	702	1647.055104584662	173
1	713	1679.21386364079	174
1	714	1679.606698033746	175
1	717	1691.911381146495	176
1	732	1713.508603372005	177
1	733	1714.480123088399	178
1	734	1725.776577196435	179
1	735	1728.716364317528	180
1	738	1743.061081860654	181
1	748	1753.882603877783	182
1	749	1757.086472762503	183
1	750	1757.148272425434	184
1	765	1832.623797167416	185
1	775	1843.593471518963	186
1	784	1852.227132880936	187
1	785	1853.139876692913	188
1	786	1853.432288123305	189
1	787	1855.938418746694	190
1	788	1858.122859277753	191
1	789	1859.244307632519	192
1	794	1887.902990653761	193
1	795	1890.505797824292	194
1	801	1898.103440822786	195
1	804	1908.714888102739	196
1	810	1936.91059176373	197
1	813	1939.941477583074	198
1	818	1969.498394029052	199
1	821	1971.246932154973	200
1	822	1976.029367932695	201
1	825	1978.096689236751	202
1	831	2006.516584767462	203
1	834	2016.00397002041	204
1	840	2028.596137212314	205
1	843	2036.725203001044	206
1	851	2048.643317069185	207
1	852	2049.140134894509	208
1	855	2056.550860767415	209
1	861	2093.9550582306	210
1	864	2096.326250031601	211
1	870	2118.777344112145	212
1	876	2133.283189918231	213
1	879	2154.779623180259	214
1	891	2178.379930163325	215
1	899	2193.336365702762	216
1	900	2196.055107508178	217
1	903	2202.121165119463	218
1	912	2211.284943361315	219
1	913	2213.100115375857	220
1	914	2215.478176911635	221
1	915	2218.324433274934	222
1	918	2221.364210857074	223
1	923	2224.580073242819	224
1	924	2226.170210797017	225
1	932	2248.739991410801	226
1	937	2254.087592906102	227
1	938	2257.14960632318	228
1	944	2269.751915838153	229
1	957	2324.054312167151	230
1	958	2324.541789796884	231
1	959	2328.324317323435	232
1	962	2332.111623841822	233
1	971	2349.319225527921	234
1	972	2349.945048326474	235
1	973	2352.010507519772	236
1	974	2353.303851468507	237
1	975	2353.482990931774	238
1	1002	2398.248725636991	239
1	1005	2400.556735381945	240
1	1006	2402.274031418871	241
1	1007	2406.937794641717	242
1	1008	2409.661337116044	243
1	1011	2412.199611237298	244
1	1012	2416.546358770545	245
1	1013	2418.355159098634	246
1	1021	2433.245241796142	247
1	1022	2439.740181890479	248
1	1023	2439.872026278283	249
1	1026	2456.902285300893	250
1	1029	2477.748360922156	251
1	1034	2496.938180140693	252
1	1035	2497.66959145482	253
2	196	354.792886293601	1.814827012776
2	197	355.336690636385	1.916857935829
2	198	356.568872983455	2.53972850535
2	201	368.562917823828	0.572551699952
2	204	374.044839010066	3.829082338441
2	207	378.251254639535	0.198890226679
2	210	394.922750141305	2.551582192011
2	213	411.37744257042	4.430930390474
2	219	441.971147006097	13.587615202386
2	222	445.221560294784	1.210158367699
2	228	451.660405781133	0.679739253563
2	231	452.505930088541	0.775642241961
2	245	486.11270613818	28.355038940934
2	248	492.342749094427	23.805339552529
2	249	497.867006109389	23.884987809483
2	266	540.947196857659	65.403016245176
2	267	541.247945058339	54.151161806765
2	268	541.477150275483	43.327492502975
2	269	542.021513375357	41.503040378433
2	270	544.777604913214	40.769743937071
2	271	546.319005874095	24.7065180997
2	272	546.924906851279	19.001373635747
2	275	549.654586714758	12.209502536054
2	276	553.607373216511	5.342987035319
2	279	596.213677819839	5.720048563237
2	285	605.206621088151	3.002238419071
2	288	616.293008400664	0.883479935458
2	295	620.526404226498	2.060730254253
2	301	632.563982402195	12.730681345349
2	309	652.956107570237	27.860821916614
2	312	663.981196631222	31.138570188002
2	313	669.56673823599	29.718253693095
2	314	670.956352830693	28.297582324626
2	315	671.202751586002	11.608047752356
2	320	675.985266668192	2.155830542335
2	326	695.833199109934	16.006542334679
2	336	709.709994206839	10.172192181653
2	337	711.22078678345	11.16835769104
2	338	711.400527591392	10.122414641754
2	339	715.840641780021	10.397153010352
2	346	726.893165724753	6.22503674268
2	351	731.656406575023	8.345815866881
2	352	731.691187010329	6.935994994958
2	358	740.118078457083	9.757448358889
2	359	747.406599869988	14.042474772203
2	360	747.909926590032	14.381746638096
2	363	748.641445768201	0.683779975084
2	378	790.868108186448	5.251643323427
2	402	821.143977326502	24.416888255912
2	405	827.331541881366	26.197558983593
2	406	831.507890685985	29.521588120932
2	414	838.871068695273	23.448281662864
2	415	838.974635477749	23.366135107155
2	421	861.981251363855	36.45493755377
2	424	863.171592249292	27.496583050662
2	425	865.225045248252	28.512485022481
2	426	867.237276900225	28.943353904578
2	427	867.292219900918	22.180282015986
2	432	877.939774838103	28.651641960402
2	433	880.513300719043	17.663568432095
2	434	881.976241699748	14.157052191464
2	435	884.352717773659	7.756811569503
2	438	887.244185111399	2.567451809478
2	441	890.614935310137	0.489144641911
2	447	909.223224993891	9.375139862081
2	461	938.418855420598	13.673526542941
2	462	943.103272490598	6.224331645082
2	465	960.754967104179	0.237860634882
2	477	1035.013210275695	1.629200568324
2	480	1053.023671758405	3.030291018102
2	496	1117.097496541869	33.236940448682
2	497	1120.140211383166	31.522882229625
2	498	1122.585445468399	19.459857845385
2	508	1159.417885939341	18.145033374361
2	509	1159.632290349757	12.583703143543
2	510	1160.402127127832	12.864178171296
2	513	1165.799545074856	0.894937475449
2	516	1178.406014307149	0.304509510972
2	519	1194.856099218322	11.037671420291
2	522	1202.613739208825	7.535483407046
2	525	1208.030832384118	0.62967581742
2	533	1218.230289289381	3.342424519647
2	534	1219.771168207235	1.796419775111
2	537	1231.901409813201	5.55677575377
2	542	1248.5441424239	13.165264249546
2	546	1261.145782566317	7.997305595845
2	549	1267.594680927833	2.101284148586
2	552	1284.165662099489	7.196235046587
2	564	1307.85250897115	15.541168185408
2	567	1316.847932511295	8.673874635525
2	572	1345.863914804289	1.747810747394
2	573	1346.983732759807	1.670267132696
2	578	1358.272471843205	3.672884808124
2	579	1359.216374497216	2.395813653375
2	595	1422.571244312071	16.767193460875
2	596	1423.872605066731	5.291670689259
2	605	1432.419036892483	13.053785865102
2	608	1436.820376852627	12.448562054556
2	609	1437.924518399511	11.843764153284
2	610	1438.226776294902	8.003202377975
2	615	1439.97153411426	7.797078553662
2	616	1443.910531964757	10.070267198699
2	617	1447.842732923559	9.602923713861
2	620	1454.687437572133	15.387643286831
2	621	1457.03519228388	4.381037395253
2	624	1462.015932659566	4.132000993483
2	627	1465.874912025241	2.601099356775
2	632	1477.399749256812	5.381273026537
2	633	1478.808208329977	3.822384488877
2	636	1490.009764393905	1.525453222806
2	642	1506.98794702566	13.287243427804
2	645	1515.00118433463	0.870476710504
2	660	1559.298818875276	32.319881696664
2	663	1561.934206375078	0.985358088618
2	666	1569.557422350356	5.015919556756
2	669	1575.170852153152	4.549284925706
2	672	1589.681284251913	0.606646610748
2	684	1601.493494029308	7.303547612023
2	695	1622.635438075092	22.978066889966
2	696	1623.64404996905	23.184686227182
2	697	1633.693559974025	24.99986186569
2	698	1636.034362214614	17.951434232472
2	699	1636.637838998127	17.228853309443
2	702	1647.055104584662	3.584295025696
2	713	1679.21386364079	23.670588662926
2	714	1679.606698033746	10.30402332238
2	717	1691.911381146495	0.562952564921
2	732	1713.508603372005	19.951026260811
2	733	1714.480123088399	19.97414152894
2	734	1725.776577196435	22.904283386955
2	735	1728.716364317528	16.197128517594
2	738	1743.061081860654	2.537537205587
2	748	1753.882603877783	7.248345265724
2	749	1757.086472762503	6.806055570387
2	750	1757.148272425434	4.454871717422
2	765	1832.623797167416	18.586561955825
2	775	1843.593471518963	22.384725786283
2	784	1852.227132880936	18.086046820176
2	785	1853.139876692913	13.752247137944
2	786	1853.432288123305	12.7346188682
2	787	1855.938418746694	10.593122477252
2	788	1858.122859277753	9.921596947486
2	789	1859.244307632519	8.579160283495
2	794	1887.902990653761	7.169075258068
2	795	1890.505797824292	7.442625863502
2	801	1898.103440822786	4.508235452652
2	804	1908.714888102739	4.009643239394
2	810	1936.91059176373	4.610152678766
2	813	1939.941477583074	0.465982841025
2	818	1969.498394029052	6.072900506123
2	821	1971.246932154973	7.22082123185
2	822	1976.029367932695	6.258361729614
2	825	1978.096689236751	0.51468585647
2	831	2006.516584767462	1.864930040164
2	834	2016.00397002041	2.187476641627
2	840	2028.596137212314	2.530496550538
2	843	2036.725203001044	2.441917454305
2	851	2048.643317069185	7.946166736705
2	852	2049.140134894509	1.423996323318
2	855	2056.550860767415	6.853061240317
2	861	2093.9550582306	9.588247333791
2	864	2096.326250031601	1.301278366668
2	870	2118.777344112145	3.200411266688
2	876	2133.283189918231	0.444977178049
2	879	2154.779623180259	2.825354744236
2	891	2178.379930163325	2.575895326027
2	899	2193.336365702762	3.051826265352
2	900	2196.055107508178	5.401676813038
2	903	2202.121165119463	0.578184069783
2	912	2211.284943361315	7.965367378491
2	913	2213.100115375857	7.909118286964
2	914	2215.478176911635	6.979249154556
2	915	2218.324433274934	8.29011652849
2	918	2221.364210857074	2.457498954441
2	923	2224.580073242819	1.208146666382
2	924	2226.170210797017	1.613270493594
2	932	2248.739991410801	6.395621671989
2	937	2254.087592906102	8.602657640794
2	938	2257.14960632318	6.617728045672
2	944	2269.751915838153	9.474967566332
2	957	2324.054312167151	45.834831131082
2	958	2324.541789796884	35.217382063248
2	959	2328.324317323435	38.246174325628
2	962	2332.111623841822	15.393990889963
2	971	2349.319225527921	19.202159942092
2	972	2349.945048326474	15.669282863582
2	973	2352.010507519772	16.246327136888
2	974	2353.303851468507	12.04779910427
2	975	2353.482990931774	4.421620604568
2	1002	2398.248725636991	36.166855362708
2	1005	2400.556735381945	29.026970411986
2	1006	2402.274031418871	30.54456393833
2	1007	2406.937794641717	30.774974330498
2	1008	2409.661337116044	27.116588884394
2	1011	2412.199611237298	26.569551608038
2	1012	2416.546358770545	23.842564040189
2	1013	2418.355159098634	18.58181434114
2	1021	2433.245241796142	13.988652952535
2	1022	2439.740181890479	20.218036440236
2	1023	2439.872026278283	19.20428443268
2	1026	2456.902285300893	17.022052196026
2	1029	2477.748360922156	7.66773163176
2	1034	2496.938180140693	2.023552615311
2	1035	2497.66959145482	2.414932750304
3	215	424.677286875703	0
3	224	445.726656765374	0
3	233	453.152075170082	0
3	253	500.518472996924	0
3	262	530.046441100778	28.810111681699
3	281	597.832019782182	0
3	297	623.077771154931	0
3	303	632.84262644322	0
3	322	679.826656775255	0
3	330	700.05242909241	0
3	354	733.364125097785	0
3	365	755.919056504138	0
3	368	756.444722270732	0
3	371	764.958175180265	0
3	374	774.424225886246	6.507633046966
3	380	793.15059202137	0
3	391	801.986302565053	0
3	394	807.676138842985	0
3	410	836.712560225771	0
3	417	845.111937884932	0
3	443	894.55682621107	0
3	451	918.887728193643	0
3	454	924.423677051786	0
3	459	936.878940845516	0
3	467	963.643342878539	0
3	470	983.888366572202	0
3	473	1013.959005167507	0
3	482	1072.998795458644	0
3	487	1083.860556093187	0
3	494	1105.773601390622	3.51224617396
3	502	1141.27285256498	0
3	527	1211.091817981838	0
3	544	1253.148476970472	0
3	554	1286.553232548141	0
3	559	1295.67805749879	3.626691466816
3	562	1302.841418746173	3.10252599308
3	581	1374.361321184781	0
3	584	1388.176670248706	0
3	589	1415.706080854617	11.344159948067
3	638	1492.777419854212	0
3	647	1520.237753750105	0
3	652	1530.639647267317	5.130938152483
3	655	1548.762458802676	17.319136624458
3	658	1551.297729876985	0.499038734823
3	674	1591.993588473536	0
3	686	1608.693698108335	0
3	693	1620.016788096377	1.693065014443
3	706	1655.543274977864	0
3	709	1667.930642132642	3.686133359985
3	723	1694.505981559459	0
3	728	1704.18905534348	0.69760000744
3	744	1750.280417192116	0
3	754	1794.270867213203	0
3	757	1814.037235211591	0
3	769	1834.14108606076	0
3	777	1845.345296269442	0
3	782	1850.665147349024	0
3	797	1890.776097964013	0
3	806	1922.092636723965	0
3	827	1994.59783647056	0
3	836	2020.130116018747	0
3	847	2040.69715033248	0
3	857	2059.743715005417	0
3	866	2100.515253295092	0
3	872	2121.761910393029	0
3	881	2156.23609564008	0
3	884	2157.912517658309	1.366191620739
3	887	2160.947829595306	0
3	897	2190.65343069514	0
3	926	2241.152316774989	0
3	940	2260.276948271821	0
3	946	2276.158442940865	0
3	949	2278.219481036069	0
3	977	2358.506077891503	0
3	980	2360.021075938687	1.171714363059
3	991	2376.162820311219	0
3	1000	2396.304339850527	12.003354290032
3	1015	2419.256588843607	0
4	218	436.999506600332	15
4	225	445.788019018617	16
4	244	483.598133145751	17
4	262	530.046441100778	18
4	265	537.618964552049	19
4	284	604.765275245444	20
4	298	624.902133945787	21
4	308	647.021928033027	22
4	323	685.799272517424	23
4	335	705.942330591255	24
4	357	739.279294829912	25
4	366	756.317772424803	26
4	369	758.444765441322	27
4	374	774.424225886246	28
4	375	775.329692957297	29
4	383	795.442348993819	30
4	392	807.179797116405	31
4	395	814.500769866935	32
4	411	837.950079036246	33
4	420	860.249064849504	34
4	446	900.262481539194	35
4	452	923.643963894053	36
4	457	928.0941874797	37
4	460	938.381219048982	38
4	468	972.386857534219	39
4	471	989.441852327076	40
4	474	1017.459199385921	41
4	483	1080.716280702812	42
4	494	1105.773601390622	43
4	495	1111.920129164562	44
4	507	1152.539275993118	45
4	532	1218.174916901502	46
4	545	1260.172834019304	47
4	559	1295.67805749879	48
4	562	1302.841418746173	49
4	563	1304.002257148155	50
4	582	1382.086206871404	51
4	589	1415.706080854617	52
4	590	1418.050847215568	53
4	641	1495.80909887314	54
4	652	1530.639647267317	55
4	655	1548.762458802676	56
4	658	1551.297729876985	57
4	659	1558.380997347461	58
4	683	1601.261526922386	59
4	693	1620.016788096377	60
4	694	1620.519143544074	61
4	709	1667.930642132642	62
4	712	1676.711091384707	63
4	728	1704.18905534348	64
4	729	1710.214080963806	65
4	745	1750.930132388233	66
4	755	1800.323722204645	67
4	764	1830.835735441091	68
4	770	1837.332010284723	69
4	780	1848.89973498803	70
4	783	1852.086267538725	71
4	800	1893.733431208284	72
4	807	1927.94817941241	73
4	828	1997.745838867925	74
4	837	2020.528794888856	75
4	848	2043.749151434587	76
4	858	2072.839920880017	77
4	867	2102.228454209261	78
4	873	2131.073612969	79
4	884	2157.912517658309	80
4	885	2158.25130991284	81
4	888	2163.389701632824	82
4	898	2191.250611217286	83
4	929	2244.961594400775	84
4	941	2260.354931549517	85
4	947	2276.951709861753	86
4	956	2316.980496204125	87
4	980	2360.021075938687	88
4	985	2366.882836723012	89
4	1000	2396.304339850527	90
4	1001	2397.790333240972	91
4	1020	2429.374615481496	92
5	218	436.999506600332	12.322219724629
5	225	445.788019018617	0.061362253243
5	244	483.598133145751	30.446057975669
5	262	530.046441100778	29.527968103854
5	265	537.618964552049	36.38263513297
5	284	604.765275245444	6.933255463262
5	298	624.902133945787	1.824362790856
5	308	647.021928033027	14.179301589807
5	323	685.799272517424	5.972615742169
5	335	705.942330591255	5.889901498845
5	357	739.279294829912	5.915169732127
5	366	756.317772424803	0.398715920665
5	369	758.444765441322	2.00004317059
5	374	774.424225886246	9.466050705981
5	375	775.329692957297	7.413100118017
5	383	795.442348993819	2.291756972449
5	392	807.179797116405	5.193494551352
5	395	814.500769866935	6.82463102395
5	411	837.950079036246	1.237518810475
5	420	860.249064849504	15.137126964572
5	446	900.262481539194	5.705655328124
5	452	923.643963894053	4.75623570041
5	457	928.0941874797	3.670510427914
5	460	938.381219048982	1.502278203466
5	468	972.386857534219	8.74351465568
5	471	989.441852327076	5.553485754874
5	474	1017.459199385921	3.500194218414
5	483	1080.716280702812	7.717485244168
5	494	1105.773601390622	21.913045297435
5	495	1111.920129164562	9.6587739479
5	507	1152.539275993118	11.266423428138
5	532	1218.174916901502	7.083098919664
5	545	1260.172834019304	7.024357048832
5	559	1295.67805749879	9.124824950649
5	562	1302.841418746173	10.790052714199
5	563	1304.002257148155	4.263364395062
5	582	1382.086206871404	7.724885686623
5	589	1415.706080854617	27.529410605911
5	590	1418.050847215568	13.688926309018
5	641	1495.80909887314	3.031679018928
5	652	1530.639647267317	10.401893517212
5	655	1548.762458802676	23.253749687842
5	658	1551.297729876985	19.854407698767
5	659	1558.380997347461	7.582306205299
5	683	1601.261526922386	9.26793844885
5	693	1620.016788096377	11.323089988042
5	694	1620.519143544074	2.19542046214
5	709	1667.930642132642	12.387367154778
5	712	1676.711091384707	12.46658261205
5	728	1704.18905534348	9.683073784021
5	729	1710.214080963806	6.722625627766
5	745	1750.930132388233	0.649715196117
5	755	1800.323722204645	6.052854991442
5	764	1830.835735441091	16.7985002295
5	770	1837.332010284723	3.190924223963
5	780	1848.89973498803	3.554438718588
5	783	1852.086267538725	1.421120189701
5	800	1893.733431208284	2.957333244271
5	807	1927.94817941241	5.855542688445
5	828	1997.745838867925	3.148002397365
5	837	2020.528794888856	0.398678870109
5	848	2043.749151434587	3.052001102107
5	858	2072.839920880017	13.0962058746
5	867	2102.228454209261	1.713200914169
5	873	2131.073612969	9.311702575971
5	884	2157.912517658309	1.676422018229
5	885	2158.25130991284	1.70498387527
5	888	2163.389701632824	2.441872037518
5	898	2191.250611217286	0.597180522146
5	929	2244.961594400775	3.809277625786
5	941	2260.354931549517	0.077983277696
5	947	2276.951709861753	0.793266920888
5	956	2316.980496204125	38.761015168056
5	980	2360.021075938687	1.514998047184
5	985	2366.882836723012	8.033475147384
5	1000	2396.304339850527	20.141519539308
5	1001	2397.790333240972	13.489347680477
5	1020	2429.374615481496	10.118026637889
6	253	500.518472996924	9
6	297	623.077771154931	10
6	303	632.84262644322	11
6	322	679.826656775255	12
6	330	700.05242909241	13
6	354	733.364125097785	14
6	391	801.986302565053	15
6	394	807.676138842985	16
6	410	836.712560225771	17
6	417	845.111937884932	18
6	451	918.887728193643	19
6	454	924.423677051786	20
6	459	936.878940845516	21
6	487	1083.860556093187	22
6	502	1141.27285256498	23
6	544	1253.148476970472	24
6	686	1608.693698108335	25
6	706	1655.543274977864	26
6	723	1694.505981559459	27
6	744	1750.280417192116	28
6	754	1794.270867213203	29
6	757	1814.037235211591	30
6	769	1834.14108606076	31
6	777	1845.345296269442	32
6	782	1850.665147349024	33
6	847	2040.69715033248	34
6	897	2190.65343069514	35
6	940	2260.276948271821	36
6	946	2276.158442940865	37
6	949	2278.219481036069	38
6	991	2376.162820311219	39
6	1015	2419.256588843607	40
7	1036	2500	0.1012
8	1036	2500	0.0368

