version 2
run analysis_2kr_easy_game_mode-44-20230322-09:08:18-7097
attr configname analysis_2kr_easy_game_mode
attr datetime 20230322-09:08:18
attr experiment analysis_2kr_easy_game_mode
attr inifile omnetpp.ini
attr iterationvars "$0=20, $1=7.5, $2=10, $3=1, $4=0"
attr iterationvarsf 20,7.5,10,1,0-
attr measurement "$0=20, $1=7.5, $2=10, $3=1, $4=0"
attr network Network
attr processid 7097
attr repetition 4
attr replication #4
attr resultdir results
attr runnumber 44
attr seedset 4
param *.boss.arrival_mean 20
param *.boss.service_mean 7.5
param *.minion.arrival_mean 10
param *.minion.service_mean 1
param *.player.recover_rate_x 0
param **.minion.arrival_distribution 0
param **.minion.service_distribution 0
param **.boss.arrival_distribution 0
param **.boss.service_distribution 0

vector 0 Network.player boss_defeated_stat:vector ETV
attr source signal_boss_defeated
vector 1 Network.player boss_response_time_stat:vector ETV
attr source signal_boss_response_time
vector 2 Network.player minion_waiting_time_stat:vector ETV
attr source signal_minion_waiting_time
vector 3 Network.player minion_defeated_stat:vector ETV
attr source signal_minion_defeated
vector 4 Network.player minion_response_time_stat:vector ETV
attr source signal_minion_response_time
vector 5 Network.player boss_waiting_time_stat:vector ETV
attr source signal_boss_waiting_time
vector 6 Network.player minion_recovered_stat:vector ETV
attr source signal_minion_recovered
vector 7 Network.player minion_throughput:vector ETV
attr source signal_minion_throughput
vector 8 Network.player boss_throughput:vector ETV
attr source signal_boss_throughput
0	192	352.064049225192	15
0	204	356.642687665543	16
0	215	392.967718111735	17
0	228	429.942746501394	18
0	229	437.515269952665	19
0	258	485.198871289009	20
0	267	500.286579714802	21
0	273	520.453402744385	22
0	287	549.833941162375	23
0	291	565.931844772775	24
0	296	592.606469810357	25
0	303	605.133961123978	26
0	306	607.155820987178	27
0	319	621.432590850196	28
0	320	622.338057921247	29
0	330	636.812230589548	30
0	340	646.782536603397	31
0	341	653.607167627347	32
0	348	670.607566991094	33
0	358	691.226677272519	34
0	374	721.351116296981	35
0	395	739.866418255326	36
0	396	743.53692868324	37
0	402	751.005430879881	38
0	405	779.658188958513	39
0	410	792.664179012638	40
0	426	814.667398352422	41
0	452	866.116521611086	42
0	464	889.001490171987	43
0	467	895.148017945927	44
0	479	924.284705480124	45
0	489	975.956553305137	46
0	492	1009.543138625212	47
0	499	1038.367410989164	48
0	502	1045.530772236547	49
0	503	1046.691610638529	50
0	518	1107.213942634449	51
0	526	1138.070746804877	52
0	527	1140.415513165828	53
0	548	1197.253614902299	54
0	566	1226.592096517297	55
0	571	1244.714908052656	56
0	572	1247.250179126965	57
0	575	1254.333446597441	58
0	587	1282.86280922768	59
0	595	1298.278048474712	60
0	596	1298.780403922409	61
0	605	1336.821987137071	62
0	610	1345.602436389136	63
0	621	1365.287859031591	64
0	622	1371.312884651917	65
0	627	1400.874048949812	66
0	658	1441.469548762007	67
0	671	1468.028288398775	68
0	672	1471.219212622738	69
0	684	1479.830675734144	70
0	687	1481.953238068923	71
0	698	1515.578211615484	72
0	705	1543.52965206762	73
0	725	1598.826271573816	74
0	735	1616.50277168511	75
0	744	1635.609721368094	76
0	752	1660.891177878937	77
0	759	1682.125403550246	78
0	773	1706.721230890398	79
0	782	1726.665298530297	80
0	783	1727.004090784828	81
0	786	1731.200135713767	82
0	800	1753.119925078262	83
0	806	1796.731131045781	84
0	810	1808.299541895156	85
0	818	1821.720021273583	86
0	831	1861.336599996914	87
0	848	1888.319860360389	88
0	851	1895.181621144714	89
0	859	1921.071775788286	90
0	860	1922.557769178731	91
0	869	1945.523297712777	92
0	906	2057.735889363654	93
0	909	2072.632831071072	94
0	922	2090.601010599737	95
0	929	2105.713983836623	96
0	930	2110.201246222558	97
0	931	2113.533052326732	98
0	938	2140.182743977589	99
0	939	2143.69504867875	100
0	940	2144.788464798934	101
0	941	2144.876750717191	102
0	952	2158.656002020599	103
0	955	2159.087763640725	104
0	960	2178.120157508183	105
0	963	2190.16836840703	106
0	995	2234.859237258271	107
0	998	2242.65627863606	108
0	1031	2333.331464192952	109
0	1034	2334.533116538038	110
0	1041	2342.911399056848	111
0	1044	2353.670688158276	112
0	1073	2393.748119399343	113
0	1074	2394.860611514291	114
0	1083	2409.535768596474	115
0	1099	2451.017035653936	116
0	1100	2455.486124249863	117
0	1104	2463.445474533355	118
0	1107	2467.546455616368	119
0	1113	2482.566805014882	120
1	192	352.064049225192	12.322219724629
1	204	356.642687665543	0.061362253243
1	215	392.967718111735	30.446057975669
1	228	429.942746501394	29.527968103854
1	229	437.515269952665	36.526206417401
1	258	485.198871289009	6.933255463262
1	267	500.286579714802	1.824362790856
1	273	520.453402744385	14.179301589807
1	287	549.833941162375	5.972615742169
1	291	565.931844772775	5.889901498845
1	296	592.606469810357	5.915169732127
1	303	605.133961123978	0.398715920665
1	306	607.155820987178	2.00004317059
1	319	621.432590850196	9.466050705981
1	320	622.338057921247	8.00478364982
1	330	636.812230589548	2.291756972449
1	340	646.782536603397	5.193494551352
1	341	653.607167627347	7.466256552956
1	348	670.607566991094	1.237518810475
1	358	691.226677272519	15.137126964572
1	374	721.351116296981	5.705655328124
1	395	739.866418255326	4.75623570041
1	396	743.53692868324	3.997987041809
1	402	751.005430879881	1.502278203466
1	405	779.658188958513	8.74351465568
1	410	792.664179012638	5.553485754874
1	426	814.667398352422	3.500194218414
1	452	866.116521611086	7.717485244168
1	464	889.001490171987	21.913045297435
1	467	895.148017945927	13.338933772595
1	479	924.284705480124	11.266423428138
1	489	975.956553305137	7.083098919664
1	492	1009.543138625212	7.024357048832
1	499	1038.367410989164	9.124824950649
1	502	1045.530772236547	11.889679410966
1	503	1046.691610638529	6.900496436053
1	518	1107.213942634449	7.724885686623
1	526	1138.070746804877	27.529410605911
1	527	1140.415513165828	16.925976440587
1	548	1197.253614902299	3.031679018928
1	566	1226.592096517297	10.401893517212
1	571	1244.714908052656	24.307940760787
1	572	1247.250179126965	22.095521384389
1	575	1254.333446597441	13.69449368371
1	587	1282.86280922768	9.26793844885
1	595	1298.278048474712	11.323089988042
1	596	1298.780403922409	4.12142545686
1	605	1336.821987137071	12.387367154778
1	610	1345.602436389136	14.206829371008
1	621	1365.287859031591	9.683073784021
1	622	1371.312884651917	8.519720383083
1	627	1400.874048949812	0.649715196117
1	658	1441.469548762007	6.052854991442
1	671	1468.028288398775	16.7985002295
1	672	1471.219212622738	3.906343774128
1	684	1479.830675734144	3.554438718588
1	687	1481.953238068923	1.421120189701
1	698	1515.578211615484	2.957333244271
1	705	1543.52965206762	5.855542688445
1	725	1598.826271573816	3.148002397365
1	735	1616.50277168511	0.398678870109
1	744	1635.609721368094	3.052001102107
1	752	1660.891177878937	13.0962058746
1	759	1682.125403550246	1.713200914169
1	773	1706.721230890398	9.311702575971
1	782	1726.665298530297	1.676422018229
1	783	1727.004090784828	1.767029954768
1	786	1731.200135713767	2.441872037518
1	800	1753.119925078262	0.597180522146
1	806	1796.731131045781	3.809277625786
1	810	1808.299541895156	0.077983277696
1	818	1821.720021273583	0.793266920888
1	831	1861.336599996914	38.761015168056
1	848	1888.319860360389	1.514998047184
1	851	1895.181621144714	8.102131884209
1	859	1921.071775788286	20.141519539308
1	860	1922.557769178731	15.116980730332
1	869	1945.523297712777	10.118026637889
1	906	2057.735889363654	3.398639005137
1	909	2072.632831071072	2.09942601893
1	922	2090.601010599737	14.954254060593
1	929	2105.713983836623	28.799201650696
1	930	2110.201246222558	31.067489677017
1	931	2113.533052326732	31.983668385661
1	938	2140.182743977589	58.304658058214
1	939	2143.69504867875	48.545505072912
1	940	2144.788464798934	41.279234667088
1	941	2144.876750717191	28.678855195154
1	952	2158.656002020599	9.432266494702
1	955	2159.087763640725	4.943154905497
1	960	2178.120157508183	19.074931275389
1	963	2190.16836840703	30.39773839673
1	995	2234.859237258271	20.542427174819
1	998	2242.65627863606	19.281410413417
1	1031	2333.331464192952	20.652123287642
1	1034	2334.533116538038	20.713028264064
1	1041	2342.911399056848	28.869754307298
1	1044	2353.670688158276	11.631574894246
1	1073	2393.748119399343	20.97570514697
1	1074	2394.860611514291	14.022715379316
1	1083	2409.535768596474	5.571119660926
1	1099	2451.017035653936	17.583956107169
1	1100	2455.486124249863	7.554343155343
1	1104	2463.445474533355	2.407280736728
1	1107	2467.546455616368	0.238328825714
1	1113	2482.566805014882	7.248385293337
2	194	352.978059280825	0
2	197	353.496581284475	0.076748583919
2	200	354.029144478105	0
2	215	392.967718111735	24.977351987859
2	216	393.131304311721	22.915547640096
2	217	394.22532783699	16.172963424134
2	218	394.282153616041	1.910985666747
2	229	437.515269952665	30.568757772719
2	230	438.781250064229	10.397718260518
2	233	444.011401927085	0
2	236	450.98066652757	0
2	239	451.73028784658	0
2	242	457.757667197246	0
2	245	468.537409541898	0
2	248	473.982018299906	0
2	253	475.560377447038	1.030635836136
2	254	476.399686584146	0.855505971663
2	260	487.096783251574	0
2	263	498.149657772508	0
2	269	504.007860976143	0
2	275	521.612487774395	0
2	278	527.923533215532	0
2	281	537.445084178704	0
2	287	549.833941162375	1.569554981183
2	296	592.606469810357	2.112840553755
2	299	602.20438266908	0
2	320	622.338057921247	6.928529456041
2	321	622.590480759949	4.124806787704
2	322	623.179260832593	3.461413037735
2	325	626.491717478264	6.658416421418
2	326	628.680817037238	3.585531383615
2	332	639.848484542895	0
2	341	653.607167627347	10.94839712128
2	344	659.594703833646	0
2	350	673.829436125857	0
2	353	675.333498500462	0
2	358	691.226677272519	15.137126964572
2	359	693.709391583757	2.799249155754
2	362	699.537802025186	0
2	365	701.278112949638	0
2	368	705.443488769669	0
2	374	721.351116296981	0.682987314908
2	377	723.310590708142	0
2	380	724.755192015371	0
2	383	726.969688862878	0
2	386	730.360630098194	0
2	389	733.528179951936	0
2	398	747.957665793117	0
2	407	785.616464863021	0
2	410	792.664179012638	5.553485754874
2	413	794.197517599841	0
2	418	796.756723589772	0.133024187806
2	419	798.576830106253	1.849741035663
2	422	801.133982897773	0
2	428	815.422787032409	0
2	431	815.685926934988	0.077426564394
2	434	815.934585411496	0
2	437	825.526313810085	0
2	440	835.67500919863	0
2	443	838.293922995647	0
2	446	849.288132877701	0
2	452	866.116521611086	3.266789324138
2	467	895.148017945927	27.328828437643
2	468	895.566001083271	18.970094879115
2	469	896.244994247246	11.568260945325
2	470	896.978551907097	6.852761238871
2	473	899.84808513181	0
2	476	912.201097435126	0
2	479	924.284705480124	11.266423428138
2	482	927.62695052155	2.881621643893
2	485	960.517106469297	0
2	503	1046.691610638529	13.307600931158
2	506	1049.993380740303	0
2	509	1082.984639060615	0
2	512	1088.617329153541	0
2	518	1107.213942634449	4.088355011435
2	527	1140.415513165828	5.653480562546
2	530	1147.048587206214	0
2	533	1147.537948956536	0
2	536	1164.904607599407	0
2	539	1178.101504796177	0
2	542	1183.818427798031	0
2	548	1197.253614902299	2.17535910052
2	551	1207.401156566698	0
2	554	1214.887864769734	0
2	575	1254.333446597441	36.358698165317
2	576	1254.773697716828	28.429063657397
2	577	1256.361347932191	20.982469757837
2	578	1260.12285200349	11.908572436381
2	581	1265.493396779247	0
2	587	1282.86280922768	5.893382174778
2	596	1298.780403922409	6.469063136667
2	599	1308.17405787577	0
2	610	1345.602436389136	1.486332332241
2	611	1346.101810888392	0.788345261281
2	614	1354.599587035081	0
2	622	1371.312884651917	15.708099404347
2	623	1371.357082098892	14.536521255051
2	629	1405.804050851196	0
2	632	1418.580934377472	0
2	635	1419.365251027381	0
2	638	1424.371814798071	0
2	641	1426.080754246227	0
2	644	1430.223573916927	0
2	647	1432.174455560598	0
2	650	1433.840264766058	0
2	658	1441.469548762007	3.229739552309
2	659	1442.593034750236	3.293240464934
2	672	1471.219212622738	18.565057734111
2	673	1471.889999683237	14.006068017154
2	676	1473.070571395661	9.796758727195
2	677	1473.813742640454	1.795266410179
2	680	1475.351249219465	0.365425378365
2	689	1488.484311171099	0
2	692	1493.700703597856	0
2	698	1515.578211615484	1.447503991358
2	701	1526.978937178612	0
2	707	1560.94884828646	0
2	710	1564.5415027936	0
2	713	1570.621567227446	0
2	716	1589.074637641165	0
2	719	1594.189946417285	0
2	725	1598.826271573816	2.720513172437
2	730	1602.770531245712	3.113160060586
2	731	1603.375186826003	2.915823084135
2	737	1618.082927982142	0
2	740	1619.408985688684	0
2	746	1643.470809558966	0
2	752	1660.891177878937	6.11868730835
2	755	1669.302674711366	0
2	761	1691.348428581574	0
2	764	1692.056031350476	0
2	767	1693.557577111194	0
2	773	1706.721230890398	3.848937080918
2	776	1712.519235799934	0
2	788	1740.523544655067	0
2	791	1745.556817795269	0
2	794	1747.439611562945	0.805352950886
2	800	1753.119925078262	0.42652437025
2	803	1790.6533783296	0
2	806	1796.731131045781	3.809277625786
2	812	1816.797479941983	0
2	818	1821.720021273583	0.511275540903
2	831	1861.336599996914	38.761015168056
2	832	1862.270025365707	38.969338418732
2	833	1863.243429263549	29.324166374461
2	834	1863.932870690401	24.545241135432
2	835	1864.19365463668	23.495985381575
2	836	1864.277200759649	16.075938429382
2	839	1880.733915395693	0
2	842	1883.06317196079	0
2	851	1895.181621144714	1.58641577458
2	860	1922.557769178731	17.852524315386
2	863	1932.300439084964	0
2	869	1945.523297712777	6.047802970728
2	872	1963.425493522929	0
2	875	1965.16060795325	1.134497030127
2	878	1969.771006203081	0
2	881	1977.582003380281	0
2	884	2004.651654727298	0
2	887	2013.816493378783	0
2	890	2026.065640661776	0
2	893	2034.283285546739	0
2	896	2037.391245495991	0
2	899	2047.716138571191	0
2	902	2049.697799527098	0
2	941	2144.876750717191	60.509939820382
2	942	2147.616249955417	52.591278290484
2	943	2147.988043774465	32.411110929008
2	944	2148.902446993519	16.064234253337
2	963	2190.16836840703	38.214099971007
2	966	2190.975612619669	15.171577782371
2	967	2191.71158271282	11.266737560074
2	968	2195.042458536944	4.757919099534
2	971	2201.54298104968	0
2	974	2203.319575982824	0
2	977	2205.595395233821	0.404398144928
2	980	2208.498927757079	0
2	983	2210.034316746444	0
2	998	2242.65627863606	23.749566733427
2	999	2243.358421194472	19.986494618035
2	1000	2243.703605956295	19.146665652872
2	1001	2244.15793097178	1.813561232968
2	1004	2245.484935265308	0
2	1007	2250.531878277508	0
2	1010	2251.406739253816	0.854997244913
2	1013	2266.636445813813	0
2	1016	2289.324407733636	0
2	1019	2290.078142997807	0
2	1044	2353.670688158276	36.953055206417
2	1045	2354.752775734958	24.635710149129
2	1046	2359.669233359558	25.393467896666
2	1047	2359.84803987343	24.083859490546
2	1050	2360.438171071515	19.182118707278
2	1051	2360.807697914011	11.746327586805
2	1052	2360.858880617801	0.704931753184
2	1055	2364.258983304374	2.177113030091
2	1058	2371.529764969959	0
2	1061	2372.18919632566	0.459728845119
2	1074	2394.860611514291	12.315863282641
2	1075	2395.638766506956	10.008706877696
2	1076	2396.363987684457	3.660192954101
2	1079	2399.773344757494	0
2	1085	2409.851191240822	0
2	1088	2419.522145450243	0
2	1091	2421.377842620054	0.710100774451
2	1100	2455.486124249863	15.605891144996
2	1109	2470.080629290396	0
2	1115	2494.914627525382	0
2	1118	2495.492785415471	0.238126710955
3	197	353.496581284475	50
3	198	353.651953953842	51
3	201	354.381196577268	52
3	216	393.131304311721	53
3	217	394.22532783699	54
3	218	394.282153616041	55
3	219	395.011177099473	56
3	230	438.781250064229	57
3	231	440.201718751591	58
3	234	444.357161460713	59
3	237	451.174877742874	60
3	240	451.951899915712	61
3	243	458.476116623654	62
3	246	470.317421815112	63
3	253	475.560377447038	64
3	254	476.399686584146	65
3	255	477.350610100035	66
3	261	487.182711308911	67
3	264	498.215144977406	68
3	270	504.795315701245	69
3	276	522.052888048932	70
3	279	528.096647780442	71
3	282	538.224992711126	72
3	288	550.963308734305	73
3	297	594.240769399853	74
3	300	602.330481481282	75
3	321	622.590480759949	76
3	322	623.179260832593	77
3	325	626.491717478264	78
3	326	628.680817037238	79
3	327	630.376296905012	80
3	333	641.444353572829	81
3	342	654.004200368691	82
3	345	659.66510347802	83
3	351	674.445387709381	84
3	359	693.709391583757	85
3	360	695.149881487089	86
3	363	700.614277343924	87
3	366	701.329467466193	88
3	369	706.712092823563	89
3	375	723.129698223461	90
3	378	724.671516665362	91
3	381	724.765129282601	92
3	384	729.156594056979	93
3	387	730.6002825631	94
3	390	733.671987586234	95
3	399	748.153031500284	96
3	411	792.670420138874	97
3	418	796.756723589772	98
3	419	798.576830106253	99
3	420	800.474889380415	100
3	423	802.901858484877	101
3	431	815.685926934988	102
3	432	815.715517444267	103
3	435	817.695966951662	104
3	438	826.021224242757	105
3	441	836.015106594469	106
3	444	838.868846324782	107
3	447	852.330291431183	108
3	453	866.851814719926	109
3	468	895.566001083271	110
3	469	896.244994247246	111
3	470	896.978551907097	112
3	471	897.118307519071	113
3	474	902.408297547438	114
3	482	927.62695052155	115
3	483	927.637703770583	116
3	486	960.585066650692	117
3	504	1047.157096515193	118
3	507	1050.859178174046	119
3	510	1084.505079597436	120
3	513	1089.486676251054	121
3	519	1107.912580944516	122
3	528	1143.501999053751	123
3	531	1147.10984560919	124
3	534	1147.7579023217	125
3	537	1165.160304020964	126
3	540	1178.188507513597	127
3	543	1186.972048203828	128
3	549	1199.406610161455	129
3	552	1207.581063943104	130
3	555	1214.903685451985	131
3	576	1254.773697716828	132
3	577	1256.361347932191	133
3	578	1260.12285200349	134
3	579	1261.584691115089	135
3	582	1266.093763678843	136
3	588	1284.918876383848	137
3	597	1299.880475871836	138
3	600	1310.652307771634	139
3	611	1346.101810888392	140
3	612	1346.421758875683	141
3	623	1371.357082098892	142
3	624	1371.626768571467	143
3	630	1407.095592878768	144
3	633	1418.952751735946	145
3	636	1421.807088691882	146
3	639	1425.629340500969	147
3	642	1426.396223259622	148
3	645	1430.30993331561	149
3	648	1432.6729577947	150
3	651	1434.965692723343	151
3	659	1442.593034750236	152
3	660	1444.548664649829	153
3	673	1471.889999683237	154
3	676	1473.070571395661	155
3	677	1473.813742640454	156
3	680	1475.351249219465	157
3	681	1475.753666097512	158
3	690	1488.920154949044	159
3	693	1496.894660212862	160
3	699	1515.826919247056	161
3	702	1527.241171900845	162
3	708	1561.230379168922	163
3	711	1565.974622666959	164
3	714	1571.921362920505	165
3	717	1589.247965244236	166
3	720	1594.256222733548	167
3	730	1602.770531245712	168
3	731	1603.375186826003	169
3	732	1603.663361652848	170
3	738	1618.75172862231	171
3	741	1619.581407626831	172
3	747	1644.494893852022	173
3	753	1661.66863667212	174
3	756	1669.414913109353	175
3	762	1691.509272171551	176
3	765	1692.908432059062	177
3	768	1694.498869227822	178
3	774	1709.94878920698	179
3	777	1713.359174977389	180
3	789	1741.248555285235	181
3	794	1747.439611562945	182
3	795	1748.283174845674	183
3	801	1753.137582124814	184
3	807	1798.886060050618	185
3	813	1817.251581493369	186
3	832	1862.270025365707	187
3	833	1863.243429263549	188
3	834	1863.932870690401	189
3	835	1864.19365463668	190
3	836	1864.277200759649	191
3	837	1864.901326625666	192
3	840	1882.782222612284	193
3	843	1883.80683115237	194
3	852	1896.430195320286	195
3	861	1923.703381532844	196
3	864	1933.617625564611	197
3	870	1945.656435667356	198
3	875	1965.16060795325	199
3	876	1965.660190274942	200
3	879	1971.137416425287	201
3	882	1977.72905648213	202
3	885	2005.184491881631	203
3	888	2014.441486704962	204
3	891	2026.788639676215	205
3	894	2034.980976247969	206
3	897	2039.265570575182	207
3	900	2047.858086521284	208
3	903	2051.655817024332	209
3	942	2147.616249955417	210
3	943	2147.988043774465	211
3	944	2148.902446993519	212
3	945	2149.029583330105	213
3	966	2190.975612619669	214
3	967	2191.71158271282	215
3	968	2195.042458536944	216
3	969	2195.638388389937	217
3	972	2201.70817649819	218
3	977	2205.595395233821	219
3	978	2206.114015809404	220
3	981	2209.178373910159	221
3	984	2210.847532850244	222
3	999	2243.358421194472	223
3	1000	2243.703605956295	224
3	1001	2244.15793097178	225
3	1002	2245.237472974645	226
3	1005	2247.012821406823	227
3	1010	2251.406739253816	228
3	1011	2254.361771434758	229
3	1014	2269.784723884223	230
3	1017	2289.463687056417	231
3	1020	2291.15886514825	232
3	1045	2354.752775734958	233
3	1046	2359.669233359558	234
3	1047	2359.84803987343	235
3	1050	2360.438171071515	236
3	1051	2360.807697914011	237
3	1052	2360.858880617801	238
3	1055	2364.258983304374	239
3	1056	2364.389952560379	240
3	1061	2372.18919632566	241
3	1062	2372.67985233621	242
3	1075	2395.638766506956	243
3	1076	2396.363987684457	244
3	1077	2397.605915551099	245
3	1080	2400.290144851234	246
3	1086	2411.014123645063	247
3	1091	2421.377842620054	248
3	1092	2421.415512445141	249
3	1101	2460.349567734442	250
3	1110	2472.271409756613	251
3	1118	2495.492785415471	252
3	1119	2495.70176007665	253
4	197	353.496581284475	0.51852200365
4	198	353.651953953842	0.232121253286
4	201	354.381196577268	0.352052099163
4	216	393.131304311721	25.140938187845
4	217	394.22532783699	24.009571165365
4	218	394.282153616041	16.229789203185
4	219	395.011177099473	2.640009150179
4	230	438.781250064229	31.834737884283
4	231	440.201718751591	11.81818694788
4	234	444.357161460713	0.345759533628
4	237	451.174877742874	0.194211215304
4	240	451.951899915712	0.221612069132
4	243	458.476116623654	0.718449426408
4	246	470.317421815112	1.780012273214
4	253	475.560377447038	1.578359147132
4	254	476.399686584146	1.869944973244
4	255	477.350610100035	1.806429487552
4	261	487.182711308911	0.085928057337
4	264	498.215144977406	0.065487204898
4	270	504.795315701245	0.787454725102
4	276	522.052888048932	0.440400274537
4	279	528.096647780442	0.17311456491
4	282	538.224992711126	0.779908532422
4	288	550.963308734305	2.698922553113
4	297	594.240769399853	3.747140143251
4	300	602.330481481282	0.126098812202
4	321	622.590480759949	7.180952294743
4	322	623.179260832593	4.713586860348
4	325	626.491717478264	6.773869683406
4	326	628.680817037238	8.847515980392
4	327	630.376296905012	5.281011251389
4	333	641.444353572829	1.595869029934
4	342	654.004200368691	11.345429862624
4	345	659.66510347802	0.070399644374
4	351	674.445387709381	0.615951583524
4	359	693.709391583757	17.61984127581
4	360	695.149881487089	4.239739059086
4	363	700.614277343924	1.076475318738
4	366	701.329467466193	0.051354516555
4	369	706.712092823563	1.268604053894
4	375	723.129698223461	2.461569241388
4	378	724.671516665362	1.36092595722
4	381	724.765129282601	0.00993726723
4	384	729.156594056979	2.186905194101
4	387	730.6002825631	0.239652464906
4	390	733.671987586234	0.143807634298
4	399	748.153031500284	0.195365707167
4	411	792.670420138874	5.55972688111
4	418	796.756723589772	2.559205989931
4	419	798.576830106253	1.953130704287
4	420	800.474889380415	3.747800309825
4	423	802.901858484877	1.767875587104
4	431	815.685926934988	0.263139902579
4	432	815.715517444267	0.107017073673
4	435	817.695966951662	1.761381540166
4	438	826.021224242757	0.494910432672
4	441	836.015106594469	0.340097395839
4	444	838.868846324782	0.574923329135
4	447	852.330291431183	3.042158553482
4	453	866.851814719926	4.002082432978
4	468	895.566001083271	27.746811574987
4	469	896.244994247246	19.64908804309
4	470	896.978551907097	12.301818605176
4	471	897.118307519071	6.992516850845
4	474	902.408297547438	2.560212415628
4	482	927.62695052155	14.608668469564
4	483	927.637703770583	2.892374892926
4	486	960.585066650692	0.067960181395
4	504	1047.157096515193	13.773086807822
4	507	1050.859178174046	0.865797433743
4	510	1084.505079597436	1.520440536821
4	513	1089.486676251054	0.869347097513
4	519	1107.912580944516	4.786993321502
4	528	1143.501999053751	8.739966450469
4	531	1147.10984560919	0.061258402976
4	534	1147.7579023217	0.219953365164
4	537	1165.160304020964	0.255696421557
4	540	1178.188507513597	0.08700271742
4	543	1186.972048203828	3.153620405797
4	549	1199.406610161455	4.328354359676
4	552	1207.581063943104	0.179907376406
4	555	1214.903685451985	0.015820682251
4	576	1254.773697716828	36.798949284704
4	577	1256.361347932191	30.01671387276
4	578	1260.12285200349	24.743973829136
4	579	1261.584691115089	13.37041154798
4	582	1266.093763678843	0.600366899596
4	588	1284.918876383848	7.949449330946
4	597	1299.880475871836	7.569135086094
4	600	1310.652307771634	2.478249895864
4	611	1346.101810888392	1.985706831497
4	612	1346.421758875683	1.108293248572
4	623	1371.357082098892	15.752296851322
4	624	1371.626768571467	14.806207727626
4	630	1407.095592878768	1.291542027572
4	633	1418.952751735946	0.371817358474
4	636	1421.807088691882	2.441837664501
4	639	1425.629340500969	1.257525702898
4	642	1426.396223259622	0.315469013395
4	645	1430.30993331561	0.086359398683
4	648	1432.6729577947	0.498502234102
4	651	1434.965692723343	1.125427957285
4	659	1442.593034750236	4.353225540538
4	660	1444.548664649829	5.248870364527
4	673	1471.889999683237	19.23584479461
4	676	1473.070571395661	15.186639729578
4	677	1473.813742640454	10.539929971988
4	680	1475.351249219465	3.33277298919
4	681	1475.753666097512	0.767842256412
4	690	1488.920154949044	0.435843777945
4	693	1496.894660212862	3.193956615006
4	699	1515.826919247056	1.69621162293
4	702	1527.241171900845	0.262234722233
4	708	1561.230379168922	0.281530882462
4	711	1565.974622666959	1.433119873359
4	714	1571.921362920505	1.299795693059
4	717	1589.247965244236	0.173327603071
4	720	1594.256222733548	0.066276316263
4	730	1602.770531245712	6.664772844333
4	731	1603.375186826003	3.717815640877
4	732	1603.663361652848	3.20399791098
4	738	1618.75172862231	0.668800640168
4	741	1619.581407626831	0.172421938147
4	747	1644.494893852022	1.024084293056
4	753	1661.66863667212	6.896146101533
4	756	1669.414913109353	0.112238397987
4	762	1691.509272171551	0.160843589977
4	765	1692.908432059062	0.852400708586
4	768	1694.498869227822	0.941292116628
4	774	1709.94878920698	7.0764953975
4	777	1713.359174977389	0.839939177455
4	789	1741.248555285235	0.725010630168
4	794	1747.439611562945	1.882793767676
4	795	1748.283174845674	1.648916233615
4	801	1753.137582124814	0.444181416802
4	807	1798.886060050618	5.964206630623
4	813	1817.251581493369	0.454101551386
4	832	1862.270025365707	39.694440536849
4	833	1863.243429263549	39.942742316574
4	834	1863.932870690401	30.013607801313
4	835	1864.19365463668	24.806025081711
4	836	1864.277200759649	23.579531504544
4	837	1864.901326625666	16.700064295399
4	840	1882.782222612284	2.048307216591
4	843	1883.80683115237	0.74365919158
4	852	1896.430195320286	2.834989950152
4	861	1923.703381532844	18.998136669499
4	864	1933.617625564611	1.317186479647
4	870	1945.656435667356	6.180940925307
4	875	1965.16060795325	1.735114430321
4	876	1965.660190274942	1.634079351819
4	879	1971.137416425287	1.366410222206
4	882	1977.72905648213	0.147053101849
4	885	2005.184491881631	0.532837154333
4	888	2014.441486704962	0.624993326179
4	891	2026.788639676215	0.722999014439
4	894	2034.980976247969	0.69769070123
4	897	2039.265570575182	1.874325079191
4	900	2047.858086521284	0.141947950093
4	903	2051.655817024332	1.958017497234
4	942	2147.616249955417	63.249439058608
4	943	2147.988043774465	52.963072109532
4	944	2148.902446993519	33.325514148062
4	945	2149.029583330105	16.191370589923
4	966	2190.975612619669	39.021344183646
4	967	2191.71158271282	15.907547875522
4	968	2195.042458536944	14.597613384198
4	969	2195.638388389937	5.353848952527
4	972	2201.70817649819	0.16519544851
4	977	2205.595395233821	2.275819250997
4	978	2206.114015809404	0.923018720511
4	981	2209.178373910159	0.67944615308
4	984	2210.847532850244	0.8132161038
4	999	2243.358421194472	24.451709291839
4	1000	2243.703605956295	20.331679379858
4	1001	2244.15793097178	19.600990668357
4	1002	2245.237472974645	2.893103235833
4	1005	2247.012821406823	1.527886141515
4	1010	2251.406739253816	0.874860976308
4	1011	2254.361771434758	3.810029425855
4	1014	2269.784723884223	3.14827807041
4	1017	2289.463687056417	0.139279322781
4	1020	2291.15886514825	1.080722150443
4	1045	2354.752775734958	38.035142783099
4	1046	2359.669233359558	29.552167773729
4	1047	2359.84803987343	25.572274410538
4	1050	2360.438171071515	24.673990688631
4	1051	2360.807697914011	19.551645549774
4	1052	2360.858880617801	11.797510290595
4	1055	2364.258983304374	4.105034439757
4	1056	2364.389952560379	2.308082286096
4	1061	2372.18919632566	0.659431355701
4	1062	2372.67985233621	0.950384855669
4	1075	2395.638766506956	13.094018275306
4	1076	2396.363987684457	10.733928055197
4	1077	2397.605915551099	4.902120820743
4	1080	2400.290144851234	0.51680009374
4	1086	2411.014123645063	1.162932404241
4	1091	2421.377842620054	1.855697169811
4	1092	2421.415512445141	0.747770599538
4	1101	2460.349567734442	20.469334629575
4	1110	2472.271409756613	2.190780466217
4	1118	2495.492785415471	0.578157890089
4	1119	2495.70176007665	0.447101372134
5	203	356.5813254123	0
5	206	362.521660136066	0
5	221	400.41477839754	0
5	228	429.942746501394	28.95368296613
5	257	478.265615825747	0
5	266	498.462216923946	0
5	272	506.274101154578	0
5	284	543.861325420206	0
5	290	560.04194327393	0
5	293	586.69130007823	0
5	302	604.735245203313	0
5	305	605.155777816588	0
5	308	611.966540144215	0
5	319	621.432590850196	7.099316578769
5	329	634.520473617099	0
5	335	641.589042052045	0
5	340	646.782536603397	0.641625529006
5	347	669.370048180619	0
5	355	676.089550307947	0
5	371	715.645460968857	0
5	392	735.110182554916	0
5	395	739.866418255326	0.327476613895
5	401	749.503152676415	0
5	404	770.914674302833	0
5	409	787.110693257764	0
5	425	811.167204134008	0
5	449	858.399036366918	0
5	455	867.088444874552	0
5	464	889.001490171987	7.192405998655
5	478	913.018282051986	0
5	488	968.873454385473	0
5	491	1002.51878157638	0
5	494	1029.242586038515	0
5	499	1038.367410989164	4.726318163583
5	502	1045.530772236547	5.739658034071
5	515	1099.489056947826	0
5	521	1110.541336198966	0
5	526	1138.070746804877	14.581210079636
5	545	1194.221935883371	0
5	557	1216.190203000085	0
5	566	1226.592096517297	6.185129225428
5	571	1244.714908052656	19.56025031008
5	572	1247.250179126965	6.611226213234
5	584	1273.59487077883	0
5	590	1286.95495848667	0
5	595	1298.278048474712	3.619070009163
5	602	1324.434619982293	0
5	605	1336.821987137071	5.426380118943
5	616	1355.60478524757	0
5	621	1365.287859031591	2.494694762757
5	626	1400.224333753695	0
5	653	1435.416693770565	0
5	662	1451.229788169275	0
5	671	1468.028288398775	0.715419550165
5	683	1476.276237015556	0
5	686	1480.532117879222	0
5	695	1512.620878371213	0
5	704	1537.674109379175	0
5	722	1595.678269176451	0
5	734	1616.104092815001	0
5	743	1632.557720265987	0
5	749	1647.794972004337	0
5	758	1680.412202636077	0
5	770	1697.409528314427	0
5	779	1724.988876512068	0
5	782	1726.665298530297	1.428237700237
5	785	1728.758263676249	0
5	797	1752.522744556116	0
5	805	1792.921853419995	0
5	809	1808.22155861746	0
5	815	1820.926754352695	0
5	820	1822.575584828858	0
5	845	1886.804862313205	0
5	848	1888.319860360389	1.240371099884
5	854	1900.930256248978	0
5	859	1921.071775788286	13.630987339887
5	866	1935.405271074888	0
5	905	2054.337250358517	0
5	908	2070.533405052142	0
5	911	2075.646756539144	0
5	922	2090.601010599737	13.68622841381
5	929	2105.713983836623	26.580227291082
5	930	2110.201246222558	28.651862281487
5	931	2113.533052326732	31.654966407357
5	938	2140.182743977589	45.033200371751
5	939	2143.69504867875	40.185818546904
5	940	2144.788464798934	28.590569276897
5	947	2149.223735525897	0
5	952	2158.656002020599	4.511393285371
5	955	2159.087763640725	0.042537407931
5	960	2178.120157508183	18.349527497883
5	986	2214.316810083452	0
5	995	2234.859237258271	11.484369035628
5	1022	2312.67934090531	0
5	1031	2333.331464192952	19.511375918978
5	1034	2334.533116538038	20.491471788488
5	1041	2342.911399056848	0.872285792818
5	1064	2372.772414252373	0
5	1073	2393.748119399343	12.910223264368
5	1082	2403.964648935548	0
5	1094	2433.433079546767	0
5	1099	2451.017035653936	3.085254559416
5	1103	2461.038193796627	0
5	1106	2467.308126790654	0
5	1112	2475.318419721545	0
5	1121	2497.177872175454	0
6	355	676.089550307947	4
6	409	787.110693257764	5
6	478	913.018282051986	6
6	616	1355.60478524757	7
6	805	1792.921853419995	8
6	820	1822.575584828858	9
7	1122	2500	0.1012
8	1122	2500	0.048

