version 2
run analysis_2kr_easy_game_mode-37-20230322-09:08:17-7062
attr configname analysis_2kr_easy_game_mode
attr datetime 20230322-09:08:17
attr experiment analysis_2kr_easy_game_mode
attr inifile omnetpp.ini
attr iterationvars "$0=20, $1=5, $2=15, $3=3.5, $4=100"
attr iterationvarsf 20,5,15,3.5,100-
attr measurement "$0=20, $1=5, $2=15, $3=3.5, $4=100"
attr network Network
attr processid 7062
attr repetition 2
attr replication #2
attr resultdir results
attr runnumber 37
attr seedset 2
param *.boss.arrival_mean 20
param *.boss.service_mean 5
param *.minion.arrival_mean 15
param *.minion.service_mean 3.5
param *.player.recover_rate_x 100
param **.minion.arrival_distribution 0
param **.minion.service_distribution 0
param **.boss.arrival_distribution 0
param **.boss.service_distribution 0

vector 0 Network.player minion_waiting_time_stat:vector ETV
attr source signal_minion_waiting_time
vector 1 Network.player minion_defeated_stat:vector ETV
attr source signal_minion_defeated
vector 2 Network.player minion_response_time_stat:vector ETV
attr source signal_minion_response_time
vector 3 Network.player boss_waiting_time_stat:vector ETV
attr source signal_boss_waiting_time
vector 4 Network.player boss_defeated_stat:vector ETV
attr source signal_boss_defeated
vector 5 Network.player boss_response_time_stat:vector ETV
attr source signal_boss_response_time
vector 6 Network.player minion_recovered_stat:vector ETV
attr source signal_minion_recovered
vector 7 Network.player minion_throughput:vector ETV
attr source signal_minion_throughput
vector 8 Network.player boss_throughput:vector ETV
attr source signal_boss_throughput
0	134	350.953061253699	0
0	140	369.533975898712	0.444731613481
0	143	390.552067630878	0
0	146	401.105271678867	2.823735632499
0	157	425.440017354627	22.559700232971
0	160	435.237685621455	18.264705927197
0	161	435.376002355372	9.868266160522
0	164	442.551145852204	0
0	167	457.052362703137	0
0	170	461.255869217164	3.880840975579
0	173	465.704314933775	0
0	179	474.231854323021	2.000762699909
0	182	477.348917331445	0
0	185	487.219211253535	0
0	200	541.880808372375	0
0	206	573.050354982374	0
0	211	583.592380047224	4.450129112539
0	214	586.37038002262	6.398438313135
0	217	589.189004472067	5.513181187353
0	220	593.431344350766	5.091728578239
0	228	613.056737460383	23.696015982624
0	229	614.766619745245	20.223211833245
0	230	618.242258223459	23.350819110561
0	233	650.153318904674	22.361556031701
0	236	655.547742821984	0
0	239	672.47701784307	0
0	242	675.389402027442	0.860378173889
0	245	679.659139803207	1.901672530731
0	248	684.837310803308	4.944913612858
0	251	688.408894992509	2.684483960321
0	256	690.602480768946	1.851782556209
0	261	700.854095470307	10.999621989445
0	264	710.731758166256	17.405377030956
0	267	714.33686099303	15.778990814637
0	268	715.983046212126	13.606244373093
0	271	719.261311431025	5.527550468613
0	276	721.348100538646	2.946144737997
0	277	726.020523519966	4.7997775716
0	278	731.701696565738	10.463840358301
0	281	743.976621771449	7.11436826092
0	289	768.775137295551	21.23552307037
0	290	780.235702001804	15.435797855057
0	299	798.771298790583	0
0	305	809.583014581335	0
0	308	815.940390217179	0
0	314	832.733544767195	0
0	332	895.480631843658	0
0	339	905.665191508917	8.237923908839
0	340	908.028627137065	10.164066048602
0	343	911.69841225412	7.767505317182
0	344	912.521079071129	2.08949927191
0	349	919.844118694967	6.236592939436
0	354	927.731718565796	12.487661740654
0	362	942.548047102779	22.270840177487
0	363	949.251425574101	26.813614890812
0	368	957.334504475239	22.66179629552
0	371	965.856501566641	30.747104296294
0	376	979.855595559356	23.077165093248
0	377	980.573907675345	23.525820658517
0	378	988.034058094386	29.823975806389
0	379	991.599006361576	18.633104751139
0	380	995.475409967348	18.887497924745
0	386	1014.870981726851	0
0	389	1019.841954418863	0
0	392	1025.620050478194	0
0	395	1032.853603315592	4.855879690779
0	407	1045.731095539934	9.236290092728
0	412	1062.712135281199	24.404965691111
0	413	1062.879525110284	24.571367091761
0	414	1063.039196193749	20.008370428879
0	415	1068.009080360663	14.715628176669
0	416	1069.3930797352	9.945269190044
0	419	1075.146747553762	2.921217147576
0	422	1083.668780943537	0
0	425	1085.159878994468	0.502927743898
0	428	1099.908515917179	0
0	431	1109.696595704063	0
0	434	1110.764044021988	0
0	440	1126.458781998632	0
0	450	1144.156988000831	16.004744679078
0	451	1144.718898092994	4.378460862394
0	452	1147.118981526605	4.5508387907
0	464	1166.381421845953	0
0	485	1214.757215699174	30.955363512553
0	486	1215.28573955305	30.995913023846
0	487	1217.28743555511	32.495202604585
0	490	1221.430930382467	27.521824740597
0	491	1228.582713061897	9.214639543897
0	494	1236.064589236318	6.751234618696
0	497	1252.735400317894	0
0	500	1256.586114321579	0
0	506	1262.411221580612	4.690843849028
0	509	1273.062607201889	2.785675940354
0	521	1323.69366635405	0
0	527	1336.350970977134	0
0	530	1349.505742838266	0
0	533	1354.047819126911	0
0	536	1355.243280488245	0.60011716766
0	539	1364.318565035869	6.683772782759
0	542	1366.50510605517	0
0	551	1373.536140864867	0
0	556	1376.746760474148	0.362976048858
0	559	1391.38376599936	14.720613894275
0	560	1395.029428695022	8.709093359799
0	563	1401.115226304299	0
0	566	1405.440096449075	0
0	569	1408.743471048028	3.235643976029
0	572	1409.389076821781	0.311833172651
0	575	1436.868202280752	0
0	578	1439.323115501346	0
0	584	1467.35640869313	0
0	587	1478.879135337971	0
0	599	1498.117219296358	0
0	602	1502.037156161435	2.333081131986
0	605	1508.455625839908	0
0	611	1528.160121462115	0
0	614	1540.087391815274	0
0	623	1582.201564502705	0
0	629	1596.979460869487	0
0	635	1645.504855608339	5.470866745538
0	638	1650.423274314593	0
0	641	1657.467054182859	0
0	644	1677.535476848652	0
0	647	1691.121312760968	0
0	650	1700.271422872681	0
0	669	1752.614815764411	36.073519209999
0	670	1756.80241088056	25.874832795615
0	673	1758.333091469577	16.687485611403
0	674	1763.986420566951	5.923022135979
0	677	1767.611855590334	0
0	680	1776.316956327264	0
0	693	1789.693938707666	13.243304163068
0	698	1795.775570958228	19.12248481101
0	701	1798.27130693887	20.563551009788
0	702	1798.352270548451	20.250664603384
0	703	1798.610861245841	17.59011832427
0	704	1799.712812433789	13.052141374564
0	709	1802.216708125911	11.226940192468
0	712	1809.599662806948	18.194179351389
0	713	1817.774943238188	19.763685060848
0	714	1817.836282692102	17.959657799768
0	715	1818.615681288071	18.642012275779
0	716	1820.220033647978	17.431421897842
0	721	1828.387960161817	5.577375108277
0	722	1834.096027057835	8.200661643092
0	728	1868.795083149726	0
0	737	1880.357964582049	0.246944393927
0	740	1882.413126016773	0.431405494318
0	743	1895.691854925668	0
0	752	1924.502264864985	8.274228427641
0	755	1932.280288910031	5.475412990441
0	758	1935.698925974276	0.32679748959
0	764	1992.911364395869	0
0	772	2021.5116573698	23.112484755812
0	773	2022.355592040579	3.356834284055
0	776	2026.771433206279	0
0	779	2037.03641691398	0
0	782	2062.9920724781	0
0	785	2064.867336679188	0
0	788	2078.136686887429	0
0	797	2101.029939351562	0
0	803	2119.418898659086	0
0	806	2121.300901282276	1.385385705178
0	809	2130.323763160283	7.779887897708
0	812	2132.286862142214	1.6532637881
0	815	2135.35575061416	3.027677319483
0	821	2159.315031961694	0.402164490919
0	824	2161.979050254107	1.209106907618
0	827	2163.478703973679	0.480780876514
0	836	2187.690270364113	5.561495791796
0	841	2195.145410511159	7.223322495893
0	842	2196.584177151073	8.072628504289
0	848	2218.100141419454	0
0	854	2258.768195333475	0.815279394672
0	857	2261.760214539259	0.396075523261
0	863	2270.922387506429	0
0	866	2276.241148423009	0
0	872	2285.71081615814	0
0	878	2296.570698754376	1.171537776653
0	889	2320.796320174901	12.758771170508
0	890	2322.53172785722	1.848986738847
0	896	2330.889300565029	0
0	919	2360.233715261817	25.196246468433
0	924	2365.499658877228	16.42717648777
0	925	2366.022533319239	5.661987651237
0	926	2368.864758172576	5.088935587074
0	932	2389.409358564869	0
0	935	2400.660923205781	0
0	955	2440.912762841068	28.998969132247
0	958	2449.261307610896	23.446346515411
0	964	2466.869974686522	24.13297235881
0	967	2467.835769047558	17.534172826337
0	968	2470.407300673689	2.58883567198
0	971	2472.443412053108	0
0	974	2477.670254138347	2.035062679861
0	977	2478.576142328212	0.505533331278
0	983	2491.720255473208	0
1	135	358.332207196476	23
1	141	371.173120136356	24
1	146	401.105271678867	25
1	161	435.376002355372	26
1	162	439.339895519831	27
1	165	454.587737926797	28
1	170	461.255869217164	29
1	171	465.487886053481	30
1	174	468.680746241516	31
1	180	474.741165189068	32
1	183	485.338900411677	33
1	186	487.730878311785	34
1	201	545.728391403655	35
1	211	583.592380047224	36
1	214	586.37038002262	37
1	217	589.189004472067	38
1	220	593.431344350766	39
1	229	614.766619745245	40
1	230	618.242258223459	41
1	234	650.712398576647	42
1	237	659.697359562839	43
1	242	675.389402027442	44
1	248	684.837310803308	45
1	251	688.408894992509	46
1	256	690.602480768946	47
1	264	710.731758166256	48
1	267	714.33686099303	49
1	268	715.983046212126	50
1	277	726.020523519966	51
1	278	731.701696565738	52
1	290	780.235702001804	53
1	291	780.621843390028	54
1	300	799.421918819719	55
1	306	809.872248997549	56
1	309	818.517200653117	57
1	315	832.978782698041	58
1	339	905.665191508917	59
1	340	908.028627137065	60
1	343	911.69841225412	61
1	344	912.521079071129	62
1	363	949.251425574101	63
1	377	980.573907675345	64
1	378	988.034058094386	65
1	379	991.599006361576	66
1	380	995.475409967348	67
1	381	1000.931202132586	68
1	387	1015.84588868503	69
1	390	1022.892831836703	70
1	395	1032.853603315592	71
1	413	1062.879525110284	72
1	414	1063.039196193749	73
1	415	1068.009080360663	74
1	416	1069.3930797352	75
1	420	1075.544725961604	76
1	425	1085.159878994468	77
1	426	1085.430895692867	78
1	429	1102.088152928251	79
1	432	1110.307124389174	80
1	435	1114.064503154629	81
1	451	1144.718898092994	82
1	452	1147.118981526605	83
1	453	1150.271856644424	84
1	465	1168.656554535898	85
1	486	1215.28573955305	86
1	487	1217.28743555511	87
1	491	1228.582713061897	88
1	494	1236.064589236318	89
1	495	1249.539467577949	90
1	498	1253.461529224811	91
1	510	1275.461192542761	92
1	522	1327.766644576581	93
1	528	1338.097001866251	94
1	531	1353.761065483653	95
1	536	1355.243280488245	96
1	539	1364.318565035869	97
1	540	1365.651708378954	98
1	543	1366.645995946446	99
1	559	1391.38376599936	100
1	560	1395.029428695022	101
1	561	1395.182717869165	102
1	564	1404.672137082993	103
1	572	1409.389076821781	104
1	573	1411.556748999744	105
1	576	1438.016643720357	106
1	579	1439.513931785332	107
1	585	1469.164287999887	108
1	588	1479.016806006323	109
1	602	1502.037156161435	110
1	603	1502.687334288627	111
1	606	1509.414350762095	112
1	612	1533.699019560964	113
1	615	1540.771146899397	114
1	624	1582.822676776456	115
1	630	1597.460271639218	116
1	636	1646.027606284179	117
1	639	1650.677593750716	118
1	642	1658.990536388442	119
1	645	1681.068476799278	120
1	648	1693.440465180467	121
1	651	1707.415401132201	122
1	670	1756.80241088056	123
1	673	1758.333091469577	124
1	674	1763.986420566951	125
1	675	1764.110325677271	126
1	678	1768.697911951838	127
1	702	1798.352270548451	128
1	703	1798.610861245841	129
1	704	1799.712812433789	130
1	713	1817.774943238188	131
1	714	1817.836282692102	132
1	715	1818.615681288071	133
1	716	1820.220033647978	134
1	721	1828.387960161817	135
1	722	1834.096027057835	136
1	723	1835.565239058458	137
1	729	1868.81109317196	138
1	740	1882.413126016773	139
1	741	1883.272335180803	140
1	744	1898.104871495393	141
1	758	1935.698925974276	142
1	759	1937.571519306486	143
1	765	1994.259923709498	144
1	773	2022.355592040579	145
1	774	2025.141580550795	146
1	777	2027.626002158268	147
1	780	2037.167545328045	148
1	783	2063.917351833558	149
1	786	2070.81571768349	150
1	789	2082.70752046523	151
1	798	2103.583893885869	152
1	806	2121.300901282276	153
1	812	2132.286862142214	154
1	815	2135.35575061416	155
1	816	2141.690875981091	156
1	827	2163.478703973679	157
1	828	2163.507328359523	158
1	842	2196.584177151073	159
1	843	2198.209096472242	160
1	849	2222.745138868613	161
1	857	2261.760214539259	162
1	858	2264.60367902493	163
1	864	2271.429685356625	164
1	867	2277.502688725668	165
1	873	2286.2664323967	166
1	890	2322.53172785722	167
1	891	2322.727367313637	168
1	897	2331.780712718716	169
1	925	2366.022533319239	170
1	926	2368.864758172576	171
1	927	2380.397222782862	172
1	933	2392.749536522606	173
1	936	2405.073231557185	174
1	967	2467.835769047558	175
1	968	2470.407300673689	176
1	969	2471.115361660863	177
1	978	2482.081959442735	178
1	984	2492.125413415547	179
2	135	358.332207196476	7.379145942777
2	141	371.173120136356	2.083875851125
2	146	401.105271678867	10.553204047989
2	161	435.376002355372	18.403022661114
2	162	439.339895519831	13.832159324981
2	165	454.587737926797	12.036592074593
2	170	461.255869217164	4.203506514027
2	171	465.487886053481	8.112857811896
2	174	468.680746241516	2.976431307741
2	180	474.741165189068	2.510073565956
2	183	485.338900411677	7.989983080232
2	186	487.730878311785	0.51166705825
2	201	545.728391403655	3.84758303128
2	211	583.592380047224	10.54202506485
2	214	586.37038002262	7.228129087935
2	217	589.189004472067	9.217062762582
2	220	593.431344350766	9.755521066052
2	229	614.766619745245	25.405898267486
2	230	618.242258223459	23.698850311459
2	234	650.712398576647	22.920635703674
2	237	659.697359562839	4.149616740855
2	242	675.389402027442	2.912384184372
2	248	684.837310803308	7.079843530832
2	251	688.408894992509	8.516497802059
2	256	690.602480768946	4.878069736758
2	264	710.731758166256	20.877284685394
2	267	714.33686099303	21.01047985773
2	268	715.983046212126	17.425176033733
2	277	726.020523519966	7.618567719317
2	278	731.701696565738	10.480950617372
2	290	780.235702001804	32.696087776623
2	291	780.621843390028	15.821939243281
2	300	799.421918819719	0.650620029136
2	306	809.872248997549	0.289234416214
2	309	818.517200653117	2.576810435938
2	315	832.978782698041	0.245237930846
2	339	905.665191508917	10.184559665259
2	340	908.028627137065	10.601359536987
2	343	911.69841225412	13.833851165657
2	344	912.521079071129	8.590172134191
2	363	949.251425574101	28.974218648809
2	377	980.573907675345	23.795477209237
2	378	988.034058094386	30.985971077558
2	379	991.599006361576	33.388924073579
2	380	995.475409967348	22.509508356911
2	381	1000.931202132586	24.343290089983
2	387	1015.84588868503	0.974906958179
2	390	1022.892831836703	3.05087741784
2	395	1032.853603315592	7.233552837398
2	413	1062.879525110284	24.572355520196
2	414	1063.039196193749	24.731038175226
2	415	1068.009080360663	24.978254595793
2	416	1069.3930797352	16.099627551206
2	420	1075.544725961604	3.319195555418
2	425	1085.159878994468	1.491098050931
2	426	1085.430895692867	0.773944442297
2	429	1102.088152928251	2.179637011072
2	432	1110.307124389174	0.610528685111
2	435	1114.064503154629	3.300459132641
2	451	1144.718898092994	16.566654771241
2	452	1147.118981526605	6.778544296005
2	453	1150.271856644424	7.703713908519
2	465	1168.656554535898	2.275132689945
2	486	1215.28573955305	31.483887366429
2	487	1217.28743555511	32.997609025906
2	491	1228.582713061897	34.673607420027
2	494	1236.064589236318	16.696515718318
2	495	1249.539467577949	20.226112960327
2	498	1253.461529224811	0.726128906917
2	510	1275.461192542761	5.184261281226
2	522	1327.766644576581	4.072978222531
2	528	1338.097001866251	1.746030889117
2	531	1353.761065483653	4.255322645387
2	536	1355.243280488245	1.195461361334
2	539	1364.318565035869	9.675401715284
2	540	1365.651708378954	8.016916125844
2	543	1366.645995946446	0.140889891276
2	559	1391.38376599936	14.99998157407
2	560	1395.029428695022	18.366276589937
2	561	1395.182717869165	8.862382533942
2	564	1404.672137082993	3.556910778694
2	572	1409.389076821781	3.881249749782
2	573	1411.556748999744	2.479505350614
2	576	1438.016643720357	1.148441439605
2	579	1439.513931785332	0.190816283986
2	585	1469.164287999887	1.807879306757
2	588	1479.016806006323	0.137670668352
2	602	1502.037156161435	3.919936865077
2	603	1502.687334288627	2.983259259178
2	606	1509.414350762095	0.958724922187
2	612	1533.699019560964	5.538898098849
2	615	1540.771146899397	0.683755084123
2	624	1582.822676776456	0.621112273751
2	630	1597.460271639218	0.480810769731
2	636	1646.027606284179	5.993617421378
2	639	1650.677593750716	0.254319436123
2	642	1658.990536388442	1.523482205583
2	645	1681.068476799278	3.532999950626
2	648	1693.440465180467	2.319152419499
2	651	1707.415401132201	7.14397825952
2	670	1756.80241088056	40.261114326148
2	673	1758.333091469577	27.405513384632
2	674	1763.986420566951	22.340814708777
2	675	1764.110325677271	6.046927246299
2	678	1768.697911951838	1.086056361504
2	702	1798.352270548451	20.644514619369
2	703	1798.610861245841	20.509255300774
2	704	1799.712812433789	18.692069512218
2	713	1817.774943238188	26.369459782629
2	714	1817.836282692102	19.825024514762
2	715	1818.615681288071	18.739056395737
2	716	1820.220033647978	20.246364635686
2	721	1828.387960161817	25.599348411681
2	722	1834.096027057835	11.285442004295
2	723	1835.565239058458	9.669873643715
2	729	1868.81109317196	0.016010022234
2	740	1882.413126016773	2.302105828651
2	741	1883.272335180803	1.290614658348
2	744	1898.104871495393	2.413016569725
2	758	1935.698925974276	8.894050054686
2	759	1937.571519306486	2.1993908218
2	765	1994.259923709498	1.348559313629
2	773	2022.355592040579	23.956419426591
2	774	2025.141580550795	6.142822794271
2	777	2027.626002158268	0.854568951989
2	780	2037.167545328045	0.131128414065
2	783	2063.917351833558	0.925279355458
2	786	2070.81571768349	5.948381004302
2	789	2082.70752046523	4.570833577801
2	798	2103.583893885869	2.553954534307
2	806	2121.300901282276	1.88200262319
2	812	2132.286862142214	9.742986879639
2	815	2135.35575061416	4.722152260046
2	816	2141.690875981091	9.362802686414
2	827	2163.478703973679	2.70876062719
2	828	2163.507328359523	0.509405262358
2	842	2196.584177151073	8.662089135807
2	843	2198.209096472242	9.697547825458
2	849	2222.745138868613	4.644997449159
2	857	2261.760214539259	3.807298600456
2	858	2264.60367902493	3.239540008932
2	864	2271.429685356625	0.507297850196
2	867	2277.502688725668	1.261540302659
2	873	2286.2664323967	0.55561623856
2	890	2322.53172785722	14.494178852827
2	891	2322.727367313637	2.044626195264
2	897	2331.780712718716	0.891412153687
2	925	2366.022533319239	16.950050929781
2	926	2368.864758172576	8.504212504574
2	927	2380.397222782862	16.62140019736
2	933	2392.749536522606	3.340177957737
2	936	2405.073231557185	4.412308351404
2	967	2467.835769047558	25.098766719846
2	968	2470.407300673689	20.105704452468
2	969	2471.115361660863	3.296896659154
2	978	2482.081959442735	4.011350445801
2	984	2492.125413415547	0.405157942339
3	137	368.958402505989	0
3	148	402.880317121656	0
3	151	406.528320463741	3.568881696064
3	156	417.74538299453	6.594325399739
3	159	425.50773619485	0
3	176	469.80224824894	0
3	188	503.294683776111	0
3	191	507.710655197798	0
3	194	526.672789580331	0
3	197	531.675691593846	4.38099941394
3	203	552.879779829314	0
3	224	594.891439112898	0
3	227	612.436074604198	10.641912439306
3	232	627.791762872973	0
3	244	677.757467272476	0
3	258	693.3263811353	0
3	270	718.401955800649	0
3	273	721.220745948366	0
3	280	736.862253510529	0
3	283	747.539614225181	0
3	286	760.248823915409	9.642221893504
3	293	780.773926758294	0
3	296	790.1209739769	0
3	302	807.657632949454	0
3	311	830.082990056291	0
3	317	834.116293496415	0
3	320	845.77824134047	0
3	323	880.761697232639	0
3	326	892.145415789384	0
3	329	894.373028441513	0
3	346	913.607525755531	0
3	351	920.277206925292	0
3	356	934.672708179719	0
3	361	939.248457522851	3.219522209649
3	367	957.048087016828	0
3	370	958.210082287997	0
3	375	976.587912042603	0
3	383	1005.590137975379	0
3	401	1038.308158018523	0
3	404	1040.876276377527	2.33095711452
3	409	1053.293452183994	0
3	418	1072.225530406186	0
3	437	1120.086426183102	0
3	442	1128.152243321753	0
3	445	1139.549666857467	3.706629237934
3	455	1152.246671720459	0
3	458	1154.142983468966	0
3	461	1162.317380905273	0
3	467	1169.470891429442	0
3	478	1184.360588772837	4.296915825825
3	481	1187.48715307818	5.003066541985
3	484	1209.077091955986	24.993615354263
3	489	1219.368073518	0
3	502	1257.720377731584	0
3	505	1261.039861772734	2.358852295132
3	508	1270.276931261535	0
3	512	1289.96228240382	0
3	515	1297.921150424468	5.357738715445
3	518	1308.426570154145	0
3	524	1334.742141683582	0
3	545	1368.959044590421	0
3	548	1371.947207617954	0
3	553	1376.38378442529	0
3	568	1405.507827071999	0
3	581	1444.385113574848	0
3	590	1480.059721281932	0
3	593	1488.726294780898	0
3	596	1496.141136259839	0
3	608	1524.242338504501	0
3	617	1542.447631622299	0
3	620	1555.322872983043	5.856790852687
3	626	1590.641998253917	0
3	632	1633.714350027253	0
3	653	1715.229752380084	0
3	662	1737.452153849477	14.346384319158
3	667	1745.318199304125	9.612614462673
3	668	1748.489203071491	9.176766382537
3	690	1781.020742921571	0
3	695	1790.989767933443	0
3	700	1798.01125817734	0
3	708	1799.973669012292	0
3	711	1802.788611750136	0
3	725	1837.207809601665	0
3	731	1874.214819834976	0
3	734	1877.492323099577	0
3	746	1899.01190856079	0
3	751	1917.903001640387	9.197210612095
3	754	1926.80487591959	0
3	761	1984.546275450773	0
3	767	1996.012842413922	0
3	791	2083.855153346219	0
3	794	2092.664060113132	0
3	800	2104.851380459965	0
3	808	2122.543875262575	0
3	818	2157.532000019822	0
3	823	2160.769943346489	0
3	830	2166.560262012353	0
3	833	2172.599568340569	2.282846767416
3	840	2188.511548646784	0
3	845	2198.633767710102	0
3	851	2245.259994245578	0
3	860	2265.579539773758	0
3	869	2280.874893329279	0
3	875	2290.195761337989	0
3	880	2308.037549004393	0
3	885	2310.256795703552	2.171053418047
3	886	2312.582205205165	3.694980678317
3	893	2324.804840986635	0
3	899	2333.642706438426	0
3	908	2340.872739356514	4.514283434217
3	909	2341.152563532021	3.134884744087
3	910	2346.439167812501	6.758363183543
3	915	2351.699442217944	4.728529422464
3	918	2360.028599382504	7.699088558636
3	921	2360.360545668002	0
3	929	2381.934676952752	0
3	938	2411.664070294826	0
3	949	2427.448749038373	10.944439942548
3	950	2430.505771040916	13.18587181435
3	951	2432.537156391666	10.678075318634
3	954	2434.210885665079	1.127236558279
3	957	2442.737002327712	0
3	960	2450.301596221221	0
3	963	2465.263616171359	9.867457177298
3	973	2475.635191458486	0
3	976	2478.070608996934	0
3	980	2486.574186514758	0
4	140	369.533975898712	23
4	151	406.528320463741	24
4	156	417.74538299453	25
4	157	425.440017354627	26
4	160	435.237685621455	27
4	179	474.231854323021	28
4	189	504.196820236916	29
4	192	514.385548595888	30
4	197	531.675691593846	31
4	198	537.257184083606	32
4	204	552.983261378745	33
4	227	612.436074604198	34
4	228	613.056737460383	35
4	233	650.153318904674	36
4	245	679.659139803207	37
4	261	700.854095470307	38
4	271	719.261311431025	39
4	276	721.348100538646	40
4	281	743.976621771449	41
4	286	760.248823915409	42
4	289	768.775137295551	43
4	294	783.419827644121	44
4	297	792.233708570942	45
4	303	808.709403294244	46
4	312	832.002477907819	47
4	318	835.25713287594	48
4	321	846.370251883539	49
4	324	890.737355003141	50
4	327	892.583854627576	51
4	330	895.215979054357	52
4	349	919.844118694967	53
4	354	927.731718565796	54
4	361	939.248457522851	55
4	362	942.548047102779	56
4	368	957.334504475239	57
4	371	965.856501566641	58
4	376	979.855595559356	59
4	384	1005.819859390863	60
4	404	1040.876276377527	61
4	407	1045.731095539934	62
4	412	1062.712135281199	63
4	419	1075.146747553762	64
4	438	1126.412993781108	65
4	445	1139.549666857467	66
4	450	1144.156988000831	67
4	456	1152.604650160926	68
4	459	1158.162079288112	69
4	462	1165.847787044118	70
4	478	1184.360588772837	71
4	481	1187.48715307818	72
4	484	1209.077091955986	73
4	485	1214.757215699174	74
4	490	1221.430930382467	75
4	505	1261.039861772734	76
4	506	1262.411221580612	77
4	509	1273.062607201889	78
4	515	1297.921150424468	79
4	516	1300.46054261871	80
4	519	1308.755594419816	81
4	525	1334.961919591121	82
4	546	1371.2266705003	83
4	549	1373.039155437399	84
4	556	1376.746760474148	85
4	569	1408.743471048028	86
4	582	1446.308778953281	87
4	591	1480.247933276875	88
4	594	1489.091205653539	89
4	597	1496.171225030095	90
4	609	1525.95664718266	91
4	620	1555.322872983043	92
4	621	1563.128519968005	93
4	627	1596.30073637253	94
4	635	1645.504855608339	95
4	662	1737.452153849477	96
4	667	1745.318199304125	97
4	668	1748.489203071491	98
4	669	1752.614815764411	99
4	693	1789.693938707666	100
4	698	1795.775570958228	101
4	701	1798.27130693887	102
4	709	1802.216708125911	103
4	712	1809.599662806948	104
4	726	1838.132337860243	105
4	732	1875.742265554427	106
4	737	1880.357964582049	107
4	751	1917.903001640387	108
4	752	1924.502264864985	109
4	755	1932.280288910031	110
4	762	1984.871035794071	111
4	772	2021.5116573698	112
4	792	2083.959907990121	113
4	795	2094.593128504016	114
4	801	2112.211688928122	115
4	809	2130.323763160283	116
4	821	2159.315031961694	117
4	824	2161.979050254107	118
4	833	2172.599568340569	119
4	836	2187.690270364113	120
4	841	2195.145410511159	121
4	846	2200.671656936302	122
4	854	2258.768195333475	123
4	861	2269.063033230473	124
4	870	2283.431759101484	125
4	878	2296.570698754376	126
4	885	2310.256795703552	127
4	886	2312.582205205165	128
4	889	2320.796320174901	129
4	894	2325.668101782374	130
4	908	2340.872739356514	131
4	909	2341.152563532021	132
4	910	2346.439167812501	133
4	915	2351.699442217944	134
4	918	2360.028599382504	135
4	919	2360.233715261817	136
4	924	2365.499658877228	137
4	930	2383.228953935216	138
4	949	2427.448749038373	139
4	950	2430.505771040916	140
4	951	2432.537156391666	141
4	954	2434.210885665079	142
4	955	2440.912762841068	143
4	958	2449.261307610896	144
4	963	2465.263616171359	145
4	964	2466.869974686522	146
4	974	2477.670254138347	147
4	977	2478.576142328212	148
4	981	2491.303196073535	149
5	140	369.533975898712	0.575573392723
5	151	406.528320463741	3.648003342085
5	156	417.74538299453	14.785944226853
5	157	425.440017354627	14.288959759836
5	160	435.237685621455	9.729949426605
5	179	474.231854323021	4.429606074081
5	189	504.196820236916	0.902136460805
5	192	514.385548595888	6.67489339809
5	197	531.675691593846	5.002902013515
5	198	537.257184083606	9.9624919037
5	204	552.983261378745	0.103481549431
5	227	612.436074604198	17.5446354913
5	228	613.056737460383	11.262575295491
5	233	650.153318904674	22.361556031701
5	245	679.659139803207	1.901672530731
5	261	700.854095470307	7.527714335007
5	271	719.261311431025	0.859355630376
5	276	721.348100538646	0.12735459028
5	281	743.976621771449	7.11436826092
5	286	760.248823915409	12.709209690228
5	289	768.775137295551	18.168535273646
5	294	783.419827644121	2.645900885827
5	297	792.233708570942	2.112734594042
5	303	808.709403294244	1.05177034479
5	312	832.002477907819	1.919487851528
5	318	835.25713287594	1.140839379525
5	321	846.370251883539	0.592010543069
5	324	890.737355003141	9.975657770502
5	327	892.583854627576	0.438438838192
5	330	895.215979054357	0.842950612844
5	349	919.844118694967	6.236592939436
5	354	927.731718565796	7.454511640504
5	361	939.248457522851	4.575749343132
5	362	942.548047102779	6.519111789577
5	368	957.334504475239	0.286417458411
5	371	965.856501566641	7.646419278644
5	376	979.855595559356	3.267683516753
5	384	1005.819859390863	0.229721415484
5	404	1040.876276377527	2.568118359004
5	407	1045.731095539934	7.185776276927
5	412	1062.712135281199	9.418683097205
5	419	1075.146747553762	2.921217147576
5	438	1126.412993781108	6.326567598006
5	445	1139.549666857467	11.397423535714
5	450	1144.156988000831	8.313950381298
5	456	1152.604650160926	0.357978440467
5	459	1158.162079288112	4.019095819146
5	462	1165.847787044118	3.530406138845
5	478	1184.360588772837	14.889697343395
5	481	1187.48715307818	7.423480131168
5	484	1209.077091955986	26.593005419791
5	485	1214.757215699174	30.673739097451
5	490	1221.430930382467	2.062856864467
5	505	1261.039861772734	3.31948404115
5	506	1262.411221580612	3.73021210301
5	509	1273.062607201889	2.785675940354
5	515	1297.921150424468	7.958868020648
5	516	1300.46054261871	7.897130909687
5	519	1308.755594419816	0.329024265671
5	525	1334.961919591121	0.219777907539
5	546	1371.2266705003	2.267625909879
5	549	1373.039155437399	1.091947819445
5	556	1376.746760474148	0.362976048858
5	569	1408.743471048028	3.235643976029
5	582	1446.308778953281	1.923665378433
5	591	1480.247933276875	0.188211994943
5	594	1489.091205653539	0.364910872641
5	597	1496.171225030095	0.030088770256
5	609	1525.95664718266	1.714308678159
5	620	1555.322872983043	12.875241360744
5	621	1563.128519968005	13.662437837649
5	627	1596.30073637253	5.658738118613
5	635	1645.504855608339	11.790505581086
5	662	1737.452153849477	22.222401469393
5	667	1745.318199304125	22.212429773806
5	668	1748.489203071491	12.783618230039
5	669	1752.614815764411	13.302379075457
5	693	1789.693938707666	8.673195786095
5	698	1795.775570958228	4.785803024785
5	701	1798.27130693887	0.26004876153
5	709	1802.216708125911	2.243039113619
5	712	1809.599662806948	6.811051056812
5	726	1838.132337860243	0.924528258578
5	732	1875.742265554427	1.527445719451
5	737	1880.357964582049	2.865641482472
5	751	1917.903001640387	18.891093079597
5	752	1924.502264864985	15.796473836693
5	755	1932.280288910031	5.475412990441
5	762	1984.871035794071	0.324760343298
5	772	2021.5116573698	25.498814955878
5	792	2083.959907990121	0.104754643902
5	795	2094.593128504016	1.929068390884
5	801	2112.211688928122	7.360308468157
5	809	2130.323763160283	7.779887897708
5	821	2159.315031961694	1.783031941872
5	824	2161.979050254107	1.209106907618
5	833	2172.599568340569	6.039306328216
5	836	2187.690270364113	17.37354879096
5	841	2195.145410511159	6.633861864375
5	846	2200.671656936302	2.0378892262
5	854	2258.768195333475	13.508201087897
5	861	2269.063033230473	3.483493456715
5	870	2283.431759101484	2.556865772205
5	878	2296.570698754376	6.374937416387
5	885	2310.256795703552	2.219246699159
5	886	2312.582205205165	4.49646291966
5	889	2320.796320174901	11.909095648053
5	894	2325.668101782374	0.863260795739
5	908	2340.872739356514	7.230032918088
5	909	2341.152563532021	4.794107609724
5	910	2346.439167812501	8.421489024567
5	915	2351.699442217944	12.018637588986
5	918	2360.028599382504	13.057686587024
5	919	2360.233715261817	7.904204437949
5	924	2365.499658877228	5.139113209226
5	930	2383.228953935216	1.294276982464
5	949	2427.448749038373	15.784678743547
5	950	2430.505771040916	14.001461945091
5	951	2432.537156391666	15.2172571651
5	954	2434.210885665079	12.351804592047
5	955	2440.912762841068	7.829113734268
5	958	2449.261307610896	6.524305283184
5	963	2465.263616171359	14.962019950138
5	964	2466.869974686522	11.473815692461
5	974	2477.670254138347	2.035062679861
5	977	2478.576142328212	0.505533331278
5	981	2491.303196073535	4.729009558777
6	148	402.880317121656	1
6	159	425.50773619485	2
6	224	594.891439112898	3
6	232	627.791762872973	4
6	244	677.757467272476	5
6	258	693.3263811353	6
6	270	718.401955800649	7
6	273	721.220745948366	8
6	280	736.862253510529	9
6	283	747.539614225181	10
6	346	913.607525755531	11
6	351	920.277206925292	12
6	356	934.672708179719	13
6	367	957.048087016828	14
6	370	958.210082287997	15
6	375	976.587912042603	16
6	401	1038.308158018523	17
6	409	1053.293452183994	18
6	418	1072.225530406186	19
6	442	1128.152243321753	20
6	489	1219.368073518	21
6	502	1257.720377731584	22
6	508	1270.276931261535	23
6	553	1376.38378442529	24
6	568	1405.507827071999	25
6	690	1781.020742921571	26
6	695	1790.989767933443	27
6	700	1798.01125817734	28
6	708	1799.973669012292	29
6	711	1802.788611750136	30
6	754	1926.80487591959	31
6	808	2122.543875262575	32
6	823	2160.769943346489	33
6	840	2188.511548646784	34
6	880	2308.037549004393	35
6	921	2360.360545668002	36
6	957	2442.737002327712	37
6	960	2450.301596221221	38
6	973	2475.635191458486	39
6	976	2478.070608996934	40
7	985	2500	0.0716
8	985	2500	0.0596

