version 2
run analysis_2kr_easy_game_mode-43-20230322-09:08:18-7092
attr configname analysis_2kr_easy_game_mode
attr datetime 20230322-09:08:18
attr experiment analysis_2kr_easy_game_mode
attr inifile omnetpp.ini
attr iterationvars "$0=20, $1=7.5, $2=10, $3=1, $4=0"
attr iterationvarsf 20,7.5,10,1,0-
attr measurement "$0=20, $1=7.5, $2=10, $3=1, $4=0"
attr network Network
attr processid 7092
attr repetition 3
attr replication #3
attr resultdir results
attr runnumber 43
attr seedset 3
param *.boss.arrival_mean 20
param *.boss.service_mean 7.5
param *.minion.arrival_mean 10
param *.minion.service_mean 1
param *.player.recover_rate_x 0
param **.minion.arrival_distribution 0
param **.minion.service_distribution 0
param **.boss.arrival_distribution 0
param **.boss.service_distribution 0

vector 0 Network.player boss_defeated_stat:vector ETV
attr source signal_boss_defeated
vector 1 Network.player boss_response_time_stat:vector ETV
attr source signal_boss_response_time
vector 2 Network.player minion_waiting_time_stat:vector ETV
attr source signal_minion_waiting_time
vector 3 Network.player minion_defeated_stat:vector ETV
attr source signal_minion_defeated
vector 4 Network.player minion_response_time_stat:vector ETV
attr source signal_minion_response_time
vector 5 Network.player minion_recovered_stat:vector ETV
attr source signal_minion_recovered
vector 6 Network.player boss_waiting_time_stat:vector ETV
attr source signal_boss_waiting_time
vector 7 Network.player minion_throughput:vector ETV
attr source signal_minion_throughput
vector 8 Network.player boss_throughput:vector ETV
attr source signal_boss_throughput
0	161	363.254987715575	20
0	174	399.383469526582	21
0	175	399.631233796218	22
0	180	406.65087757395	23
0	183	415.266279598186	24
0	192	435.007524056463	25
0	217	499.344435302024	26
0	226	514.402868588537	27
0	241	545.628074283693	28
0	246	557.969151779063	29
0	247	562.085583493709	30
0	248	563.858729873139	31
0	253	577.306416118831	32
0	273	591.044838880931	33
0	284	607.323898903726	34
0	287	607.879370107111	35
0	315	713.665623326259	36
0	318	730.71200661416	37
0	324	736.478958123297	38
0	332	766.03051384272	39
0	363	842.250693623844	40
0	381	928.729267186556	41
0	390	941.734552888306	42
0	391	945.233070735037	43
0	392	947.482793521464	44
0	393	958.202129335754	45
0	394	958.888071738212	46
0	395	963.698987212597	47
0	417	1015.63532180318	48
0	418	1020.981089653825	49
0	430	1030.944026552343	50
0	440	1056.261431386999	51
0	441	1058.202380599133	52
0	446	1061.560472519104	53
0	452	1068.064540589622	54
0	471	1089.286802798909	55
0	474	1093.941263016167	56
0	479	1095.916963160998	57
0	488	1123.591436867485	58
0	494	1133.693290640057	59
0	503	1143.466628693639	60
0	528	1177.999526186019	61
0	571	1259.842255660323	62
0	572	1265.629548627282	63
0	573	1272.37636383329	64
0	588	1294.558549483677	65
0	591	1307.464925626509	66
0	592	1310.862979338463	67
0	611	1351.822184936037	68
0	620	1370.837097361679	69
0	644	1413.177613509435	70
0	653	1441.367844593434	71
0	662	1454.512158899574	72
0	663	1458.597377618369	73
0	671	1478.593937556922	74
0	698	1568.64585006507	75
0	712	1591.15574540171	76
0	717	1603.943432676157	77
0	743	1683.284826509651	78
0	747	1690.328808935305	79
0	758	1721.59775864891	80
0	759	1722.220399229089	81
0	764	1730.401137641636	82
0	780	1746.086746846555	83
0	798	1789.354130395522	84
0	799	1789.965898035502	85
0	813	1803.966237423476	86
0	816	1812.888749752562	87
0	817	1814.232181312093	88
0	818	1814.454125296319	89
0	848	1922.878949773012	90
0	890	2057.700088387878	91
0	910	2085.108148208315	92
0	911	2086.175357796337	93
0	920	2120.127248493538	94
0	923	2121.310498431474	95
0	930	2144.958857419084	96
0	950	2176.956192546498	97
0	953	2178.432200277219	98
0	986	2239.191366621546	99
0	999	2261.385993885688	100
0	1016	2292.389890694351	101
0	1019	2295.506270314953	102
0	1024	2298.507232411827	103
0	1025	2300.320062448896	104
0	1026	2301.950868982297	105
0	1037	2312.859385409245	106
0	1042	2321.500580231248	107
0	1043	2326.173702114535	108
0	1092	2424.264752151959	109
0	1116	2465.537242616343	110
0	1123	2476.59367499742	111
0	1126	2479.691281170728	112
0	1127	2491.460684143227	113
1	161	363.254987715575	15.443142706978
1	174	399.383469526582	18.723995782933
1	175	399.631233796218	3.659539378753
1	180	406.65087757395	2.30043528916
1	183	415.266279598186	5.228923423389
1	192	435.007524056463	9.487844958291
1	217	499.344435302024	6.003534926959
1	226	514.402868588537	20.944146051526
1	241	545.628074283693	48.885479674111
1	246	557.969151779063	38.861326978794
1	247	562.085583493709	38.035188151695
1	248	563.858729873139	35.093273532979
1	253	577.306416118831	41.563803278132
1	273	591.044838880931	1.372600718964
1	284	607.323898903726	9.179190277348
1	287	607.879370107111	0.358742505814
1	315	713.665623326259	11.175613270599
1	318	730.71200661416	0.301653151009
1	324	736.478958123297	0.929821064915
1	332	766.03051384272	1.675740830986
1	363	842.250693623844	3.390216183614
1	381	928.729267186556	48.987385074998
1	390	941.734552888306	59.621235328321
1	391	945.233070735037	60.786578246094
1	392	947.482793521464	59.237190450524
1	393	958.202129335754	62.820399225952
1	394	958.888071738212	31.370093432017
1	395	963.698987212597	23.297458111163
1	417	1015.63532180318	24.726306816327
1	418	1020.981089653825	7.720042377209
1	430	1030.944026552343	2.398139447492
1	440	1056.261431386999	21.758406073085
1	441	1058.202380599133	21.667608595739
1	446	1061.560472519104	0.869342008333
1	452	1068.064540589622	4.870708104652
1	471	1089.286802798909	4.692470086348
1	474	1093.941263016167	3.187095697128
1	479	1095.916963160998	1.144747289849
1	488	1123.591436867485	3.469256041489
1	494	1133.693290640057	5.797091693854
1	503	1143.466628693639	11.834143938182
1	528	1177.999526186019	2.664341055011
1	571	1259.842255660323	3.236820932963
1	572	1265.629548627282	7.28354095331
1	573	1272.37636383329	13.486951261299
1	588	1294.558549483677	8.216248022274
1	591	1307.464925626509	20.889983807219
1	592	1310.862979338463	23.000465816931
1	611	1351.822184936037	14.598464860423
1	620	1370.837097361679	7.316696042705
1	644	1413.177613509435	6.664730764948
1	653	1441.367844593434	7.719368667392
1	662	1454.512158899574	19.164832779053
1	663	1458.597377618369	12.767922540422
1	671	1478.593937556922	8.900276028414
1	698	1568.64585006507	3.871832506764
1	712	1591.15574540171	2.959316195327
1	717	1603.943432676157	3.71239218665
1	743	1683.284826509651	1.076402382593
1	747	1690.328808935305	3.908962995387
1	758	1721.59775864891	13.918048542227
1	759	1722.220399229089	5.874922759064
1	764	1730.401137641636	9.845325784066
1	780	1746.086746846555	0.438825058915
1	798	1789.354130395522	9.904931224919
1	799	1789.965898035502	1.670941439451
1	813	1803.966237423476	6.667051110466
1	816	1812.888749752562	14.529593539286
1	817	1814.232181312093	15.059409530102
1	818	1814.454125296319	7.687774562417
1	848	1922.878949773012	4.955522637185
1	890	2057.700088387878	5.190993996959
1	910	2085.108148208315	9.799473620843
1	911	2086.175357796337	4.075808367021
1	920	2120.127248493538	11.441386177889
1	923	2121.310498431474	0.234288897798
1	930	2144.958857419084	2.235173923638
1	950	2176.956192546498	7.651755070581
1	953	2178.432200277219	1.203975152342
1	986	2239.191366621546	4.429404439776
1	999	2261.385993885688	0.402810257141
1	1016	2292.389890694351	27.549505761261
1	1019	2295.506270314953	26.604822208743
1	1024	2298.507232411827	24.829942804178
1	1025	2300.320062448896	14.600629742541
1	1026	2301.950868982297	13.389157000725
1	1037	2312.859385409245	19.300535157154
1	1042	2321.500580231248	23.260642968326
1	1043	2326.173702114535	14.079301928118
1	1092	2424.264752151959	3.243561696541
1	1116	2465.537242616343	19.507162743274
1	1123	2476.59367499742	24.899198736419
1	1126	2479.691281170728	24.012863509282
1	1127	2491.460684143227	33.450395645166
2	161	363.254987715575	1.915324220973
2	164	367.9828784262	0
2	167	379.513301138535	0
2	175	399.631233796218	18.971760052569
2	176	403.482777977793	9.353513717811
2	192	435.007524056463	9.241782704555
2	193	435.960619083144	8.442807432549
2	194	436.404306106653	2.797498038934
2	197	448.069818965425	0
2	200	456.351270045832	0
2	203	457.634533668475	1.072969885884
2	206	472.719413120029	0
2	209	475.518042803675	1.34594191719
2	253	577.306416118831	74.456064868712
2	254	578.079446960023	73.993024577086
2	257	580.577711028183	73.963514312109
2	260	581.212849452359	70.889500170878
2	261	581.245273130639	58.783720040601
2	262	582.224590281008	48.632294144594
2	263	582.291889449218	41.769219685766
2	264	583.462357006428	36.567674112365
2	265	584.456147226844	35.296714346549
2	266	584.796901061356	18.700122099903
2	267	586.866894973594	10.84475237268
2	268	586.92117859104	7.479951091197
2	269	586.929932524618	5.930365551389
2	275	594.209352549086	0
2	278	595.582048724855	0.82864615519
2	284	607.323898903726	0.44297217629
2	287	607.879370107111	0.358742505814
2	290	609.358439103746	0.681842523688
2	293	612.645161330649	0
2	296	632.76123856948	0
2	299	636.83562207702	0
2	302	637.904060231739	0.686966909963
2	305	675.410655830787	0
2	308	677.865079647084	0
2	311	687.662234629069	0
2	320	730.758287029875	0
2	326	760.778512054772	0
2	329	763.892445699943	1.216335880992
2	332	766.03051384272	1.675740830986
2	335	777.263713199375	0
2	338	778.560288534075	0
2	341	795.990510267887	0
2	344	803.875283134171	0
2	347	809.094828093027	0
2	350	814.571875706268	0
2	353	820.574063313727	0
2	356	829.945582910592	0
2	359	835.06437174103	0
2	365	850.643575561551	0
2	395	963.698987212597	59.792040600964
2	396	964.887892282817	34.843399277493
2	397	965.778659419607	33.779318110914
2	400	968.286446763777	33.159488931431
2	401	969.44664979168	1.459673234405
2	404	971.614401115977	0
2	407	977.048754828475	0
2	410	990.426205312561	0
2	418	1020.981089653825	30.072074666972
2	419	1021.476207784579	25.532615736403
2	422	1022.382591948731	0
2	430	1030.944026552343	2.341090029464
2	431	1031.420987589025	2.61018193901
2	434	1033.490433093267	0
2	446	1061.560472519104	0.557570841167
2	452	1068.064540589622	0.797251953844
2	455	1075.724465931961	0
2	458	1076.082481560829	0
2	461	1077.735018370196	0
2	464	1078.615384691453	0
2	467	1081.67931445012	0
2	479	1095.916963160998	1.050517837104
2	482	1111.881230236583	0
2	488	1123.591436867485	1.598696820096
2	503	1143.466628693639	8.532670395604
2	504	1144.153597850477	8.936593394491
2	505	1144.257574013611	8.89452204087
2	508	1145.510632439524	6.578401310119
2	509	1145.792410786738	1.004695633374
2	512	1147.283264483279	0
2	515	1155.69337419801	0
2	518	1160.625734388509	4.366445128333
2	521	1163.229350036347	0.024643153998
2	524	1170.612254816977	0
2	530	1186.949025027116	0
2	533	1192.435991818025	0.102092121433
2	536	1197.613977193519	0
2	539	1198.376732982338	0.268555284611
2	542	1199.218113971333	0.611850543724
2	545	1207.102040070224	0
2	548	1215.572599614181	0
2	551	1231.844375578986	0
2	554	1234.910810938707	0
2	557	1236.116699961997	0
2	560	1247.942971155498	0
2	563	1251.188053035955	0
2	575	1275.249598754447	0
2	578	1285.512833833394	0
2	592	1310.862979338463	16.831221193481
2	593	1310.865894240918	10.04687333125
2	596	1311.077751789237	0.138141763077
2	599	1318.003070602428	0
2	602	1326.696373353387	0
2	605	1332.884941883537	0
2	608	1336.650535836356	0
2	611	1351.822184936037	14.598464860423
2	614	1359.16404557901	0
2	620	1370.837097361679	4.200448575836
2	623	1375.945051716496	0
2	626	1386.322276825134	0
2	629	1395.569428066275	0
2	632	1398.224964158521	0
2	635	1404.092529556116	0
2	638	1404.723363852476	0
2	644	1413.177613509435	1.914085226959
2	647	1420.224574092024	0
2	663	1458.597377618369	16.440201943497
2	664	1459.051375565896	8.864858108274
2	665	1459.251161585654	6.726383992856
2	671	1478.593937556922	7.229385715545
2	674	1500.292962552547	0
2	677	1514.628496105396	0
2	680	1515.391585098206	0
2	683	1520.075491215183	0
2	686	1529.117938344292	0
2	689	1536.955543686046	0
2	692	1537.272009496688	0
2	698	1568.64585006507	0.475363453928
2	701	1579.114421679445	0
2	704	1580.500100178335	0
2	712	1591.15574540171	0.511495346252
2	713	1594.348338102366	3.522693159123
2	719	1610.664425130129	0
2	722	1618.936633049524	0
2	725	1647.347486492507	0
2	728	1651.645264029249	0
2	731	1657.544440275635	0
2	734	1667.875743443595	0
2	737	1678.961085905515	0
2	743	1683.284826509651	1.01386137866
2	764	1730.401137641636	22.3163450571
2	765	1730.594394600498	16.97129024816
2	770	1734.624301676792	11.3405174126
2	771	1735.198986966104	7.143704334395
2	772	1735.945254635712	3.995249234695
2	773	1736.361165313831	3.025521986513
2	776	1738.530000802298	1.34543098293
2	782	1746.430995735594	0
2	785	1749.876436639148	0
2	788	1750.623721910651	0
2	799	1789.965898035502	7.77907498323
2	800	1791.82738406156	5.148436064489
2	803	1792.400529573145	0.513523203468
2	818	1814.454125296319	16.503146357368
2	821	1827.242154249278	0
2	824	1850.542439783431	0
2	827	1870.004880988581	0
2	830	1873.144783037164	0
2	833	1884.822081319794	0
2	838	1888.217158669729	2.438563423477
2	839	1888.692767660822	2.881238604243
2	842	1897.708087929202	0
2	848	1922.878949773012	2.134656008889
2	851	1932.417776871576	0
2	854	1957.658186564513	0
2	857	1958.145638604626	0
2	860	1959.566257898797	1.361350419167
2	863	1962.041132941032	0
2	866	1972.339259434377	0
2	869	1996.972662773382	0
2	872	2001.837521535633	0
2	875	2022.651661072584	0
2	878	2031.708678368501	0
2	881	2039.16582307412	0
2	884	2048.602623725115	0
2	887	2051.296746386859	0
2	890	2057.700088387878	5.190993996959
2	893	2060.450138024586	0
2	896	2061.864559880863	0
2	899	2065.608353002928	0
2	902	2073.528318068424	0
2	905	2075.066752640957	0.814085932775
2	911	2086.175357796337	10.866683208865
2	914	2094.944618720664	0
2	920	2120.127248493538	9.051471545471
2	923	2121.310498431474	0.234288897798
2	926	2121.529198531182	0.005702120083
2	932	2145.763574788525	0
2	935	2151.397617746221	0
2	938	2153.562706682703	0
2	941	2158.8277209331	0
2	944	2161.192638793574	0
2	950	2176.956192546498	0.332733521117
2	953	2178.432200277219	1.203975152342
2	956	2181.362624258206	0
2	959	2184.414138255062	0
2	962	2189.569960956599	0
2	965	2192.862153177103	0
2	968	2214.505848794852	0
2	971	2214.739026256483	0
2	974	2216.997427399395	0
2	977	2228.158970210153	0
2	980	2233.589270654671	0
2	986	2239.191366621546	4.056810622408
2	989	2245.5746372874	0
2	992	2246.434071313046	0
2	995	2253.60115613332	0
2	1001	2264.722149296945	0
2	1043	2326.173702114535	61.333317181445
2	1044	2327.026490800322	58.24220036536
2	1045	2328.131688851853	45.939428290258
2	1046	2328.19140779902	30.92701975236
2	1047	2329.61818704947	23.166875045427
2	1048	2330.24323597355	22.336634449655
2	1049	2330.499438003794	22.047862844201
2	1050	2330.695594138461	20.115665668131
2	1051	2331.641956500026	17.703577814167
2	1054	2333.056679905528	13.966799215399
2	1055	2335.490012590616	2.614791445917
2	1058	2348.332552859931	0
2	1061	2353.692697809273	0
2	1066	2358.149101707169	1.528677860979
2	1067	2358.617418909175	0.52639447137
2	1070	2359.250582496203	0
2	1073	2366.186839445675	0
2	1076	2392.876483049199	0
2	1079	2394.644434350117	0.090483132577
2	1082	2396.026138614033	0.121006145926
2	1085	2397.722014581747	1.023010763258
2	1088	2405.987835363148	0
2	1094	2431.543350033688	0
2	1097	2434.969970675909	0
2	1100	2436.854714053433	0
2	1127	2491.460684143227	44.756810396683
2	1128	2493.281763468756	39.463373837867
2	1129	2495.054316983404	30.463231983097
2	1132	2495.884797691526	29.122753245291
2	1133	2497.827464120114	30.364132775004
2	1134	2498.257912045945	23.038819820483
2	1135	2498.262262650241	18.651251395059
2	1136	2498.418919929082	2.690096253449
2	1139	2499.804357768263	0
3	162	364.011235366161	34
3	165	368.409947038621	35
3	176	403.482777977793	36
3	177	403.492235325927	37
3	193	435.960619083144	38
3	194	436.404306106653	39
3	195	436.603131196044	40
3	198	451.047597013331	41
3	203	457.634533668475	42
3	204	457.880305067925	43
3	209	475.518042803675	44
3	210	475.902810631865	45
3	254	578.079446960023	46
3	257	580.577711028183	47
3	260	581.212849452359	48
3	261	581.245273130639	49
3	262	582.224590281008	50
3	263	582.291889449218	51
3	264	583.462357006428	52
3	265	584.456147226844	53
3	266	584.796901061356	54
3	267	586.866894973594	55
3	268	586.92117859104	56
3	269	586.929932524618	57
3	270	588.479547132127	58
3	278	595.582048724855	59
3	279	596.328267318999	60
3	290	609.358439103746	61
3	291	609.577629992901	62
3	294	612.723898792301	63
3	297	633.665610457554	64
3	302	637.904060231739	65
3	303	638.687314819041	66
3	306	676.12250113916	67
3	309	678.465631648809	68
3	312	688.315936877013	69
3	321	731.4748647243	70
3	329	763.892445699943	71
3	333	766.671380637364	72
3	336	777.26372523749	73
3	339	778.686255491133	74
3	342	796.274172040251	75
3	345	803.993533443716	76
3	348	810.34043111668	77
3	351	816.38372684161	78
3	354	820.966486914949	79
3	357	830.262976064053	80
3	360	835.388712753205	81
3	366	851.606206641877	82
3	396	964.887892282817	83
3	397	965.778659419607	84
3	400	968.286446763777	85
3	401	969.44664979168	86
3	402	969.726993129908	87
3	405	971.971388781803	88
3	408	977.66140245002	89
3	419	1021.476207784579	90
3	420	1021.767888088403	91
3	423	1022.475724457054	92
3	431	1031.420987589025	93
3	432	1032.192353412995	94
3	435	1034.418135781149	95
3	447	1061.629532841725	96
3	453	1069.544612846711	97
3	456	1076.052667978515	98
3	459	1076.152815508649	99
3	462	1077.852894219452	100
3	465	1079.774017964883	101
3	468	1082.462870719434	102
3	480	1096.71161186506	103
3	483	1112.86346419554	104
3	489	1123.739920691815	105
3	504	1144.153597850477	106
3	505	1144.257574013611	107
3	508	1145.510632439524	108
3	509	1145.792410786738	109
3	510	1146.023571381184	110
3	513	1147.447887579385	111
3	518	1160.625734388509	112
3	521	1163.229350036347	113
3	522	1163.425023918438	114
3	525	1171.752017307508	115
3	533	1192.435991818025	116
3	534	1192.70735303389	117
3	539	1198.376732982338	118
3	542	1199.218113971333	119
3	543	1199.313356671713	120
3	546	1207.915395345058	121
3	549	1215.894879584143	122
3	552	1231.919893853453	123
3	555	1235.116549394408	124
3	558	1237.947461281449	125
3	561	1248.541370818452	126
3	564	1251.707784012379	127
3	576	1275.801343250534	128
3	579	1285.669336767788	129
3	593	1310.865894240918	130
3	596	1311.077751789237	131
3	597	1311.778642712412	132
3	600	1318.677671110772	133
3	603	1327.317189617735	134
3	606	1334.129821321721	135
3	612	1352.821256530627	136
3	615	1363.359656518126	137
3	621	1370.849628972402	138
3	624	1378.022786690079	139
3	627	1387.700387689546	140
3	630	1396.260660441738	141
3	633	1402.878503089273	142
3	636	1404.205451923234	143
3	639	1404.933701321091	144
3	645	1415.621909736186	145
3	648	1420.369198115444	146
3	664	1459.051375565896	147
3	665	1459.251161585654	148
3	666	1459.508104815646	149
3	672	1478.624175114786	150
3	675	1502.352067189835	151
3	678	1515.137343969011	152
3	681	1515.538182459509	153
3	684	1520.258152503604	154
3	687	1529.387623556698	155
3	690	1536.996352848323	156
3	693	1538.176863985854	157
3	699	1571.973171669009	158
3	702	1579.94435723167	159
3	705	1580.94385504318	160
3	713	1594.348338102366	161
3	714	1594.375798806811	162
3	720	1611.268169243109	163
3	723	1619.725204719876	164
3	726	1647.485551656741	165
3	729	1653.146683158962	166
3	732	1658.973924749902	167
3	735	1668.710356208305	168
3	738	1679.186274139844	169
3	744	1683.881206208333	170
3	765	1730.594394600498	171
3	770	1734.624301676792	172
3	771	1735.198986966104	173
3	772	1735.945254635712	174
3	773	1736.361165313831	175
3	776	1738.530000802298	176
3	777	1741.948947990235	177
3	783	1747.430496835228	178
3	786	1750.030784434431	179
3	789	1750.741882578742	180
3	800	1791.82738406156	181
3	803	1792.400529573145	182
3	804	1793.507394248332	183
3	819	1814.699328565075	184
3	822	1827.357907372776	185
3	825	1851.090077150518	186
3	828	1870.097274319489	187
3	831	1874.140891660381	188
3	838	1888.217158669729	189
3	839	1888.692767660822	190
3	840	1888.90880836023	191
3	843	1897.729723635635	192
3	849	1922.964398793796	193
3	852	1936.26804359421	194
3	855	1957.972054777609	195
3	860	1959.566257898797	196
3	861	1960.616453012101	197
3	864	1962.072815422221	198
3	867	1973.130630974575	199
3	870	1997.869785693439	200
3	873	2003.030636314583	201
3	876	2023.526661383945	202
3	879	2035.008169873208	203
3	882	2040.940457332903	204
3	885	2048.927968245837	205
3	891	2057.824238326799	206
3	894	2060.716223596429	207
3	897	2064.271537172529	208
3	900	2067.477028428647	209
3	905	2075.066752640957	210
3	912	2086.187312446456	211
3	915	2095.449669167369	212
3	926	2121.529198531182	213
3	927	2121.932148842148	214
3	933	2145.930213530173	215
3	936	2151.969294447756	216
3	939	2153.790358052577	217
3	942	2159.128605280246	218
3	945	2161.262630974471	219
3	954	2180.622755372515	220
3	957	2182.746863519155	221
3	960	2184.649585038133	222
3	963	2189.768508728517	223
3	966	2193.237020679126	224
3	969	2214.638535644372	225
3	972	2214.974003392005	226
3	975	2217.252071004013	227
3	978	2228.939664925143	228
3	981	2233.917024382162	229
3	987	2239.635488027502	230
3	990	2245.609044203419	231
3	993	2248.714156006185	232
3	996	2253.894721055632	233
3	1044	2327.026490800322	234
3	1045	2328.131688851853	235
3	1046	2328.19140779902	236
3	1047	2329.61818704947	237
3	1048	2330.24323597355	238
3	1049	2330.499438003794	239
3	1050	2330.695594138461	240
3	1051	2331.641956500026	241
3	1054	2333.056679905528	242
3	1055	2335.490012590616	243
3	1056	2340.248506868143	244
3	1059	2349.112589153985	245
3	1066	2358.149101707169	246
3	1067	2358.617418909175	247
3	1068	2359.002601384207	248
3	1071	2359.263871020667	249
3	1074	2369.744674461388	250
3	1079	2394.644434350117	251
3	1082	2396.026138614033	252
3	1085	2397.722014581747	253
3	1086	2397.744183999528	254
3	1089	2406.070912799383	255
3	1095	2431.627963141703	256
3	1098	2435.158320723955	257
3	1101	2437.3788828808	258
3	1128	2493.281763468756	259
3	1129	2495.054316983404	260
3	1132	2495.884797691526	261
3	1133	2497.827464120114	262
3	1134	2498.257912045945	263
3	1135	2498.262262650241	264
3	1136	2498.418919929082	265
3	1137	2498.677339880436	266
3	1140	2499.908074164997	267
4	162	364.011235366161	2.671571871559
4	165	368.409947038621	0.427068612421
4	176	403.482777977793	22.823304234144
4	177	403.492235325927	9.362971065945
4	193	435.960619083144	10.194877731236
4	194	436.404306106653	8.886494456058
4	195	436.603131196044	2.996323128325
4	198	451.047597013331	2.977778047906
4	203	457.634533668475	1.283263622643
4	204	457.880305067925	1.318741285334
4	209	475.518042803675	2.798629683646
4	210	475.902810631865	1.73070974538
4	254	578.079446960023	75.229095709904
4	257	580.577711028183	76.491288645246
4	260	581.212849452359	74.598652736285
4	261	581.245273130639	70.921923849158
4	262	582.224590281008	59.76303719097
4	263	582.291889449218	48.699593312804
4	264	583.462357006428	42.939687242976
4	265	584.456147226844	37.561464332781
4	266	584.796901061356	35.637468181061
4	267	586.866894973594	20.770116012141
4	268	586.92117859104	10.899035990126
4	269	586.929932524618	7.488705024775
4	270	588.479547132127	7.479980158898
4	278	595.582048724855	1.372696175769
4	279	596.328267318999	1.574864749334
4	290	609.358439103746	1.837811502449
4	291	609.577629992901	0.901033412843
4	294	612.723898792301	0.078737461652
4	297	633.665610457554	0.904371888074
4	302	637.904060231739	1.068438154719
4	303	638.687314819041	1.470221497265
4	306	676.12250113916	0.711845308373
4	309	678.465631648809	0.600552001725
4	312	688.315936877013	0.653702247944
4	321	731.4748647243	0.716577694425
4	329	763.892445699943	3.113933645171
4	333	766.671380637364	2.31660762563
4	336	777.26372523749	1.2038115e-05
4	339	778.686255491133	0.125966957058
4	342	796.274172040251	0.283661772364
4	345	803.993533443716	0.118250309545
4	348	810.34043111668	1.245603023653
4	351	816.38372684161	1.811851135342
4	354	820.966486914949	0.392423601222
4	357	830.262976064053	0.317393153461
4	360	835.388712753205	0.324341012175
4	366	851.606206641877	0.962631080326
4	396	964.887892282817	60.980945671184
4	397	965.778659419607	35.734166414283
4	400	968.286446763777	36.287105455084
4	401	969.44664979168	34.319691959334
4	402	969.726993129908	1.740016572633
4	405	971.971388781803	0.356987665826
4	408	977.66140245002	0.612647621545
4	419	1021.476207784579	30.567192797726
4	420	1021.767888088403	25.824296040227
4	423	1022.475724457054	0.093132508323
4	431	1031.420987589025	2.818051066146
4	432	1032.192353412995	3.38154776298
4	435	1034.418135781149	0.927702687882
4	447	1061.629532841725	0.626631163788
4	453	1069.544612846711	2.277324210933
4	456	1076.052667978515	0.328202046554
4	459	1076.152815508649	0.07033394782
4	462	1077.852894219452	0.117875849256
4	465	1079.774017964883	1.15863327343
4	468	1082.462870719434	0.783556269314
4	480	1096.71161186506	1.845166541166
4	483	1112.86346419554	0.982233958957
4	489	1123.739920691815	1.747180644426
4	504	1144.153597850477	9.219639552442
4	505	1144.257574013611	9.040569557625
4	508	1145.510632439524	10.147580466783
4	509	1145.792410786738	6.860179657333
4	510	1146.023571381184	1.23585622782
4	513	1147.447887579385	0.164623096106
4	518	1160.625734388509	4.932360190499
4	521	1163.229350036347	6.970060776171
4	522	1163.425023918438	0.220317036089
4	525	1171.752017307508	1.139762490531
4	533	1192.435991818025	5.486966790909
4	534	1192.70735303389	0.373453337298
4	539	1198.376732982338	0.762755788819
4	542	1199.218113971333	1.109936273606
4	543	1199.313356671713	0.707093244104
4	546	1207.915395345058	0.813355274834
4	549	1215.894879584143	0.322279969962
4	552	1231.919893853453	0.075518274467
4	555	1235.116549394408	0.205738455701
4	558	1237.947461281449	1.830761319452
4	561	1248.541370818452	0.598399662954
4	564	1251.707784012379	0.519730976424
4	576	1275.801343250534	0.551744496087
4	579	1285.669336767788	0.156502934394
4	593	1310.865894240918	16.834136095936
4	596	1311.077751789237	10.258730879569
4	597	1311.778642712412	0.839032686252
4	600	1318.677671110772	0.674600508344
4	603	1327.317189617735	0.620816264348
4	606	1334.129821321721	1.244879438184
4	612	1352.821256530627	15.597536455013
4	615	1363.359656518126	4.195610939116
4	621	1370.849628972402	4.212980186559
4	624	1378.022786690079	2.077734973583
4	627	1387.700387689546	1.378110864412
4	630	1396.260660441738	0.691232375463
4	633	1402.878503089273	4.653538930752
4	636	1404.205451923234	0.112922367118
4	639	1404.933701321091	0.210337468615
4	645	1415.621909736186	4.35838145371
4	648	1420.369198115444	0.14462402342
4	664	1459.051375565896	16.894199891024
4	665	1459.251161585654	9.064644128032
4	666	1459.508104815646	6.983327222848
4	672	1478.624175114786	7.259623273409
4	675	1502.352067189835	2.059104637288
4	678	1515.137343969011	0.508847863615
4	681	1515.538182459509	0.146597361303
4	684	1520.258152503604	0.182661288421
4	687	1529.387623556698	0.269685212406
4	690	1536.996352848323	0.040809162277
4	693	1538.176863985854	0.904854489166
4	699	1571.973171669009	3.802685057867
4	702	1579.94435723167	0.829935552225
4	705	1580.94385504318	0.443754864845
4	713	1594.348338102366	3.704088046908
4	714	1594.375798806811	3.550153863568
4	720	1611.268169243109	0.60374411298
4	723	1619.725204719876	0.788571670352
4	726	1647.485551656741	0.138065164234
4	729	1653.146683158962	1.501419129713
4	732	1658.973924749902	1.429484474267
4	735	1668.710356208305	0.83461276471
4	738	1679.186274139844	0.225188234329
4	744	1683.881206208333	1.610241077342
4	765	1730.594394600498	22.509602015962
4	770	1734.624301676792	21.001197324454
4	771	1735.198986966104	11.915202701912
4	772	1735.945254635712	7.889972004003
4	773	1736.361165313831	4.411159912814
4	776	1738.530000802298	5.19435747498
4	777	1741.948947990235	4.764378170867
4	783	1747.430496835228	0.999501099634
4	786	1750.030784434431	0.154347795283
4	789	1750.741882578742	0.118160668091
4	800	1791.82738406156	9.640561009288
4	803	1792.400529573145	5.721581576074
4	804	1793.507394248332	1.620387878655
4	819	1814.699328565075	16.748349626124
4	822	1827.357907372776	0.115753123498
4	825	1851.090077150518	0.547637367087
4	828	1870.097274319489	0.092393330908
4	831	1874.140891660381	0.996108623217
4	838	1888.217158669729	3.395077349935
4	839	1888.692767660822	2.91417241457
4	840	1888.90880836023	3.097279303651
4	843	1897.729723635635	0.021635706433
4	849	1922.964398793796	2.220105029673
4	852	1936.26804359421	3.850266722634
4	855	1957.972054777609	0.313868213096
4	860	1959.566257898797	1.420619294171
4	861	1960.616453012101	2.411545532471
4	864	1962.072815422221	0.031682481189
4	867	1973.130630974575	0.791371540198
4	870	1997.869785693439	0.897122920057
4	873	2003.030636314583	1.19311477895
4	876	2023.526661383945	0.875000311361
4	879	2035.008169873208	3.299491504707
4	882	2040.940457332903	1.774634258783
4	885	2048.927968245837	0.325344520722
4	891	2057.824238326799	5.31514393588
4	894	2060.716223596429	0.266085571843
4	897	2064.271537172529	2.406977291666
4	900	2067.477028428647	1.868675425719
4	905	2075.066752640957	1.538434572533
4	912	2086.187312446456	10.878637858984
4	915	2095.449669167369	0.505050446705
4	926	2121.529198531182	0.452988997506
4	927	2121.932148842148	0.408652431049
4	933	2145.930213530173	0.166638741648
4	936	2151.969294447756	0.571676701535
4	939	2153.790358052577	0.227651369874
4	942	2159.128605280246	0.300884347146
4	945	2161.262630974471	0.069992180897
4	954	2180.622755372515	3.394530247638
4	957	2182.746863519155	1.384239260949
4	960	2184.649585038133	0.235446783071
4	963	2189.768508728517	0.198547771918
4	966	2193.237020679126	0.374867502023
4	969	2214.638535644372	0.13268684952
4	972	2214.974003392005	0.234977135522
4	975	2217.252071004013	0.254643604618
4	978	2228.939664925143	0.78069471499
4	981	2233.917024382162	0.327753727491
4	987	2239.635488027502	4.500932028364
4	990	2245.609044203419	0.034406916019
4	993	2248.714156006185	2.280084693139
4	996	2253.894721055632	0.293564922312
4	1044	2327.026490800322	62.186105867232
4	1045	2328.131688851853	59.347398416891
4	1046	2328.19140779902	45.999147237425
4	1047	2329.61818704947	32.35379900281
4	1048	2330.24323597355	23.791923969507
4	1049	2330.499438003794	22.592836479899
4	1050	2330.695594138461	22.244018978868
4	1051	2331.641956500026	21.062028029696
4	1054	2333.056679905528	19.118301219669
4	1055	2335.490012590616	16.400131900487
4	1056	2340.248506868143	7.373285723444
4	1059	2349.112589153985	0.780036294054
4	1066	2358.149101707169	4.456403897896
4	1067	2358.617418909175	1.996995062985
4	1068	2359.002601384207	0.911576946402
4	1071	2359.263871020667	0.013288524464
4	1074	2369.744674461388	3.557835015713
4	1079	2394.644434350117	1.767951300918
4	1082	2396.026138614033	1.472187396493
4	1085	2397.722014581747	1.81688211364
4	1086	2397.744183999528	1.045180181039
4	1089	2406.070912799383	0.083077436235
4	1095	2431.627963141703	0.084613108015
4	1098	2435.158320723955	0.188350048046
4	1101	2437.3788828808	0.524168827367
4	1128	2493.281763468756	46.577889722212
4	1129	2495.054316983404	41.235927352515
4	1132	2495.884797691526	31.293712691219
4	1133	2497.827464120114	31.065419673879
4	1134	2498.257912045945	30.794580700835
4	1135	2498.262262650241	23.043170424779
4	1136	2498.418919929082	18.8079086739
4	1137	2498.677339880436	2.948516204803
4	1140	2499.908074164997	0.103716396734
5	169	380.659473743649	2
5	286	607.520627601297	3
5	331	764.354773011734	4
5	412	990.909014986853	5
5	610	1337.223720075614	6
5	889	2052.509094390919	7
5	907	2075.308674587472	8
5	922	2121.076209533676	9
5	952	2177.228225124877	10
5	1003	2264.84038493309	11
6	169	380.659473743649	0
6	174	399.383469526582	3.411775109117
6	179	404.35044228479	0
6	182	410.037356174797	0
6	185	425.519679098172	0
6	212	493.340900375065	0
6	217	499.344435302024	5.885712765013
6	226	514.402868588537	17.660273978955
6	241	545.628074283693	26.520249483424
6	246	557.969151779063	33.918756437049
6	247	562.085583493709	33.320127153549
6	248	563.858729873139	28.11611703244
6	272	589.672238161967	0
6	281	598.144708626378	0
6	286	607.520627601297	0
6	314	702.49001005566	0
6	317	730.410353463151	0
6	323	735.549137058382	0
6	331	764.354773011734	0
6	362	838.86047744023	0
6	368	879.741882111558	0
6	381	928.729267186556	46.615949626571
6	390	941.734552888306	57.288060399363
6	391	945.233070735037	56.987467664097
6	392	947.482793521464	52.101063411662
6	393	958.202129335754	30.684151029559
6	394	958.888071738212	18.486542636778
6	412	990.909014986853	0
6	417	1015.63532180318	2.374274526564
6	425	1028.545887104851	0
6	437	1034.503025313914	0
6	440	1056.261431386999	19.726659383605
6	443	1060.691130510771	0
6	449	1063.19383248497	0
6	470	1084.594332712561	0
6	473	1090.754167319039	0
6	476	1094.772215871149	0
6	485	1120.122180825996	0
6	491	1127.896198946203	0
6	494	1133.693290640057	2.0608058846
6	527	1175.335185131008	0
6	566	1256.60543472736	0
6	571	1259.842255660323	1.496247986351
6	572	1265.629548627282	6.740136055291
6	581	1286.342301461403	0
6	588	1294.558549483677	7.983607664387
6	591	1307.464925626509	19.602412104977
6	610	1337.223720075614	0
6	617	1363.520401318974	0
6	641	1406.512882744487	0
6	650	1433.648475926042	0
6	653	1441.367844593434	6.020518472913
6	662	1454.512158899574	8.682703821627
6	668	1469.693661528508	0
6	695	1564.774017558306	0
6	707	1588.196429206383	0
6	716	1600.231040489507	0
6	740	1682.208424127058	0
6	746	1686.419845939918	0
6	749	1707.679710106683	0
6	758	1721.59775864891	5.252282178885
6	759	1722.220399229089	1.664587371519
6	779	1745.64792178764	0
6	791	1779.449199170603	0
6	798	1789.354130395522	1.059173799471
6	806	1797.29918631301	0
6	813	1803.966237423476	5.6070812102
6	816	1812.888749752562	13.715977970571
6	817	1814.232181312093	7.465830578191
6	845	1917.923427135827	0
6	889	2052.509094390919	0
6	907	2075.308674587472	0
6	910	2085.108148208315	3.008598778999
6	917	2108.685862315649	0
6	922	2121.076209533676	0
6	929	2142.723683495446	0
6	947	2169.304437475917	0
6	952	2177.228225124877	0
6	983	2234.76196218177	0
6	998	2260.983183628547	0
6	1003	2264.84038493309	0
6	1016	2292.389890694351	23.488442588141
6	1019	2295.506270314953	21.828980707304
6	1024	2298.507232411827	12.787799705472
6	1025	2300.320062448896	11.758350467324
6	1026	2301.950868982297	8.392018730206
6	1037	2312.859385409245	14.619448146323
6	1042	2321.500580231248	9.406180044831
6	1091	2421.021190455418	0
6	1103	2446.030079873069	0
6	1116	2465.537242616343	13.842766355342
6	1123	2476.59367499742	20.915257335974
6	1126	2479.691281170728	21.680992672667
7	1141	2500	0.1068
8	1141	2500	0.0452

