version 2
run analysis_2kr_easy_game_mode-23-20230322-09:08:14-6991
attr configname analysis_2kr_easy_game_mode
attr datetime 20230322-09:08:14
attr experiment analysis_2kr_easy_game_mode
attr inifile omnetpp.ini
attr iterationvars "$0=20, $1=5, $2=15, $3=1, $4=0"
attr iterationvarsf 20,5,15,1,0-
attr measurement "$0=20, $1=5, $2=15, $3=1, $4=0"
attr network Network
attr processid 6991
attr repetition 3
attr replication #3
attr resultdir results
attr runnumber 23
attr seedset 3
param *.boss.arrival_mean 20
param *.boss.service_mean 5
param *.minion.arrival_mean 15
param *.minion.service_mean 1
param *.player.recover_rate_x 0
param **.minion.arrival_distribution 0
param **.minion.service_distribution 0
param **.boss.arrival_distribution 0
param **.boss.service_distribution 0

vector 0 Network.player boss_defeated_stat:vector ETV
attr source signal_boss_defeated
vector 1 Network.player boss_response_time_stat:vector ETV
attr source signal_boss_response_time
vector 2 Network.player minion_waiting_time_stat:vector ETV
attr source signal_minion_waiting_time
vector 3 Network.player minion_defeated_stat:vector ETV
attr source signal_minion_defeated
vector 4 Network.player minion_response_time_stat:vector ETV
attr source signal_minion_response_time
vector 5 Network.player boss_waiting_time_stat:vector ETV
attr source signal_boss_waiting_time
vector 6 Network.player minion_recovered_stat:vector ETV
attr source signal_minion_recovered
vector 7 Network.player minion_throughput:vector ETV
attr source signal_minion_throughput
vector 8 Network.player boss_throughput:vector ETV
attr source signal_boss_throughput
0	129	358.107273479916	20
0	135	393.142137598938	21
0	138	396.136870597222	22
0	144	405.884065810897	23
0	149	413.523305123723	24
0	153	431.844909070366	25
0	177	497.343256993037	26
0	180	507.382212517379	27
0	185	528.19901631415	28
0	190	536.426401311064	29
0	191	539.170689120828	30
0	192	540.352786707115	31
0	195	549.31791087091	32
0	207	590.587305307943	33
0	213	604.264168811277	34
0	216	607.75978927184	35
0	239	709.940418902726	36
0	246	730.611455563824	37
0	249	736.169017768325	38
0	261	765.471933565725	39
0	282	841.120621562639	40
0	311	912.400138828223	41
0	316	921.070329296056	42
0	317	923.40267452721	43
0	318	924.902489718161	44
0	321	932.048713594354	45
0	322	932.506008529326	46
0	330	943.608806084357	47
0	342	1007.393219531071	48
0	349	1016.824892510379	49
0	354	1030.144646736512	50
0	362	1049.008629362638	51
0	363	1050.302595504061	52
0	366	1061.27069184966	53
0	369	1066.440971221405	54
0	372	1087.72264610346	55
0	375	1092.878897783791	56
0	378	1095.535380731048	57
0	384	1122.435018186988	58
0	389	1131.760926742106	59
0	390	1138.276485444494	60
0	405	1177.111412501015	61
0	431	1258.763315349335	62
0	434	1262.621510660641	63
0	435	1267.119387464646	64
0	445	1291.819800142919	65
0	446	1300.424050904807	66
0	447	1302.68942004611	67
0	450	1346.956029982563	68
0	456	1368.398198680777	69
0	468	1410.956036587786	70
0	473	1438.794721704304	71
0	476	1447.557597908397	72
0	477	1450.28107705426	73
0	489	1475.627178880784	74
0	510	1567.355239229482	75
0	513	1590.169306669934	76
0	521	1602.705968613941	77
0	546	1682.926025715454	78
0	552	1689.025821270176	79
0	568	1716.958409134834	80
0	571	1717.373502854953	81
0	578	1726.009637465934	82
0	591	1745.940471826917	83
0	599	1786.052486653882	84
0	604	1788.702801689371	85
0	620	1801.74388705332	86
0	623	1807.692228606044	87
0	624	1808.587849645731	88
0	625	1808.735812301882	89
0	654	1921.227108893951	90
0	687	2055.969757055559	91
0	695	2081.841657001367	92
0	698	2082.811022487998	93
0	714	2116.313453100909	94
0	720	2121.232402132208	95
0	726	2144.213799444538	96
0	732	2174.405607522971	97
0	738	2178.030875226438	98
0	747	2237.714898474954	99
0	753	2261.251723799974	100
0	766	2283.206722107264	101
0	767	2285.284308520998	102
0	770	2287.284949918914	103
0	771	2288.49350327696	104
0	774	2289.648916337172	105
0	784	2300.831194536723	106
0	789	2306.591991084725	107
0	795	2315.209814775275	108
0	816	2423.183564919779	109
0	828	2459.034855035252	110
0	829	2466.40580995597	111
0	830	2468.470880738175	112
0	833	2476.317149386508	113
1	129	358.107273479916	10.295428471319
1	135	393.142137598938	12.482663855289
1	138	396.136870597222	0.165176179757
1	144	405.884065810897	1.533623526107
1	149	413.523305123723	3.485948948926
1	153	431.844909070366	6.325229972194
1	177	497.343256993037	4.002356617972
1	180	507.382212517379	13.923489980368
1	185	528.19901631415	31.456421704568
1	190	536.426401311064	17.318576510795
1	191	539.170689120828	15.120293778814
1	192	540.352786707115	11.587330366955
1	195	549.31791087091	13.575298030211
1	207	590.587305307943	0.915067145976
1	213	604.264168811277	6.119460184899
1	216	607.75978927184	0.239161670543
1	239	709.940418902726	7.450408847066
1	246	730.611455563824	0.201102100673
1	249	736.169017768325	0.619880709943
1	261	765.471933565725	1.117160553991
1	282	841.120621562639	2.260144122409
1	311	912.400138828223	32.658256716665
1	316	921.070329296056	38.957011736071
1	317	923.40267452721	38.956182038267
1	318	924.902489718161	36.656886647221
1	321	932.048713594354	36.666983484552
1	322	932.506008529326	4.988030223131
1	330	943.608806084357	3.207276982923
1	342	1007.393219531071	16.484204544218
1	349	1016.824892510379	3.563845233763
1	354	1030.144646736512	1.598759631661
1	362	1049.008629362638	14.505604048724
1	363	1050.302595504061	13.767823500667
1	366	1061.27069184966	0.579561338889
1	369	1066.440971221405	3.247138736435
1	372	1087.72264610346	3.128313390899
1	375	1092.878897783791	2.124730464752
1	378	1095.535380731048	0.763164859899
1	384	1122.435018186988	2.312837360992
1	389	1131.760926742106	3.864727795903
1	390	1138.276485444494	6.644000689037
1	405	1177.111412501015	1.776227370007
1	431	1258.763315349335	2.157880621975
1	434	1262.621510660641	4.275502986669
1	435	1267.119387464646	8.229974892655
1	445	1291.819800142919	5.477498681516
1	446	1300.424050904807	13.849109085517
1	447	1302.68942004611	14.826906524578
1	450	1346.956029982563	9.732309906949
1	456	1368.398198680777	4.877797361803
1	468	1410.956036587786	4.443153843299
1	473	1438.794721704304	5.146245778262
1	476	1447.557597908397	12.210271787876
1	477	1450.28107705426	4.451621976313
1	489	1475.627178880784	5.933517352276
1	510	1567.355239229482	2.581221671176
1	513	1590.169306669934	1.972877463551
1	521	1602.705968613941	2.474928124434
1	546	1682.926025715454	0.717601588396
1	552	1689.025821270176	2.605975330258
1	568	1716.958409134834	9.278699028151
1	571	1717.373502854953	1.028026384928
1	578	1726.009637465934	5.453825608364
1	591	1745.940471826917	0.292550039277
1	599	1786.052486653882	6.603287483279
1	604	1788.702801689371	0.40784509332
1	620	1801.74388705332	4.44470074031
1	623	1807.692228606044	9.333072392768
1	624	1808.587849645731	9.41507786374
1	625	1808.735812301882	1.96946156798
1	654	1921.227108893951	3.303681758124
1	687	2055.969757055559	3.46066266464
1	695	2081.841657001367	6.532982413895
1	698	2082.811022487998	0.711473058682
1	714	2116.313453100909	7.62759078526
1	720	2121.232402132208	0.156192598532
1	726	2144.213799444538	1.490115949092
1	732	2174.405607522971	5.101170047054
1	738	2178.030875226438	0.802650101561
1	747	2237.714898474954	2.952936293184
1	753	2261.251723799974	0.268540171427
1	766	2283.206722107264	18.366337174174
1	767	2285.284308520998	16.382860414788
1	770	2287.284949918914	13.607660311265
1	771	2288.49350327696	2.774070570605
1	774	2289.648916337172	1.0872043556
1	784	2300.831194536723	7.272344284632
1	789	2306.591991084725	8.352053821803
1	795	2315.209814775275	3.115414588858
1	816	2423.183564919779	2.162374464361
1	828	2459.034855035252	13.004775162183
1	829	2466.40580995597	14.711333694969
1	830	2468.470880738175	12.792463076729
1	833	2476.317149386508	18.306860888447
2	131	359.219991836734	0
2	140	402.516471355681	0
2	149	413.523305123723	1.153731049859
2	155	441.102453001202	0
2	158	477.650859125783	0
2	161	478.28874622532	0.603960174241
2	164	480.843311718947	0
2	167	491.891211697034	0
2	195	549.31791087091	55.024627867735
2	196	549.908982069193	43.570008264701
2	197	550.205072655126	8.195577413228
2	200	551.974317639294	0
2	203	569.269951707797	0
2	209	591.193896389968	0
2	218	638.648612027858	0
2	221	641.276717475888	0
2	224	650.410212101574	0
2	227	672.104728448133	0
2	230	684.526905068743	0
2	233	685.810168691386	0.967823017505
2	239	709.940418902726	0.861299222688
2	242	712.739048586372	1.48089725665
2	251	754.275526875174	0
2	254	756.129633574401	0
2	257	759.921295074107	0
2	263	765.485023922218	0
2	266	783.692329635054	0
2	269	800.388444204617	0
2	272	810.784004645175	0
2	275	820.342024341091	0
2	278	823.739149320439	0
2	284	849.145168442176	0
2	287	864.033213901367	0
2	290	869.161841249761	0
2	293	871.49935045984	0
2	322	932.506008529326	41.1919797057
2	323	933.878704705095	41.748600850601
2	324	934.624923299239	24.303533208089
2	325	936.300720993445	23.285826123362
2	326	936.5199118826	17.552169886631
2	332	949.141857854215	0
2	335	955.253433115525	0
2	338	956.321871270244	0.496231287585
2	344	1013.115983746176	0
2	349	1016.824892510379	3.563845233763
2	350	1017.391674288312	0.594054817691
2	356	1031.493351943599	0
2	380	1096.137430544808	0
2	392	1141.167768082154	0
2	395	1144.281701727325	0.267536998903
2	398	1165.895569799058	0
2	401	1167.840432801108	0
2	407	1193.985765401826	0
2	410	1205.812924701252	0
2	413	1213.642242139536	0
2	416	1221.857813559398	0
2	419	1230.861094970586	0
2	422	1244.918374365884	0
2	425	1252.596557611541	0
2	437	1275.965363342323	0
2	452	1355.860419917445	0
2	458	1395.066739507981	0
2	461	1397.999011963034	0
2	464	1402.690436748513	0
2	479	1451.980464835907	0
2	482	1457.42160167396	0
2	485	1465.573132242708	0
2	491	1485.639307968836	0
2	494	1493.915388072259	0
2	497	1533.573887923091	0
2	500	1542.904404784314	0
2	503	1543.381365820996	0.165157345977
2	506	1550.235649639896	0
2	515	1591.504352516901	0
2	521	1602.705968613941	1.805035660279
2	524	1613.586698897937	0
2	527	1614.123722341238	0
2	530	1616.602527555288	0
2	533	1617.923077037173	0
2	536	1622.518971675174	0
2	539	1642.299667985835	0
2	542	1667.821845354868	0
2	548	1682.989110071077	0
2	554	1702.400937447047	0
2	559	1703.087906603885	0.262399919912
2	560	1703.191882767019	0.147304807913
2	571	1717.373502854953	8.975156160851
2	572	1717.655281202167	0.473708472127
2	578	1726.009637465934	5.084740741022
2	581	1733.540061297008	0
2	584	1738.472421487507	4.08348759725
2	587	1744.807060323516	0
2	593	1755.918382225458	0
2	599	1786.052486653882	5.628949113216
2	604	1788.702801689371	0.40784509332
2	605	1791.947298538111	3.446448993231
2	608	1796.42096579027	0
2	611	1797.183721579089	0.021455032508
2	625	1808.735812301882	11.436625988872
2	626	1809.461728556956	11.552333415551
2	629	1810.653060105327	0
2	632	1823.358899421262	0
2	635	1847.76656336847	0
2	638	1852.366216408052	0
2	641	1854.175049942988	0
2	644	1871.914456733239	0
2	647	1876.782079553924	0
2	650	1912.874398131663	0
2	656	1928.269250750083	0
2	659	1941.047637217465	0
2	662	1951.228531364494	0
2	665	1966.409415039232	0
2	668	1977.004605903635	0
2	671	1990.044560030074	0
2	674	1999.327412825299	0
2	677	2004.975803754528	0
2	680	2038.746068368509	0
2	683	2049.954973178759	0
2	689	2063.917577574738	0
2	695	2081.841657001367	2.358241763672
2	698	2082.811022487998	0.711473058682
2	701	2093.354142099407	0
2	704	2097.337446237777	0
2	707	2106.13879433417	0
2	710	2107.085045778709	0
2	716	2116.895292423709	0
2	722	2130.336861138031	0
2	728	2163.235763512303	0
2	734	2175.279776186427	0
2	740	2178.78716638919	0
2	743	2207.046827762059	0
2	749	2250.439443828814	0
2	771	2288.49350327696	16.550759118872
2	774	2289.648916337172	16.561538689869
2	775	2289.795513698475	9.682276875706
2	776	2289.978174986896	1.416463005324
2	789	2306.591991084725	12.915083568293
2	790	2306.861676297131	1.428360768068
2	791	2306.902485459408	0.994471214381
2	797	2352.255729916708	0
2	800	2368.671632519163	0
2	803	2370.750150267498	0
2	806	2385.966375083182	0
2	809	2389.158967783838	2.920500368978
2	812	2415.996637695189	0
2	818	2428.404949574281	0
2	833	2476.317149386508	5.295919647752
2	836	2477.46789604387	0
2	839	2486.316660413449	0
3	132	361.579653209659	24
3	141	402.57676554902	25
3	150	414.796379808369	26
3	156	443.047789922325	27
3	161	478.28874622532	28
3	162	478.755322178538	29
3	165	481.53048743158	30
3	168	493.030170946639	31
3	196	549.908982069193	32
3	197	550.205072655126	33
3	198	550.961320305712	34
3	201	552.401386251715	35
3	204	574.267668494486	36
3	210	591.203353738102	37
3	219	639.601707054539	38
3	222	641.720404499397	39
3	225	650.609037190965	40
3	228	675.082506496039	41
3	233	685.810168691386	42
3	234	686.055940090836	43
3	242	712.739048586372	44
3	243	713.123816414562	45
3	252	755.048557716366	46
3	255	758.627897642561	47
3	258	760.556433498283	48
3	264	765.517447600498	49
3	267	784.671646785423	50
3	270	800.455743372827	51
3	273	811.954472202385	52
3	276	821.335814561507	53
3	279	824.079903154951	54
3	285	851.215162354414	55
3	288	864.087497518813	56
3	291	869.170595183339	57
3	294	873.048965067349	58
3	323	933.878704705095	59
3	324	934.624923299239	60
3	325	936.300720993445	61
3	326	936.5199118826	62
3	327	936.598649344252	63
3	333	950.046229742289	64
3	338	956.321871270244	65
3	339	957.105125857546	66
3	350	1017.391674288312	67
3	351	1017.992226290037	68
3	357	1032.147054191543	69
3	381	1096.854008239233	70
3	395	1144.281701727325	71
3	396	1145.38489583376	72
3	399	1165.895581837173	73
3	402	1167.966399758166	74
3	408	1194.26942717419	75
3	411	1205.931175010797	76
3	414	1214.887845163189	77
3	417	1223.66966469474	78
3	420	1231.253518571808	79
3	423	1245.235767519345	80
3	426	1252.920898623716	81
3	438	1276.927994422649	82
3	453	1357.049324987665	83
3	459	1395.957506644771	84
3	462	1400.506799307204	85
3	465	1403.850639776416	86
3	480	1452.260808174135	87
3	483	1457.778589339786	88
3	486	1466.185779864253	89
3	492	1486.617235773882	90
3	495	1494.207068376083	91
3	498	1533.667020431414	92
3	503	1543.381365820996	93
3	504	1544.152731644966	94
3	507	1551.163352327778	95
3	516	1591.573412839522	96
3	522	1604.18604087103	97
3	525	1613.914900944491	98
3	528	1614.194056289058	99
3	531	1616.720403404544	100
3	534	1619.081710310603	101
3	537	1623.302527944488	102
3	540	1643.094316689897	103
3	543	1668.804079313825	104
3	549	1683.137593895407	105
3	559	1703.087906603885	106
3	560	1703.191882767019	107
3	561	1704.444941192932	108
3	572	1717.655281202167	109
3	573	1717.886441796613	110
3	579	1726.17426056204	111
3	584	1738.472421487507	112
3	585	1741.076037135345	113
3	588	1745.002734205607	114
3	594	1757.058144715989	115
3	605	1791.947298538111	116
3	606	1792.218659753976	117
3	611	1797.183721579089	118
3	626	1809.461728556956	119
3	627	1809.556971257336	120
3	630	1811.466415380161	121
3	633	1823.681179391224	122
3	636	1847.842081642937	123
3	639	1852.571954863753	124
3	642	1856.00581126244	125
3	645	1872.512856396193	126
3	648	1877.301810530348	127
3	651	1913.42614262775	128
3	657	1928.425753684477	129
3	660	1941.05055211992	130
3	663	1951.440388912813	131
3	666	1967.110305962407	132
3	669	1977.679206411979	133
3	672	1990.665376294422	134
3	675	2000.572292263483	135
3	678	2006.548059588376	136
3	681	2042.941679307625	137
3	684	2049.967504789482	138
3	690	2065.995312548321	139
3	699	2083.931240924461	140
3	702	2094.04537447487	141
3	705	2101.990985168529	142
3	708	2106.251716701288	143
3	711	2107.295383247324	144
3	717	2119.33958865046	145
3	723	2130.481485161451	146
3	729	2163.68976145983	147
3	735	2175.479562206185	148
3	741	2179.044109619182	149
3	744	2207.077065319923	150
3	750	2252.498548466102	151
3	775	2289.795513698475	152
3	776	2289.978174986896	153
3	777	2290.418814145899	154
3	790	2306.861676297131	155
3	791	2306.902485459408	156
3	792	2307.807339948574	157
3	798	2355.583051520647	158
3	801	2369.501568071388	159
3	804	2371.193905132343	160
3	809	2389.158967783838	161
3	810	2389.186428488283	162
3	813	2416.600381808169	163
3	819	2429.193521244633	164
3	834	2476.455214550742	165
3	837	2478.969315173583	166
3	840	2487.746144887716	167
4	132	361.579653209659	2.359661372925
4	141	402.57676554902	0.060294193339
4	150	414.796379808369	2.426805734505
4	156	443.047789922325	1.945336921123
4	161	478.28874622532	0.637887099537
4	162	478.755322178538	1.070536127459
4	165	481.53048743158	0.687175712633
4	168	493.030170946639	1.138959249605
4	196	549.908982069193	55.615699066018
4	197	550.205072655126	43.866098850634
4	198	550.961320305712	8.951825063814
4	201	552.401386251715	0.427068612421
4	204	574.267668494486	4.997716786689
4	210	591.203353738102	0.009457348134
4	219	639.601707054539	0.953095026681
4	222	641.720404499397	0.443687023509
4	225	650.609037190965	0.198825089391
4	228	675.082506496039	2.977778047906
4	233	685.810168691386	1.283263622643
4	234	686.055940090836	1.213594416955
4	242	712.739048586372	3.659928906334
4	243	713.123816414562	1.86566508484
4	252	755.048557716366	0.773030841192
4	255	758.627897642561	2.49826406816
4	258	760.556433498283	0.635138424176
4	264	765.517447600498	0.03242367828
4	267	784.671646785423	0.979317150369
4	270	800.455743372827	0.06729916821
4	273	811.954472202385	1.17046755721
4	276	821.335814561507	0.993790220416
4	279	824.079903154951	0.340753834512
4	285	851.215162354414	2.069993912238
4	288	864.087497518813	0.054283617446
4	291	869.170595183339	0.008753933578
4	294	873.048965067349	1.549614607509
4	323	933.878704705095	42.564675881469
4	324	934.624923299239	42.494819444745
4	325	936.300720993445	25.979330902295
4	326	936.5199118826	23.505017012517
4	327	936.598649344252	17.630907348283
4	333	950.046229742289	0.904371888074
4	338	956.321871270244	1.068438154719
4	339	957.105125857546	1.279485874887
4	350	1017.391674288312	4.130627011696
4	351	1017.992226290037	1.194606819416
4	357	1032.147054191543	0.653702247944
4	381	1096.854008239233	0.716577694425
4	395	1144.281701727325	3.113933645171
4	396	1145.38489583376	1.370731105338
4	399	1165.895581837173	1.2038115e-05
4	402	1167.966399758166	0.125966957058
4	408	1194.26942717419	0.283661772364
4	411	1205.931175010797	0.118250309545
4	414	1214.887845163189	1.245603023653
4	417	1223.66966469474	1.811851135342
4	420	1231.253518571808	0.392423601222
4	423	1245.235767519345	0.317393153461
4	426	1252.920898623716	0.324341012175
4	438	1276.927994422649	0.962631080326
4	453	1357.049324987665	1.18890507022
4	459	1395.957506644771	0.89076713679
4	462	1400.506799307204	2.50778734417
4	465	1403.850639776416	1.160203027903
4	480	1452.260808174135	0.280343338228
4	483	1457.778589339786	0.356987665826
4	486	1466.185779864253	0.612647621545
4	492	1486.617235773882	0.977927805046
4	495	1494.207068376083	0.291680303824
4	498	1533.667020431414	0.093132508323
4	503	1543.381365820996	0.476961036682
4	504	1544.152731644966	0.936523169947
4	507	1551.163352327778	0.927702687882
4	516	1591.573412839522	0.069060322621
4	522	1604.18604087103	3.285107917368
4	525	1613.914900944491	0.328202046554
4	528	1614.194056289058	0.07033394782
4	531	1616.720403404544	0.117875849256
4	534	1619.081710310603	1.15863327343
4	537	1623.302527944488	0.783556269314
4	540	1643.094316689897	0.794648704062
4	543	1668.804079313825	0.982233958957
4	549	1683.137593895407	0.14848382433
4	559	1703.087906603885	0.686969156838
4	560	1703.191882767019	0.366376083046
4	561	1704.444941192932	1.400363233826
4	572	1717.655281202167	9.256934508065
4	573	1717.886441796613	0.704869066573
4	579	1726.17426056204	5.249363837128
4	584	1738.472421487507	4.932360190499
4	585	1741.076037135345	6.687103245088
4	588	1745.002734205607	0.195673882091
4	594	1757.058144715989	1.139762490531
4	605	1791.947298538111	3.65234194206
4	606	1792.218659753976	3.717810209096
4	611	1797.183721579089	0.762755788819
4	626	1809.461728556956	12.162542243946
4	627	1809.556971257336	11.647576115931
4	630	1811.466415380161	0.813355274834
4	633	1823.681179391224	0.322279969962
4	636	1847.842081642937	0.075518274467
4	639	1852.571954863753	0.205738455701
4	642	1856.00581126244	1.830761319452
4	645	1872.512856396193	0.598399662954
4	648	1877.301810530348	0.519730976424
4	651	1913.42614262775	0.551744496087
4	657	1928.425753684477	0.156502934394
4	660	1941.05055211992	0.002914902455
4	663	1951.440388912813	0.211857548319
4	666	1967.110305962407	0.700890923175
4	669	1977.679206411979	0.674600508344
4	672	1990.665376294422	0.620816264348
4	675	2000.572292263483	1.244879438184
4	678	2006.548059588376	1.572255833848
4	681	2042.941679307625	4.195610939116
4	684	2049.967504789482	0.012531610723
4	690	2065.995312548321	2.077734973583
4	699	2083.931240924461	1.831691495145
4	702	2094.04537447487	0.691232375463
4	705	2101.990985168529	4.653538930752
4	708	2106.251716701288	0.112922367118
4	711	2107.295383247324	0.210337468615
4	717	2119.33958865046	2.444296226751
4	723	2130.481485161451	0.14462402342
4	729	2163.68976145983	0.453997947527
4	735	2175.479562206185	0.199786019758
4	741	2179.044109619182	0.256943229992
4	744	2207.077065319923	0.030237557864
4	750	2252.498548466102	2.059104637288
4	775	2289.795513698475	16.708136051172
4	776	2289.978174986896	9.864938164127
4	777	2290.418814145899	1.857102164327
4	790	2306.861676297131	13.184768780699
4	791	2306.902485459408	1.469169930345
4	792	2307.807339948574	1.899325703547
4	798	2355.583051520647	3.327321603939
4	801	2369.501568071388	0.829935552225
4	804	2371.193905132343	0.443754864845
4	809	2389.158967783838	3.192592700656
4	810	2389.186428488283	2.947961073423
4	813	2416.600381808169	0.60374411298
4	819	2429.193521244633	0.788571670352
4	834	2476.455214550742	5.433984811986
4	837	2478.969315173583	1.501419129713
4	840	2487.746144887716	1.429484474267
5	134	380.659473743649	0
5	137	395.971694417465	0
5	143	404.35044228479	0
5	146	410.037356174797	0
5	152	425.519679098172	0
5	170	493.340900375065	0
5	177	497.343256993037	3.884534456026
5	180	507.382212517379	10.639617907797
5	185	528.19901631415	9.091191513881
5	190	536.426401311064	12.37600596905
5	191	539.170689120828	10.405232780668
5	192	540.352786707115	4.610173866416
5	206	589.672238161967	0
5	212	598.144708626378	0
5	215	607.520627601297	0
5	236	702.49001005566	0
5	245	730.410353463151	0
5	248	735.549137058382	0
5	260	764.354773011734	0
5	281	838.86047744023	0
5	296	879.741882111558	0
5	311	912.400138828223	30.286821268238
5	316	921.070329296056	36.623836807113
5	317	923.40267452721	35.15707145627
5	318	924.902489718161	29.520759608359
5	321	932.048713594354	4.530735288159
5	329	940.401529101434	0
5	341	990.909014986853	0
5	346	1013.261047276616	0
5	353	1028.545887104851	0
5	359	1034.503025313914	0
5	362	1049.008629362638	12.473857359244
5	365	1060.691130510771	0
5	368	1063.19383248497	0
5	371	1084.594332712561	0
5	374	1090.754167319039	0
5	377	1094.772215871149	0
5	383	1120.122180825996	0
5	386	1127.896198946203	0
5	389	1131.760926742106	0.128441986649
5	404	1175.335185131008	0
5	428	1256.60543472736	0
5	431	1258.763315349335	0.417307675363
5	434	1262.621510660641	3.73209808865
5	440	1286.342301461403	0
5	445	1291.819800142919	5.244858323629
5	446	1300.424050904807	12.561537383275
5	449	1337.223720075614	0
5	455	1363.520401318974	0
5	467	1406.512882744487	0
5	470	1433.648475926042	0
5	473	1438.794721704304	3.447395583783
5	476	1447.557597908397	1.72814283045
5	488	1469.693661528508	0
5	509	1564.774017558306	0
5	512	1588.196429206383	0
5	518	1600.231040489507	0
5	545	1682.208424127058	0
5	551	1686.419845939918	0
5	563	1707.679710106683	0
5	568	1716.958409134834	0.612932664809
5	575	1720.55581185757	0
5	590	1745.64792178764	0
5	596	1779.449199170603	0
5	601	1788.294956596051	0
5	613	1797.29918631301	0
5	620	1801.74388705332	3.384730840044
5	623	1807.692228606044	8.519456824053
5	624	1808.587849645731	1.821498911829
5	653	1917.923427135827	0
5	686	2052.509094390919	0
5	692	2075.308674587472	0
5	697	2082.099549429316	0
5	713	2108.685862315649	0
5	719	2121.076209533676	0
5	725	2142.723683495446	0
5	731	2169.304437475917	0
5	737	2177.228225124877	0
5	746	2234.76196218177	0
5	752	2260.983183628547	0
5	755	2264.84038493309	0
5	766	2283.206722107264	14.305274001054
5	767	2285.284308520998	11.607018913349
5	770	2287.284949918914	1.565517212559
5	773	2288.561711981572	0
5	779	2293.558850252091	0
5	784	2300.831194536723	2.591257273801
5	794	2312.094400186417	0
5	815	2421.021190455418	0
5	821	2446.030079873069	0
5	828	2459.034855035252	7.340378774251
5	829	2466.40580995597	10.727392294524
5	830	2468.470880738175	10.460592240114
6	346	1013.261047276616	1
6	601	1788.294956596051	2
6	613	1797.29918631301	3
6	697	2082.099549429316	4
6	773	2288.561711981572	5
7	841	2500	0.0668
8	841	2500	0.0452

