version 2
run experiments_medium_game_mode1-580-20230311-09:41:57-11588
attr configname experiments_medium_game_mode1
attr datetime 20230311-09:41:57
attr experiment experiments_medium_game_mode1
attr inifile omnetpp.ini
attr iterationvars "$0=5.5, $1=7, $2=100"
attr iterationvarsf 5.5,7,100-
attr measurement "$0=5.5, $1=7, $2=100"
attr network Network
attr processid 11588
attr repetition 10
attr replication #10
attr resultdir results
attr runnumber 580
attr seedset 10
param *.boss.arrival_mean 20
param *.boss.service_mean 5.5
param *.minion.arrival_mean 10
param *.minion.service_mean 7
param *.player.recover_rate_x 100
param **.minion.arrival_distribution 0
param **.minion.service_distribution 0
param **.boss.arrival_distribution 0
param **.boss.service_distribution 0

vector 0 Network.player boss_defeated_stat:vector ETV
attr source signal_boss_defeated
vector 1 Network.player boss_jobs_queue_number_stat:vector ETV
attr source signal_boss_jobs_queue_number
vector 2 Network.player boss_response_time_stat:vector ETV
attr source signal_boss_response_time
vector 3 Network.player boss_waiting_time_stat:vector ETV
attr source signal_boss_waiting_time
vector 4 Network.player minion_waiting_time_stat:vector ETV
attr source signal_minion_waiting_time
vector 5 Network.player minion_defeated_stat:vector ETV
attr source signal_minion_defeated
vector 6 Network.player minion_jobs_queue_number_stat:vector ETV
attr source signal_minion_jobs_queue_number
vector 7 Network.player minion_response_time_stat:vector ETV
attr source signal_minion_response_time
vector 8 Network.player minion_jobs_number_stat:vector ETV
attr source signal_minion_jobs_number
vector 9 Network.player boss_jobs_number_stat:vector ETV
attr source signal_boss_jobs_number
vector 10 Network.player minion_recovered_stat:vector ETV
attr source signal_minion_recovered
vector 11 Network.player minion_throughput:vector ETV
attr source signal_minion_throughput
vector 12 Network.player boss_throughput:vector ETV
attr source signal_boss_throughput
0	172	352.526025159433	21
0	173	353.402873297123	22
0	199	428.732782918553	23
0	209	445.489309985321	24
0	219	482.770242702355	25
0	240	540.419290448398	26
0	245	542.042856973811	27
0	254	559.0673670155	28
0	257	570.148590146707	29
0	291	647.315080699414	30
0	292	648.688878678355	31
0	302	671.893648314803	32
0	305	676.234541820733	33
0	312	697.078954298728	34
0	318	709.264419711212	35
0	319	710.28182783495	36
0	322	719.06601139986	37
0	327	722.05094107776	38
0	336	736.169617194855	39
0	347	746.679219581472	40
0	362	770.180578418704	41
0	369	775.510570388906	42
0	374	795.072018835092	43
0	375	797.91622750248	44
0	376	800.593330859849	45
0	402	865.056741169314	46
0	411	882.050542347325	47
0	414	886.504588835472	48
0	415	889.750438660138	49
0	418	892.831597156845	50
0	426	919.028815504341	51
0	434	933.03023057624	52
0	437	937.130954442327	53
0	441	947.736898171147	54
0	451	973.245176735401	55
0	469	1043.710311667409	56
0	475	1062.398738282205	57
0	490	1081.839071546696	58
0	491	1083.512306725356	59
0	503	1115.515276535993	60
0	508	1132.028440274096	61
0	524	1157.814473078639	62
0	527	1162.856629482051	63
0	541	1173.758758842895	64
0	542	1177.308973637607	65
0	549	1186.888008329813	66
0	579	1237.17226266232	67
0	589	1289.600593429456	68
0	631	1377.080043594889	69
0	632	1379.859364874386	70
0	647	1418.815700419041	71
0	660	1430.222037803611	72
0	663	1443.475101177778	73
0	672	1461.671164670755	74
0	675	1465.768548497259	75
0	678	1474.487769300636	76
0	679	1475.091867385429	77
0	680	1475.785285793636	78
0	681	1476.882903843428	79
0	702	1508.703420352309	80
0	705	1525.524971551452	81
0	706	1526.441249074463	82
0	710	1531.475540192718	83
0	721	1567.896322425686	84
0	730	1578.910662762446	85
0	733	1584.075395844943	86
0	743	1623.024127135013	87
0	749	1628.50053136836	88
0	758	1638.250328750289	89
0	767	1652.279353117469	90
0	770	1660.321658924552	91
0	786	1701.516377694226	92
0	789	1714.004543613212	93
0	790	1714.80105198812	94
0	797	1721.209323993069	95
0	804	1733.574231301606	96
0	813	1743.271402863109	97
0	823	1770.874409615085	98
0	826	1798.633836799653	99
0	831	1802.81501640552	100
0	844	1839.093503476522	101
0	855	1870.738123089568	102
0	867	1901.7973828354	103
0	877	1915.612745790573	104
0	893	1971.131822426594	105
0	907	1984.892658470379	106
0	927	2024.62037307272	107
0	948	2076.524490127246	108
0	960	2099.320754167341	109
0	976	2122.7471478184	110
0	998	2171.956934837882	111
0	1002	2177.347591225674	112
0	1005	2185.014480839652	113
0	1013	2198.969597766787	114
0	1016	2206.886162262632	115
0	1026	2223.116638547283	116
0	1027	2228.289282160983	117
0	1046	2280.791263496515	118
0	1055	2292.931236180681	119
0	1079	2335.446432190663	120
0	1084	2336.998328684592	121
0	1097	2372.422765456039	122
0	1098	2373.644293134031	123
0	1111	2397.614448073582	124
0	1125	2429.117222608811	125
0	1133	2442.05689366915	126
0	1136	2448.766187043213	127
1	172	352.526025159433	1
1	173	353.402873297123	0
1	198	419.824288542282	0
1	199	428.732782918553	0
1	208	445.426883461239	0
1	209	445.489309985321	0
1	218	481.155473799364	0
1	219	482.770242702355	0
1	239	536.946986058516	0
1	240	540.419290448398	0
1	242	541.720738592907	0
1	244	541.736319955185	1
1	245	542.042856973811	1
1	247	545.749899725905	1
1	254	559.0673670155	1
1	257	570.148590146707	0
1	286	642.852204457678	0
1	288	646.904432915695	1
1	291	647.315080699414	1
1	292	648.688878678355	0
1	301	666.123998518003	0
1	302	671.893648314803	0
1	304	673.379073049835	0
1	305	676.234541820733	0
1	311	692.296201596188	0
1	312	697.078954298728	0
1	315	707.174758416955	0
1	317	707.316586279335	1
1	318	709.264419711212	1
1	319	710.28182783495	0
1	321	718.627327699064	0
1	322	719.06601139986	0
1	324	719.093978241006	0
1	327	722.05094107776	0
1	329	725.978438086876	0
1	336	736.169617194855	0
1	342	740.857761909457	0
1	347	746.679219581472	0
1	353	759.785179545867	0
1	361	769.99705848	1
1	362	770.180578418704	1
1	366	773.001749095169	1
1	368	773.957541426202	2
1	369	775.510570388906	2
1	373	780.867851638882	2
1	374	795.072018835092	2
1	375	797.91622750248	1
1	376	800.593330859849	0
1	391	853.673845421965	0
1	395	862.799389841877	1
1	402	865.056741169314	1
1	404	868.098797839271	1
1	410	880.277491819915	2
1	411	882.050542347325	2
1	413	882.177038103687	2
1	414	886.504588835472	2
1	415	889.750438660138	1
1	418	892.831597156845	0
1	425	912.935758198835	0
1	426	919.028815504341	0
1	431	932.202672012874	0
1	434	933.03023057624	0
1	436	936.657389288969	0
1	437	937.130954442327	0
1	440	946.297682443241	0
1	441	947.736898171147	0
1	446	960.738265453186	0
1	451	973.245176735401	0
1	468	1042.502595974247	0
1	469	1043.710311667409	0
1	474	1060.452690583967	0
1	475	1062.398738282205	0
1	481	1073.028472791389	0
1	483	1073.979749661901	1
1	490	1081.839071546696	1
1	491	1083.512306725356	0
1	502	1113.293494763991	0
1	503	1115.515276535993	0
1	507	1132.000155132253	0
1	508	1132.028440274096	0
1	521	1154.808071207918	0
1	524	1157.814473078639	0
1	526	1158.547296278815	0
1	527	1162.856629482051	0
1	532	1170.522199205898	0
1	536	1171.867477851254	1
1	538	1172.13455232041	2
1	541	1173.758758842895	2
1	542	1177.308973637607	1
1	549	1186.888008329813	0
1	578	1231.608305717097	0
1	579	1237.17226266232	0
1	588	1288.624242739881	0
1	589	1289.600593429456	0
1	628	1356.036850805122	0
1	630	1372.606487445524	1
1	631	1377.080043594889	1
1	632	1379.859364874386	0
1	644	1405.653119015198	0
1	646	1415.389328740932	1
1	647	1418.815700419041	1
1	651	1422.655085990457	1
1	653	1422.976987813847	2
1	657	1425.03253417898	3
1	660	1430.222037803611	3
1	662	1430.283059070374	3
1	663	1443.475101177778	3
1	669	1453.338074498799	3
1	671	1458.853815662555	4
1	672	1461.671164670755	4
1	675	1465.768548497259	3
1	677	1470.455632448849	3
1	678	1474.487769300636	3
1	679	1475.091867385429	2
1	680	1475.785285793636	1
1	681	1476.882903843428	0
1	693	1493.449335598144	0
1	695	1496.052380205525	1
1	702	1508.703420352309	1
1	704	1514.884379549808	1
1	705	1525.524971551452	1
1	706	1526.441249074463	0
1	709	1528.555324124831	0
1	710	1531.475540192718	0
1	718	1564.373909976404	0
1	720	1565.073784446035	1
1	721	1567.896322425686	1
1	723	1568.88161662372	1
1	730	1578.910662762446	1
1	733	1584.075395844943	0
1	742	1616.890074396541	0
1	743	1623.024127135013	0
1	746	1626.810805176556	0
1	749	1628.50053136836	0
1	753	1632.799960695581	0
1	757	1636.823592669957	1
1	758	1638.250328750289	1
1	767	1652.279353117469	0
1	769	1658.548708404319	0
1	770	1660.321658924552	0
1	777	1686.708174305305	0
1	779	1694.179105853179	1
1	786	1701.516377694226	1
1	788	1705.252233173425	1
1	789	1714.004543613212	1
1	790	1714.80105198812	0
1	796	1719.93445107556	0
1	797	1721.209323993069	0
1	799	1724.59685573388	0
1	804	1733.574231301606	0
1	812	1740.42133159935	0
1	813	1743.271402863109	0
1	816	1757.194056480443	0
1	818	1761.281828584842	1
1	820	1761.918109262225	2
1	823	1770.874409615085	2
1	826	1798.633836799653	1
1	831	1802.81501640552	0
1	843	1831.77425238343	0
1	844	1839.093503476522	0
1	854	1868.713537013691	0
1	855	1870.738123089568	0
1	866	1898.558444776125	0
1	867	1901.7973828354	0
1	876	1910.506246022932	0
1	877	1915.612745790573	0
1	892	1966.608133512492	0
1	893	1971.131822426594	0
1	902	1976.663636876505	0
1	907	1984.892658470379	0
1	926	2021.706676798273	0
1	927	2024.62037307272	0
1	947	2073.959348802285	0
1	948	2076.524490127246	0
1	955	2092.180436930985	0
1	960	2099.320754167341	0
1	973	2118.166042985004	0
1	976	2122.7471478184	0
1	997	2169.154750841632	0
1	998	2171.956934837882	0
1	1001	2177.061307273094	0
1	1002	2177.347591225674	0
1	1004	2178.914416394662	0
1	1005	2185.014480839652	0
1	1012	2195.814478513715	0
1	1013	2198.969597766787	0
1	1015	2200.177172437229	0
1	1016	2206.886162262632	0
1	1021	2214.891347264506	0
1	1023	2215.816986545285	1
1	1026	2223.116638547283	1
1	1027	2228.289282160983	0
1	1045	2280.78927417951	0
1	1046	2280.791263496515	0
1	1054	2288.659915777357	0
1	1055	2292.931236180681	0
1	1076	2325.886460952761	0
1	1079	2335.446432190663	0
1	1081	2335.729066720743	0
1	1084	2336.998328684592	0
1	1090	2363.241703758442	0
1	1092	2369.572912620892	1
1	1097	2372.422765456039	1
1	1098	2373.644293134031	0
1	1106	2385.090107213244	0
1	1111	2397.614448073582	0
1	1122	2420.381264551342	0
1	1125	2429.117222608811	0
1	1132	2438.055371942036	0
1	1133	2442.05689366915	0
1	1135	2446.879911890008	0
1	1136	2448.766187043213	0
2	172	352.526025159433	3.934186697983
2	173	353.402873297123	3.6497308373
2	199	428.732782918553	8.908494376271
2	209	445.489309985321	0.062426524082
2	219	482.770242702355	1.614768902991
2	240	540.419290448398	3.472304389882
2	245	542.042856973811	0.322118380904
2	254	559.0673670155	17.331047060315
2	257	570.148590146707	24.398690420802
2	291	647.315080699414	4.462876241736
2	292	648.688878678355	1.78444576266
2	302	671.893648314803	5.7696497968
2	305	676.234541820733	2.855468770898
2	312	697.078954298728	4.78275270254
2	318	709.264419711212	2.089661294257
2	319	710.28182783495	2.965241555615
2	322	719.06601139986	0.438683700796
2	327	722.05094107776	2.956962836754
2	336	736.169617194855	10.191179107979
2	347	746.679219581472	5.821457672015
2	362	770.180578418704	10.395398872837
2	369	775.510570388906	5.513511908906
2	374	795.072018835092	22.070269739923
2	375	797.91622750248	23.958686076278
2	376	800.593330859849	19.725479220967
2	402	865.056741169314	11.382895747349
2	411	882.050542347325	19.251152505448
2	414	886.504588835472	18.405790996201
2	415	889.750438660138	9.472946840223
2	418	892.831597156845	10.654559053158
2	426	919.028815504341	6.093057305506
2	434	933.03023057624	0.827558563366
2	437	937.130954442327	0.473565153358
2	441	947.736898171147	1.439215727906
2	451	973.245176735401	12.506911282215
2	469	1043.710311667409	1.207715693162
2	475	1062.398738282205	1.946047698238
2	490	1081.839071546696	8.810598755307
2	491	1083.512306725356	9.532557063455
2	503	1115.515276535993	2.221781772002
2	508	1132.028440274096	0.028285141843
2	524	1157.814473078639	3.006401870721
2	527	1162.856629482051	4.309333203236
2	541	1173.758758842895	3.236559636997
2	542	1177.308973637607	5.441495786353
2	549	1186.888008329813	14.753456009403
2	579	1237.17226266232	5.563956945223
2	589	1289.600593429456	0.976350689575
2	631	1377.080043594889	21.043192789767
2	632	1379.859364874386	7.252877428862
2	647	1418.815700419041	13.162581403843
2	660	1430.222037803611	14.832709062679
2	663	1443.475101177778	20.820015187321
2	672	1461.671164670755	38.694176856908
2	675	1465.768548497259	40.736014318279
2	678	1474.487769300636	44.204710230262
2	679	1475.091867385429	21.75379288663
2	680	1475.785285793636	16.931470131081
2	681	1476.882903843428	6.427271394579
2	702	1508.703420352309	15.254084754165
2	705	1525.524971551452	29.472591345927
2	706	1526.441249074463	11.556869524655
2	710	1531.475540192718	2.920216067887
2	721	1567.896322425686	3.522412449282
2	730	1578.910662762446	13.836878316411
2	733	1584.075395844943	15.193779221223
2	743	1623.024127135013	6.134052738472
2	749	1628.50053136836	1.689726191804
2	758	1638.250328750289	5.450368054708
2	767	1652.279353117469	15.455760447512
2	770	1660.321658924552	1.772950520233
2	786	1701.516377694226	14.808203388921
2	789	1714.004543613212	19.825437760033
2	790	1714.80105198812	9.548818814695
2	797	1721.209323993069	1.274872917509
2	804	1733.574231301606	8.977375567726
2	813	1743.271402863109	2.850071263759
2	823	1770.874409615085	13.680353134642
2	826	1798.633836799653	37.352008214811
2	831	1802.81501640552	40.896907143295
2	844	1839.093503476522	7.319251093092
2	855	1870.738123089568	2.024586075877
2	867	1901.7973828354	3.238938059275
2	877	1915.612745790573	5.106499767641
2	893	1971.131822426594	4.523688914102
2	907	1984.892658470379	8.229021593874
2	927	2024.62037307272	2.913696274447
2	948	2076.524490127246	2.565141324961
2	960	2099.320754167341	7.140317236356
2	976	2122.7471478184	4.581104833396
2	998	2171.956934837882	2.80218399625
2	1002	2177.347591225674	0.28628395258
2	1005	2185.014480839652	6.10006444499
2	1013	2198.969597766787	3.155119253072
2	1016	2206.886162262632	6.708989825403
2	1026	2223.116638547283	8.225291282777
2	1027	2228.289282160983	12.472295615698
2	1046	2280.791263496515	0.001989317005
2	1055	2292.931236180681	4.271320403324
2	1079	2335.446432190663	9.559971237902
2	1084	2336.998328684592	1.269261963849
2	1097	2372.422765456039	9.181061697597
2	1098	2373.644293134031	4.071380513139
2	1111	2397.614448073582	12.524340860338
2	1125	2429.117222608811	8.735958057469
2	1133	2442.05689366915	4.001521727114
2	1136	2448.766187043213	1.886275153205
3	172	352.526025159433	2.77288269961
3	198	419.824288542282	0
3	208	445.426883461239	0
3	218	481.155473799364	0
3	239	536.946986058516	0
3	242	541.720738592907	0
3	245	542.042856973811	0.306537018626
3	254	559.0673670155	13.317467289595
3	286	642.852204457678	0
3	291	647.315080699414	0.410647783719
3	301	666.123998518003	0
3	304	673.379073049835	0
3	311	692.296201596188	0
3	315	707.174758416955	0
3	318	709.264419711212	1.947833431877
3	321	718.627327699064	0
3	324	719.093978241006	0
3	329	725.978438086876	0
3	342	740.857761909457	0
3	353	759.785179545867	0
3	362	770.180578418704	0.183519938704
3	369	775.510570388906	2.508821293737
3	374	795.072018835092	21.11447740889
3	375	797.91622750248	17.048375863598
3	391	853.673845421965	0
3	402	865.056741169314	2.257351327437
3	411	882.050542347325	13.951744508054
3	414	886.504588835472	6.227097015557
3	415	889.750438660138	7.573400556451
3	425	912.935758198835	0
3	431	932.202672012874	0
3	436	936.657389288969	0
3	440	946.297682443241	0
3	446	960.738265453186	0
3	468	1042.502595974247	0
3	474	1060.452690583967	0
3	481	1073.028472791389	0
3	490	1081.839071546696	7.859321884795
3	502	1113.293494763991	0
3	507	1132.000155132253	0
3	521	1154.808071207918	0
3	526	1158.547296278815	0
3	532	1170.522199205898	0
3	541	1173.758758842895	1.891280991641
3	542	1177.308973637607	5.174421317197
3	578	1231.608305717097	0
3	588	1288.624242739881	0
3	628	1356.036850805122	0
3	631	1377.080043594889	4.473556149365
3	644	1405.653119015198	0
3	647	1418.815700419041	3.426371678109
3	660	1430.222037803611	7.566951813154
3	663	1443.475101177778	20.498113363931
3	672	1461.671164670755	36.638630491775
3	675	1465.768548497259	35.485489426885
3	678	1474.487769300636	21.149694801837
3	679	1475.091867385429	16.238051722874
3	680	1475.785285793636	5.329653344787
3	693	1493.449335598144	0
3	702	1508.703420352309	12.651040146784
3	705	1525.524971551452	10.640592001644
3	709	1528.555324124831	0
3	718	1564.373909976404	0
3	721	1567.896322425686	2.822537979651
3	730	1578.910662762446	10.029046138726
3	742	1616.890074396541	0
3	746	1626.810805176556	0
3	753	1632.799960695581	0
3	758	1638.250328750289	1.426736080332
3	769	1658.548708404319	0
3	777	1686.708174305305	0
3	786	1701.516377694226	7.337271841047
3	789	1714.004543613212	8.752310439787
3	796	1719.93445107556	0
3	799	1724.59685573388	0
3	812	1740.42133159935	0
3	816	1757.194056480443	0
3	823	1770.874409615085	9.592581030243
3	826	1798.633836799653	36.715727537428
3	843	1831.77425238343	0
3	854	1868.713537013691	0
3	866	1898.558444776125	0
3	876	1910.506246022932	0
3	892	1966.608133512492	0
3	902	1976.663636876505	0
3	926	2021.706676798273	0
3	947	2073.959348802285	0
3	955	2092.180436930985	0
3	973	2118.166042985004	0
3	997	2169.154750841632	0
3	1001	2177.061307273094	0
3	1004	2178.914416394662	0
3	1012	2195.814478513715	0
3	1015	2200.177172437229	0
3	1021	2214.891347264506	0
3	1026	2223.116638547283	7.299652001998
3	1045	2280.78927417951	0
3	1054	2288.659915777357	0
3	1076	2325.886460952761	0
3	1081	2335.729066720743	0
3	1090	2363.241703758442	0
3	1097	2372.422765456039	2.849852835147
3	1106	2385.090107213244	0
3	1122	2420.381264551342	0
3	1132	2438.055371942036	0
3	1135	2446.879911890008	0
4	173	353.402873297123	4.062729647082
4	176	367.376450425266	0
4	179	384.176460755635	0
4	182	387.702843983132	1.266805295677
4	185	391.952056832985	0
4	188	400.962881925675	7.096766103716
4	191	407.522381141807	3.048406916979
4	194	412.468385547024	2.031536903973
4	199	428.732782918553	9.770521157379
4	202	436.790881059102	16.96659251682
4	203	439.98680361487	9.944132563136
4	206	443.821143781387	2.37733649774
4	209	445.489309985321	0.062426524082
4	212	473.00260902335	0
4	215	476.507675947248	1.138397867511
4	221	493.286867919828	0
4	224	501.939221806893	0
4	227	509.038289566614	0
4	230	518.619025209951	0
4	233	528.562184431506	0
4	236	531.830084463069	1.420597842597
4	257	570.148590146707	21.718902908829
4	260	576.281454266229	23.429263419911
4	263	584.694849206286	25.912686550218
4	264	585.432616809532	25.64749175778
4	271	606.073829945978	31.921646654909
4	276	615.539837282677	33.762696549452
4	277	622.370185557334	30.46166209041
4	278	622.978231279183	27.732346359494
4	279	625.73438116058	25.989687416279
4	280	626.678899340793	12.623926185531
4	281	627.245026488256	13.043235348557
4	284	639.373022439287	0
4	292	648.688878678355	5.836674220677
4	293	652.045644966856	4.864091539366
4	296	659.254356028234	0.842011280858
4	299	663.652903023125	1.411022082233
4	302	671.893648314803	5.7696497968
4	305	676.234541820733	2.855468770898
4	312	697.078954298728	17.343864628935
4	313	707.159791806486	25.858276935099
4	319	710.28182783495	17.985626238762
4	322	719.06601139986	11.891252982905
4	327	722.05094107776	3.423613378696
4	336	736.169617194855	17.075638953849
4	339	738.478455028442	18.724398157975
4	340	739.987833614824	14.009395527948
4	347	746.679219581472	18.964678766278
4	350	752.788899588887	24.225740937372
4	351	757.247775359948	26.608453507319
4	376	800.593330859849	62.541413791348
4	379	810.956399579426	70.098637669969
4	418	892.831597156845	149.68838483214
4	419	903.734139802452	157.69027259707
4	422	910.003622645757	161.21488426497
4	423	911.725711419746	151.94053187388
4	426	919.028815504341	157.85533971972
4	427	929.264101241901	167.71719022642
4	434	933.03023057624	170.8704695142
4	437	937.130954442327	166.56527835994
4	438	946.079331066743	167.02294267655
4	441	947.736898171147	143.07151043635
4	442	950.7947041945	129.65322707486
4	443	951.530189732391	128.4157197244
4	444	955.852368894344	126.01846633643
4	451	973.245176735401	131.26842736214
4	452	975.206857078212	130.4528972684
4	453	980.77862660835	127.10478118638
4	454	987.030486401158	129.54641272732
4	457	989.355955142758	125.2654290854
4	458	992.596524738967	128.19043126446
4	459	1004.848757244085	140.43870672847
4	460	1005.244597234379	132.09204463869
4	461	1019.765593185993	139.58507252514
4	462	1031.105122516571	138.96198922038
4	463	1032.183457545804	126.28231340895
4	464	1032.813846404583	119.87808820575
4	469	1043.710311667409	113.74597912988
4	470	1046.010538533257	113.80786652038
4	471	1046.091237986802	113.07416209809
4	472	1049.840369106726	113.18297981776
4	475	1062.398738282205	116.10105583896
4	491	1083.512306725356	122.77404127217
4	492	1088.888008565606	121.84955619497
4	493	1094.101584998538	123.33482341385
4	496	1101.259924093113	112.43075262232
4	503	1115.515276535993	81.802323296336
4	504	1117.489673933601	74.987077959354
4	505	1124.594466017567	64.1417754336
4	508	1132.028440274096	68.131336476443
4	511	1138.485604499319	71.280547008185
4	512	1141.733531813099	68.70505902171
4	515	1148.409256019962	74.145408998862
4	524	1157.814473078639	81.744050893496
4	527	1162.856629482051	84.62330665429
4	528	1165.18143187878	64.360798823295
4	529	1166.451103759445	64.90858291764
4	530	1168.716759229754	57.374425430637
4	549	1186.888008329813	73.594513565822
4	554	1194.115800615622	62.115645483369
4	555	1197.109690078691	59.758028012445
4	558	1198.299291013366	54.541482618273
4	559	1202.686401288122	53.963860330169
4	562	1210.316503425263	59.710903133476
4	565	1211.617405920445	56.809334712527
4	570	1214.886683594478	59.035712546314
4	579	1237.17226266232	78.624966383505
4	580	1247.196926819482	76.674727613584
4	583	1253.505422827594	81.741210806785
4	584	1258.809711815652	85.171293822687
4	585	1266.814719217073	83.770731675759
4	586	1277.586716057986	93.123115759303
4	589	1289.600593429456	103.30590257243
4	592	1291.624240014059	98.196446462449
4	601	1308.598030473136	114.64580145175
4	602	1315.807033628798	117.68836887932
4	607	1327.631724926143	123.39038168722
4	608	1328.199268127588	117.85294763891
4	613	1340.592591873627	126.25996792226
4	616	1341.65747618219	126.82663501867
4	617	1341.849772769945	121.90068584776
4	620	1346.401748854572	123.48745305276
4	621	1348.331541461071	125.03827066072
4	626	1352.817174607496	121.2088688904
4	632	1379.859364874386	131.17116003743
4	633	1382.027206050971	93.40296331109
4	636	1387.184741008451	96.286610885098
4	637	1390.069464196249	98.246302073087
4	638	1393.418102114035	98.841699570508
4	639	1399.428231544291	95.358086862736
4	642	1403.995650662518	98.154735519004
4	681	1476.882903843428	157.12574224303
4	682	1479.597164813133	156.16421893886
4	691	1489.928816579014	160.18019301287
4	706	1526.441249074463	195.7587432392
4	707	1527.405343324884	186.68683131937
4	710	1531.475540192718	186.28809961823
4	711	1532.467707651769	181.68173892111
4	712	1535.969798612037	185.09761776122
4	713	1540.931824317835	184.89497351271
4	714	1545.29321963712	162.68619744451
4	715	1551.336831106311	150.42018868124
4	716	1560.832056340394	155.1789373252
4	733	1584.075395844943	161.96803924115
4	734	1587.400446453113	162.42883188718
4	739	1611.643680417174	185.41415172625
4	740	1613.2381063358	161.76640263266
4	743	1623.024127135013	170.74629285045
4	744	1626.194458755399	163.2292850811
4	749	1628.50053136836	142.98400811976
4	767	1652.279353117469	164.55681466365
4	770	1660.321658924552	172.4775632312
4	771	1669.677981469973	179.75857455078
4	774	1679.935671650049	186.4863360519
4	775	1680.876159096306	177.2626633692
4	790	1714.80105198812	210.49782397777
4	791	1716.534634236422	210.79591025409
4	794	1717.273783453122	188.71845932829
4	797	1721.209323993069	156.83541401666
4	804	1733.574231301606	161.79441957892
4	809	1737.365125681214	163.98652561577
4	810	1738.826757277407	163.95938253387
4	813	1743.271402863109	162.32130132175
4	814	1748.336658321285	158.92464602615
4	831	1802.81501640552	196.04012486394
4	834	1816.351310756799	199.46123636026
4	839	1822.618430185067	195.80762500851
4	844	1839.093503476522	212.18245026466
4	851	1866.401023250245	234.35340023572
4	852	1866.63310120673	233.83314051115
4	855	1870.738123089568	236.93541815755
4	858	1874.386391852342	229.83884723704
4	859	1875.879247413466	230.67942614763
4	864	1895.007035146009	244.96916994832
4	867	1901.7973828354	251.5143785765
4	872	1908.568995534174	250.02028712986
4	877	1915.612745790573	238.40892711919
4	880	1925.801949529209	239.0937752239
4	881	1929.600635287117	235.37238184069
4	884	1930.232705282682	234.4798551623
4	885	1935.467226546445	238.53865855598
4	886	1938.580691318935	221.51339350366
4	887	1955.389048782487	235.45459770693
4	888	1959.587311558371	234.99045582449
4	893	1971.131822426594	245.39379949456
4	898	1975.10038684313	242.56658442183
4	907	1984.892658470379	249.17361104536
4	910	1985.932160956601	248.78507738975
4	913	1990.678972288401	250.25764068905
4	914	2000.258131576209	243.06407509577
4	915	2008.171389431055	239.23863760072
4	916	2013.162121554497	223.3295829192
4	919	2017.789347963451	217.58742291762
4	920	2018.411130562317	217.01330664295
4	921	2019.533635471307	206.11636757236
4	924	2021.442915669332	200.59696361923
4	927	2024.62037307272	203.51137303065
4	930	2028.031023361846	203.58278456432
4	933	2033.334103167451	201.55985078402
4	934	2035.902038081664	184.13866209475
4	935	2040.295369638423	186.53226858716
4	936	2055.442374777751	193.82664041311
4	939	2059.501282003545	190.78774498985
4	942	2065.14048113845	192.53765994043
4	943	2066.067741480159	186.71166789328
4	944	2067.921995892828	181.2336342095
4	945	2068.34671716992	169.78827239379
4	948	2076.524490127246	174.08247107512
4	949	2080.100815335964	174.23950084924
4	950	2082.95653604636	173.17912805052
4	953	2091.409596707849	180.90335068492
4	960	2099.320754167341	177.13805873099
4	963	2106.571605104365	176.4129912181
4	964	2109.403836307443	145.49169498438
4	965	2112.450319772358	145.84218625987
4	970	2117.152654774106	143.83367817345
4	971	2117.542668901347	144.18135913378
4	976	2122.7471478184	147.63056569742
4	979	2125.607592840615	148.94395596411
4	980	2128.991532784656	151.41856571139
4	981	2131.716516086879	152.63988089558
4	982	2132.614048333039	147.35210504215
4	983	2133.919276318906	144.61582145867
4	986	2141.461483713285	126.10680177974
4	987	2144.365649216758	123.81720999527
4	988	2147.926944698132	126.22026789986
4	991	2153.705592954516	127.97977821738
4	992	2159.500573919352	127.48148943076
4	993	2161.824220257865	106.32159999126
4	998	2171.956934837882	111.38143125419
4	999	2173.288300161685	99.3289513594
4	1002	2177.347591225674	92.637884847532
4	1005	2185.014480839652	92.834043908667
4	1008	2189.567282721708	96.627438172872
4	1009	2191.383547946179	92.346458531236
4	1010	2194.324858842624	91.733721231605
4	1013	2198.969597766787	82.600817502365
4	1016	2206.886162262632	90.403561213863
4	1017	2207.550478243601	89.384435258597
4	1018	2210.568774572725	91.244710931013
4	1019	2213.383021340026	89.70874669477
4	1027	2228.289282160983	90.2485992156
4	1028	2230.297925064138	79.41228708609
4	1029	2235.529649699361	68.162535027157
4	1032	2242.858221888078	73.703471046446
4	1033	2244.955862178547	67.894554905453
4	1034	2251.89647631028	72.982059915618
4	1037	2263.268119279932	77.233225282055
4	1038	2266.171746837633	70.357268323918
4	1041	2279.961380536027	79.784208098798
4	1046	2280.791263496515	65.899916232009
4	1055	2292.931236180681	71.70415625036
4	1056	2296.629021306347	57.739751703695
4	1059	2299.938861980027	45.45579388219
4	1060	2300.560883590928	29.485473674179
4	1061	2304.67094456333	23.899118459964
4	1064	2310.850484028918	30.061209849408
4	1073	2320.630799360333	36.76671466434
4	1074	2323.814004911716	39.444255070426
4	1079	2335.446432190663	47.003936333781
4	1084	2336.998328684592	48.338412907235
4	1087	2343.024982598819	45.444736574131
4	1088	2344.790820643751	35.009010781336
4	1098	2373.644293134031	60.871480379159
4	1099	2375.094463564168	61.573140335913
4	1100	2376.020313095556	57.68774564186
4	1111	2397.614448073582	78.745895621407
4	1116	2418.052196348333	92.165735395572
4	1119	2418.526690447174	90.619959014171
4	1120	2419.222028046341	83.492961325598
4	1125	2429.117222608811	92.251322175077
4	1128	2434.453177285147	94.649352785916
4	1133	2442.05689366915	78.815189910708
4	1136	2448.766187043213	77.618420223205
4	1137	2450.293774469284	79.141740089317
4	1138	2451.292169122116	70.404965340411
4	1147	2474.330853446664	91.141869186857
4	1150	2474.649036017084	89.55892880384
5	174	354.399787651597	36
5	177	376.949647873878	37
5	182	387.702843983132	38
5	183	391.25780361572	39
5	188	400.962881925675	40
5	191	407.522381141807	41
5	194	412.468385547024	42
5	202	436.790881059102	43
5	203	439.98680361487	44
5	206	443.821143781387	45
5	210	450.924166260828	46
5	215	476.507675947248	47
5	216	480.352903277366	48
5	222	495.136655710918	49
5	225	503.914045272701	50
5	228	513.117857558481	51
5	231	526.985064922843	52
5	236	531.830084463069	53
5	237	532.64313828103	54
5	260	576.281454266229	55
5	263	584.694849206286	56
5	264	585.432616809532	57
5	271	606.073829945978	58
5	276	615.539837282677	59
5	277	622.370185557334	60
5	278	622.978231279183	61
5	279	625.73438116058	62
5	280	626.678899340793	63
5	281	627.245026488256	64
5	282	629.974493053965	65
5	293	652.045644966856	66
5	296	659.254356028234	67
5	299	663.652903023125	68
5	313	707.159791806486	69
5	339	738.478455028442	70
5	340	739.987833614824	71
5	350	752.788899588887	72
5	351	757.247775359948	73
5	379	810.956399579426	74
5	419	903.734139802452	75
5	422	910.003622645757	76
5	423	911.725711419746	77
5	427	929.264101241901	78
5	438	946.079331066743	79
5	442	950.7947041945	80
5	443	951.530189732391	81
5	444	955.852368894344	82
5	452	975.206857078212	83
5	453	980.77862660835	84
5	454	987.030486401158	85
5	457	989.355955142758	86
5	458	992.596524738967	87
5	459	1004.848757244085	88
5	460	1005.244597234379	89
5	461	1019.765593185993	90
5	462	1031.105122516571	91
5	463	1032.183457545804	92
5	464	1032.813846404583	93
5	470	1046.010538533257	94
5	471	1046.091237986802	95
5	472	1049.840369106726	96
5	492	1088.888008565606	97
5	493	1094.101584998538	98
5	496	1101.259924093113	99
5	504	1117.489673933601	100
5	505	1124.594466017567	101
5	511	1138.485604499319	102
5	512	1141.733531813099	103
5	515	1148.409256019962	104
5	528	1165.18143187878	105
5	529	1166.451103759445	106
5	530	1168.716759229754	107
5	554	1194.115800615622	108
5	555	1197.109690078691	109
5	558	1198.299291013366	110
5	559	1202.686401288122	111
5	562	1210.316503425263	112
5	565	1211.617405920445	113
5	570	1214.886683594478	114
5	580	1247.196926819482	115
5	583	1253.505422827594	116
5	584	1258.809711815652	117
5	585	1266.814719217073	118
5	586	1277.586716057986	119
5	592	1291.624240014059	120
5	601	1308.598030473136	121
5	602	1315.807033628798	122
5	607	1327.631724926143	123
5	608	1328.199268127588	124
5	613	1340.592591873627	125
5	616	1341.65747618219	126
5	617	1341.849772769945	127
5	620	1346.401748854572	128
5	621	1348.331541461071	129
5	626	1352.817174607496	130
5	633	1382.027206050971	131
5	636	1387.184741008451	132
5	637	1390.069464196249	133
5	638	1393.418102114035	134
5	639	1399.428231544291	135
5	642	1403.995650662518	136
5	682	1479.597164813133	137
5	691	1489.928816579014	138
5	707	1527.405343324884	139
5	711	1532.467707651769	140
5	712	1535.969798612037	141
5	713	1540.931824317835	142
5	714	1545.29321963712	143
5	715	1551.336831106311	144
5	716	1560.832056340394	145
5	734	1587.400446453113	146
5	739	1611.643680417174	147
5	740	1613.2381063358	148
5	744	1626.194458755399	149
5	771	1669.677981469973	150
5	774	1679.935671650049	151
5	775	1680.876159096306	152
5	791	1716.534634236422	153
5	794	1717.273783453122	154
5	809	1737.365125681214	155
5	810	1738.826757277407	156
5	814	1748.336658321285	157
5	834	1816.351310756799	158
5	839	1822.618430185067	159
5	851	1866.401023250245	160
5	852	1866.63310120673	161
5	858	1874.386391852342	162
5	859	1875.879247413466	163
5	864	1895.007035146009	164
5	872	1908.568995534174	165
5	880	1925.801949529209	166
5	881	1929.600635287117	167
5	884	1930.232705282682	168
5	885	1935.467226546445	169
5	886	1938.580691318935	170
5	887	1955.389048782487	171
5	888	1959.587311558371	172
5	898	1975.10038684313	173
5	910	1985.932160956601	174
5	913	1990.678972288401	175
5	914	2000.258131576209	176
5	915	2008.171389431055	177
5	916	2013.162121554497	178
5	919	2017.789347963451	179
5	920	2018.411130562317	180
5	921	2019.533635471307	181
5	924	2021.442915669332	182
5	930	2028.031023361846	183
5	933	2033.334103167451	184
5	934	2035.902038081664	185
5	935	2040.295369638423	186
5	936	2055.442374777751	187
5	939	2059.501282003545	188
5	942	2065.14048113845	189
5	943	2066.067741480159	190
5	944	2067.921995892828	191
5	945	2068.34671716992	192
5	949	2080.100815335964	193
5	950	2082.95653604636	194
5	953	2091.409596707849	195
5	963	2106.571605104365	196
5	964	2109.403836307443	197
5	965	2112.450319772358	198
5	970	2117.152654774106	199
5	971	2117.542668901347	200
5	979	2125.607592840615	201
5	980	2128.991532784656	202
5	981	2131.716516086879	203
5	982	2132.614048333039	204
5	983	2133.919276318906	205
5	986	2141.461483713285	206
5	987	2144.365649216758	207
5	988	2147.926944698132	208
5	991	2153.705592954516	209
5	992	2159.500573919352	210
5	993	2161.824220257865	211
5	999	2173.288300161685	212
5	1008	2189.567282721708	213
5	1009	2191.383547946179	214
5	1010	2194.324858842624	215
5	1017	2207.550478243601	216
5	1018	2210.568774572725	217
5	1019	2213.383021340026	218
5	1028	2230.297925064138	219
5	1029	2235.529649699361	220
5	1032	2242.858221888078	221
5	1033	2244.955862178547	222
5	1034	2251.89647631028	223
5	1037	2263.268119279932	224
5	1038	2266.171746837633	225
5	1041	2279.961380536027	226
5	1056	2296.629021306347	227
5	1059	2299.938861980027	228
5	1060	2300.560883590928	229
5	1061	2304.67094456333	230
5	1064	2310.850484028918	231
5	1073	2320.630799360333	232
5	1074	2323.814004911716	233
5	1087	2343.024982598819	234
5	1088	2344.790820643751	235
5	1099	2375.094463564168	236
5	1100	2376.020313095556	237
5	1116	2418.052196348333	238
5	1119	2418.526690447174	239
5	1120	2419.222028046341	240
5	1128	2434.453177285147	241
5	1137	2450.293774469284	242
5	1138	2451.292169122116	243
5	1147	2474.330853446664	244
5	1150	2474.649036017084	245
6	174	354.399787651597	0
6	176	367.376450425266	0
6	177	376.949647873878	0
6	179	384.176460755635	0
6	181	386.436038687455	1
6	182	387.702843983132	1
6	183	391.25780361572	0
6	185	391.952056832985	0
6	187	393.866115821959	1
6	188	400.962881925675	1
6	190	404.473974224828	1
6	191	407.522381141807	1
6	193	410.436848643051	1
6	194	412.468385547024	1
6	196	418.962261761174	1
6	201	430.042671051734	2
6	202	436.790881059102	2
6	203	439.98680361487	1
6	205	441.443807283647	1
6	206	443.821143781387	1
6	210	450.924166260828	0
6	212	473.00260902335	0
6	214	475.369278079737	1
6	215	476.507675947248	1
6	216	480.352903277366	0
6	221	493.286867919828	0
6	222	495.136655710918	0
6	224	501.939221806893	0
6	225	503.914045272701	0
6	227	509.038289566614	0
6	228	513.117857558481	0
6	230	518.619025209951	0
6	231	526.985064922843	0
6	233	528.562184431506	0
6	235	530.409486620472	1
6	236	531.830084463069	1
6	237	532.64313828103	0
6	249	548.429687237878	0
6	251	552.852190846318	1
6	253	558.782162656068	2
6	256	559.785125051752	3
6	259	574.152183291069	4
6	260	576.281454266229	4
6	262	581.777140733225	4
6	263	584.694849206286	4
6	264	585.432616809532	3
6	266	591.908523466924	3
6	268	595.245884919689	4
6	270	599.744693744301	5
6	271	606.073829945978	5
6	273	614.054973155262	5
6	275	614.201791139699	6
6	276	615.539837282677	6
6	277	622.370185557334	5
6	278	622.978231279183	4
6	279	625.73438116058	3
6	280	626.678899340793	2
6	281	627.245026488256	1
6	282	629.974493053965	0
6	284	639.373022439287	0
6	290	647.18155342749	1
6	293	652.045644966856	1
6	295	658.412344747376	1
6	296	659.254356028234	1
6	298	662.241880940892	1
6	299	663.652903023125	1
6	307	679.735089669793	1
6	309	681.301514871387	2
6	313	707.159791806486	2
6	326	719.754056870467	2
6	331	727.714540815194	3
6	333	728.563158651515	4
6	335	730.639321852629	5
6	338	738.051917068501	6
6	339	738.478455028442	6
6	340	739.987833614824	5
6	344	743.143212324701	5
6	346	746.043867205386	6
6	349	748.788738380785	7
6	350	752.788899588887	7
6	351	757.247775359948	6
6	355	761.173475784625	6
6	357	761.546911015483	7
6	359	762.159761062042	8
6	364	770.565676082391	9
6	371	779.056388390191	10
6	378	804.665387734801	11
6	379	810.956399579426	11
6	381	821.141477119636	11
6	383	823.114470007992	12
6	385	829.833902557911	13
6	387	841.976749373265	14
6	389	844.753959809814	15
6	393	857.484073673838	16
6	397	864.090526057359	17
6	399	864.406093474509	18
6	401	864.410050515611	19
6	406	873.152552595688	20
6	408	880.180520660851	21
6	417	892.143133296193	22
6	419	903.734139802452	22
6	421	905.901144136857	22
6	422	910.003622645757	22
6	423	911.725711419746	21
6	427	929.264101241901	20
6	429	929.964332537532	20
6	433	933.017075888709	21
6	438	946.079331066743	21
6	442	950.7947041945	20
6	443	951.530189732391	19
6	444	955.852368894344	18
6	448	967.038452370635	18
6	450	970.766761584691	19
6	452	975.206857078212	19
6	453	980.77862660835	18
6	454	987.030486401158	17
6	456	988.829171470794	17
6	457	989.355955142758	17
6	458	992.596524738967	16
6	459	1004.848757244085	15
6	460	1005.244597234379	14
6	461	1019.765593185993	13
6	462	1031.105122516571	12
6	463	1032.183457545804	11
6	464	1032.813846404583	10
6	466	1033.712953239657	10
6	470	1046.010538533257	10
6	471	1046.091237986802	9
6	472	1049.840369106726	8
6	477	1063.897103797653	8
6	479	1067.205057491134	9
6	485	1074.2638470211	10
6	487	1076.070422185143	11
6	489	1078.233322827761	12
6	492	1088.888008565606	12
6	493	1094.101584998538	11
6	495	1100.820633055485	11
6	496	1101.259924093113	11
6	498	1101.542520841805	11
6	500	1111.342333799117	12
6	504	1117.489673933601	12
6	505	1124.594466017567	11
6	510	1137.351662066246	11
6	511	1138.485604499319	11
6	512	1141.733531813099	10
6	514	1143.757808395093	10
6	515	1148.409256019962	10
6	517	1148.722540957953	10
6	519	1150.605600291787	11
6	523	1155.850971048164	12
6	528	1165.18143187878	12
6	529	1166.451103759445	11
6	530	1168.716759229754	10
6	534	1171.764212020809	10
6	540	1173.638417992965	11
6	544	1183.043987541314	12
6	546	1184.463600298683	13
6	548	1186.294690857023	14
6	551	1193.42779355161	15
6	553	1193.952229021391	16
6	554	1194.115800615622	16
6	555	1197.109690078691	15
6	557	1198.118664749482	15
6	558	1198.299291013366	15
6	559	1202.686401288122	14
6	561	1204.241343238922	14
6	562	1210.316503425263	14
6	564	1210.346320488679	14
6	565	1211.617405920445	14
6	567	1214.33262395137	14
6	569	1214.830841163516	15
6	570	1214.886683594478	15
6	572	1219.949086922189	15
6	574	1222.914295801811	16
6	576	1223.293270800351	17
6	580	1247.196926819482	17
6	582	1248.688204836956	17
6	583	1253.505422827594	17
6	584	1258.809711815652	16
6	585	1266.814719217073	15
6	586	1277.586716057986	14
6	591	1290.898130123353	14
6	592	1291.624240014059	14
6	594	1291.823162123162	14
6	596	1294.576402543527	15
6	598	1304.070144681555	16
6	600	1305.840915143514	17
6	601	1308.598030473136	17
6	602	1315.807033628798	16
6	604	1319.757161600396	16
6	606	1323.432945874271	17
6	607	1327.631724926143	17
6	608	1328.199268127588	16
6	610	1329.748623566149	16
6	612	1330.682505835263	17
6	613	1340.592591873627	17
6	615	1340.718512005517	17
6	616	1341.65747618219	17
6	617	1341.849772769945	16
6	619	1345.187440574485	16
6	620	1346.401748854572	16
6	621	1348.331541461071	15
6	623	1350.785968730655	15
6	625	1350.872180850818	16
6	626	1352.817174607496	16
6	633	1382.027206050971	15
6	635	1382.607022192613	15
6	636	1387.184741008451	15
6	637	1390.069464196249	14
6	638	1393.418102114035	13
6	639	1399.428231544291	12
6	641	1400.916642425074	12
6	642	1403.995650662518	12
6	649	1422.107356603794	12
6	655	1424.971614565931	13
6	659	1426.229528690923	14
6	665	1451.471703703142	15
6	667	1452.277834284563	16
6	674	1462.965173674297	17
6	682	1479.597164813133	17
6	684	1485.516523248597	17
6	686	1487.722538453823	18
6	688	1487.844095693352	19
6	690	1489.919406919192	20
6	691	1489.928816579014	20
6	697	1503.613495727106	20
6	699	1504.303228010345	21
6	701	1505.738723982334	22
6	707	1527.405343324884	22
6	711	1532.467707651769	21
6	712	1535.969798612037	20
6	713	1540.931824317835	19
6	714	1545.29321963712	18
6	715	1551.336831106311	17
6	716	1560.832056340394	16
6	725	1571.779811722683	16
6	727	1573.37860006544	17
6	729	1574.86737474354	18
6	732	1580.95010154136	19
6	734	1587.400446453113	19
6	736	1589.412012295137	19
6	738	1606.774891541585	20
6	739	1611.643680417174	20
6	740	1613.2381063358	19
6	744	1626.194458755399	18
6	748	1626.911053211865	18
6	751	1632.047623014525	19
6	755	1633.802704932022	20
6	760	1644.547544615298	21
6	762	1645.199821265832	22
6	764	1650.037865197686	23
6	766	1650.283004258902	24
6	771	1669.677981469973	24
6	773	1677.203818671379	24
6	774	1679.935671650049	24
6	775	1680.876159096306	23
6	781	1694.228253446423	23
6	783	1695.752850120378	24
6	785	1696.928567990461	25
6	791	1716.534634236422	25
6	793	1717.067297815278	25
6	794	1717.273783453122	25
6	801	1725.738022932032	25
6	803	1732.5338024213	26
6	806	1735.719047425022	27
6	808	1737.147083566854	28
6	809	1737.365125681214	28
6	810	1738.826757277407	27
6	814	1748.336658321285	26
6	822	1768.93275183034	26
6	825	1789.832538635294	27
6	828	1800.201925045835	28
6	830	1801.397823919369	29
6	833	1813.417267898949	30
6	834	1816.351310756799	30
6	836	1820.845952050105	30
6	838	1821.109000042073	31
6	839	1822.618430185067	31
6	841	1824.448238797531	31
6	846	1851.763375986915	32
6	848	1853.763101051265	33
6	850	1861.615734364642	34
6	851	1866.401023250245	34
6	852	1866.63310120673	33
6	857	1872.60282119802	33
6	858	1874.386391852342	33
6	859	1875.879247413466	32
6	861	1879.356073586884	32
6	863	1886.688361683324	33
6	864	1895.007035146009	33
6	869	1902.442019052124	33
6	871	1905.861314486726	34
6	872	1908.568995534174	34
6	874	1909.777407995839	34
6	879	1922.182695436346	35
6	880	1925.801949529209	35
6	881	1929.600635287117	34
6	883	1930.15861388626	34
6	884	1930.232705282682	34
6	885	1935.467226546445	33
6	886	1938.580691318935	32
6	887	1955.389048782487	31
6	888	1959.587311558371	30
6	890	1963.91214132306	30
6	895	1973.318976600654	31
6	897	1973.361309767564	32
6	898	1975.10038684313	32
6	900	1975.116582120982	32
6	904	1977.572967073261	33
6	906	1979.076635191296	34
6	909	1985.261943290884	35
6	910	1985.932160956601	35
6	912	1989.30345486024	35
6	913	1990.678972288401	35
6	914	2000.258131576209	34
6	915	2008.171389431055	33
6	916	2013.162121554497	32
6	918	2015.354681933544	32
6	919	2017.789347963451	32
6	920	2018.411130562317	31
6	921	2019.533635471307	30
6	923	2020.548439221487	30
6	924	2021.442915669332	30
6	929	2025.725814737138	30
6	930	2028.031023361846	30
6	932	2032.01908448859	30
6	933	2033.334103167451	30
6	934	2035.902038081664	29
6	935	2040.295369638423	28
6	936	2055.442374777751	27
6	938	2055.502620266609	27
6	939	2059.501282003545	27
6	941	2060.575503583687	27
6	942	2065.14048113845	27
6	943	2066.067741480159	26
6	944	2067.921995892828	25
6	945	2068.34671716992	24
6	949	2080.100815335964	23
6	950	2082.95653604636	22
6	952	2084.709706378142	22
6	953	2091.409596707849	22
6	957	2092.939844548836	22
6	959	2099.037089414943	23
6	962	2102.591137611019	24
6	963	2106.571605104365	24
6	964	2109.403836307443	23
6	965	2112.450319772358	22
6	967	2116.368780264422	22
6	969	2116.482601048769	23
6	970	2117.152654774106	23
6	971	2117.542668901347	22
6	975	2119.324063641712	22
6	978	2123.674274645256	23
6	979	2125.607592840615	23
6	980	2128.991532784656	22
6	981	2131.716516086879	21
6	982	2132.614048333039	20
6	983	2133.919276318906	19
6	985	2138.040682945383	19
6	986	2141.461483713285	19
6	987	2144.365649216758	18
6	988	2147.926944698132	17
6	990	2150.885637978048	17
6	991	2153.705592954516	17
6	992	2159.500573919352	16
6	993	2161.824220257865	15
6	995	2167.367114672204	15
6	999	2173.288300161685	15
6	1007	2186.034893997877	15
6	1008	2189.567282721708	15
6	1009	2191.383547946179	14
6	1010	2194.324858842624	13
6	1017	2207.550478243601	12
6	1018	2210.568774572725	11
6	1019	2213.383021340026	10
6	1025	2221.227079930321	10
6	1028	2230.297925064138	10
6	1029	2235.529649699361	9
6	1031	2238.889269602652	9
6	1032	2242.858221888078	9
6	1033	2244.955862178547	8
6	1034	2251.89647631028	7
6	1036	2254.483068097837	7
6	1037	2263.268119279932	7
6	1038	2266.171746837633	6
6	1040	2271.075409916749	6
6	1041	2279.961380536027	6
6	1043	2280.771826103366	6
6	1048	2283.864084695993	7
6	1050	2284.36974984129	8
6	1052	2288.442495856882	9
6	1056	2296.629021306347	9
6	1058	2297.580246024688	9
6	1059	2299.938861980027	9
6	1060	2300.560883590928	8
6	1061	2304.67094456333	7
6	1063	2309.781809862415	7
6	1064	2310.850484028918	7
6	1066	2312.772812754872	7
6	1068	2313.521323228255	8
6	1070	2318.332567453696	9
6	1072	2318.868552452175	10
6	1073	2320.630799360333	10
6	1074	2323.814004911716	9
6	1078	2327.906731433003	9
6	1083	2336.865900433734	10
6	1086	2339.803824499231	11
6	1087	2343.024982598819	11
6	1088	2344.790820643751	10
6	1094	2371.147766820008	10
6	1096	2371.152034379967	11
6	1099	2375.094463564168	11
6	1100	2376.020313095556	10
6	1102	2380.887203781705	10
6	1104	2383.188984259807	11
6	1108	2386.397673759669	12
6	1110	2391.11863221044	13
6	1113	2400.591305898383	14
6	1115	2407.515928351927	15
6	1116	2418.052196348333	15
6	1118	2418.130008716	15
6	1119	2418.526690447174	15
6	1120	2419.222028046341	14
6	1124	2423.878827139453	14
6	1127	2430.033569373347	15
6	1128	2434.453177285147	15
6	1130	2435.545057738834	15
6	1137	2450.293774469284	15
6	1138	2451.292169122116	14
6	1140	2457.691458169595	14
6	1142	2461.138953990144	15
6	1144	2462.293654580893	16
6	1146	2473.557527797445	17
6	1147	2474.330853446664	17
6	1149	2474.41331895417	17
6	1150	2474.649036017084	17
6	1152	2483.314383275376	17
6	1154	2487.898238471302	18
7	174	354.399787651597	5.059644001556
7	177	376.949647873878	9.573197448612
7	182	387.702843983132	3.526383227497
7	183	391.25780361572	4.821764928265
7	188	400.962881925675	9.01082509269
7	191	407.522381141807	13.656265319848
7	194	412.468385547024	7.994411322196
7	202	436.790881059102	17.828619297928
7	203	439.98680361487	20.162515072588
7	206	443.821143781387	13.778472729653
7	210	450.924166260828	5.497282799589
7	215	476.507675947248	3.505066923898
7	216	480.352903277366	4.983625197629
7	222	495.136655710918	1.84978779109
7	225	503.914045272701	1.974823465808
7	228	513.117857558481	4.079567991867
7	231	526.985064922843	8.366039712892
7	236	531.830084463069	3.267900031563
7	237	532.64313828103	2.233651660558
7	260	576.281454266229	27.851767028351
7	263	584.694849206286	31.842658359968
7	264	585.432616809532	26.650454153464
7	271	606.073829945978	46.288704894226
7	276	615.539837282677	41.387653991608
7	277	622.370185557334	40.593044824109
7	278	622.978231279183	31.069707812259
7	279	625.73438116058	30.488496240891
7	280	626.678899340793	26.934205596492
7	281	627.245026488256	13.190053332994
7	282	629.974493053965	15.772701914266
7	293	652.045644966856	9.193440509178
7	296	659.254356028234	12.072802600744
7	299	663.652903023125	5.240558275749
7	313	707.159791806486	27.424702136693
7	339	738.478455028442	19.384476787436
7	340	739.987833614824	20.233776744357
7	350	752.788899588887	25.074358773693
7	351	757.247775359948	28.684616708433
7	379	810.956399579426	72.904482510925
7	419	903.734139802452	160.59092747775
7	422	910.003622645757	163.95975544037
7	423	911.725711419746	162.93697303896
7	427	929.264101241901	168.09062545728
7	438	946.079331066743	175.51365498435
7	442	950.7947041945	146.1293164597
7	443	951.530189732391	130.38871261276
7	444	955.852368894344	132.73789888635
7	452	975.206857078212	133.23010770495
7	453	980.77862660835	136.02466679854
7	454	987.030486401158	133.35664097919
7	457	989.355955142758	131.87188146892
7	458	992.596524738967	128.50599868161
7	459	1004.848757244085	140.44266376958
7	460	1005.244597234379	140.83454671877
7	461	1019.765593185993	146.6130405903
7	462	1031.105122516571	150.92460185572
7	463	1032.183457545804	140.04032424961
7	464	1032.813846404583	126.91270226773
7	470	1046.010538533257	116.04620599573
7	471	1046.091237986802	113.88856597393
7	472	1049.840369106726	116.82329321802
7	492	1088.888008565606	128.14974311242
7	493	1094.101584998538	127.0631326279
7	496	1101.259924093113	130.49316250842
7	504	1117.489673933601	83.776720693944
7	505	1124.594466017567	82.09187004332
7	511	1138.485604499319	74.588500701666
7	512	1141.733531813099	74.528474321965
7	515	1148.409256019962	75.380783228573
7	528	1165.18143187878	86.948109051019
7	529	1166.451103759445	65.63047070396
7	530	1168.716759229754	67.174238387949
7	554	1194.115800615622	80.822305851631
7	555	1197.109690078691	65.109534946438
7	558	1198.299291013366	60.94762894712
7	559	1202.686401288122	58.928592893029
7	562	1210.316503425263	61.59396246731
7	565	1211.617405920445	61.011805628658
7	570	1214.886683594478	60.07861238656
7	580	1247.196926819482	88.649630540667
7	583	1253.505422827594	82.983223621696
7	584	1258.809711815652	87.045499794843
7	585	1266.814719217073	93.176301224108
7	586	1277.586716057986	94.542728516672
7	592	1291.624240014059	105.32954915704
7	601	1308.598030473136	115.17023692153
7	602	1315.807033628798	121.85480460741
7	607	1327.631724926143	129.51306017666
7	608	1328.199268127588	123.95792488867
7	613	1340.592591873627	130.24627138495
7	616	1341.65747618219	127.32485223082
7	617	1341.849772769945	127.01893160643
7	620	1346.401748854572	126.45266193238
7	621	1348.331541461071	125.41724565926
7	626	1352.817174607496	129.52390380714
7	633	1382.027206050971	133.33900121401
7	636	1387.184741008451	98.56049826857
7	637	1390.069464196249	99.171334072896
7	638	1393.418102114035	101.59493999087
7	639	1399.428231544291	104.85182900076
7	642	1403.995650662518	99.925505980963
7	682	1479.597164813133	159.84000321274
7	691	1489.928816579014	166.49587070474
7	707	1527.405343324884	196.72283748962
7	711	1532.467707651769	187.28026707728
7	712	1535.969798612037	185.18382988138
7	713	1540.931824317835	190.05964346702
7	714	1545.29321963712	189.256368832
7	715	1551.336831106311	168.7298089137
7	716	1560.832056340394	159.91541391532
7	734	1587.400446453113	165.29308984932
7	739	1611.643680417174	186.67206585124
7	740	1613.2381063358	187.00857764488
7	744	1626.194458755399	173.91662447084
7	771	1669.677981469973	181.83388577662
7	774	1679.935671650049	190.01626473086
7	775	1680.876159096306	187.42682349816
7	791	1716.534634236422	212.23140622608
7	794	1717.273783453122	211.53505947079
7	809	1737.365125681214	165.58531395853
7	810	1738.826757277407	165.44815721197
7	814	1748.336658321285	167.38655677993
7	834	1816.351310756799	209.57641921521
7	839	1822.618430185067	205.72835578853
7	851	1866.401023250245	239.48997003838
7	852	1866.63310120673	234.5854781922
7	858	1874.386391852342	240.58368692032
7	859	1875.879247413466	231.33170279817
7	864	1895.007035146009	249.80721388018
7	872	1908.568995534174	258.28599127527
7	880	1925.801949529209	248.59813085783
7	881	1929.600635287117	242.89246098181
7	884	1930.232705282682	236.00445183626
7	885	1935.467226546445	239.71437642607
7	886	1938.580691318935	241.65212332847
7	887	1955.389048782487	238.32175096721
7	888	1959.587311558371	239.65286048281
7	898	1975.10038684313	249.3623639111
7	910	1985.932160956601	250.21311353158
7	913	1990.678972288401	253.53188872155
7	914	2000.258131576209	259.83679997686
7	915	2008.171389431055	250.97733295061
7	916	2013.162121554497	244.22936972416
7	919	2017.789347963451	227.95680932816
7	920	2018.411130562317	218.20920551648
7	921	2019.533635471307	218.13581155194
7	924	2021.442915669332	208.02564777038
7	930	2028.031023361846	206.92202331977
7	933	2033.334103167451	208.88586436992
7	934	2035.902038081664	204.12778569823
7	935	2040.295369638423	188.53199365151
7	936	2055.442374777751	201.67927372649
7	939	2059.501282003545	197.8855476389
7	942	2065.14048113845	196.42694412476
7	943	2066.067741480159	193.46492028214
7	944	2067.921995892828	188.56592230594
7	945	2068.34671716992	181.6583554866
7	949	2080.100815335964	177.65879628384
7	950	2082.95653604636	177.09522155963
7	953	2091.409596707849	181.63218871201
7	963	2106.571605104365	184.38890966802
7	964	2109.403836307443	179.24522242118
7	965	2112.450319772358	148.5381784493
7	970	2117.152654774106	150.54452126161
7	971	2117.542668901347	144.22369230069
7	979	2125.607592840615	150.49101071963
7	980	2128.991532784656	152.32789590815
7	981	2131.716516086879	154.14354901362
7	982	2132.614048333039	153.53741314174
7	983	2133.919276318906	148.65733302802
7	986	2141.461483713285	152.15802885305
7	987	2144.365649216758	129.01096728321
7	988	2147.926944698132	127.37850547665
7	991	2153.705592954516	131.99891615624
7	992	2159.500573919352	133.77475918221
7	993	2161.824220257865	129.80513576927
7	999	2173.288300161685	112.712796578
7	1008	2189.567282721708	97.386845790723
7	1009	2191.383547946179	98.443703397343
7	1010	2194.324858842624	95.287769427681
7	1017	2207.550478243601	91.067877194832
7	1018	2210.568774572725	92.402731587721
7	1019	2213.383021340026	94.058957698314
7	1028	2230.297925064138	92.257242118755
7	1029	2235.529649699361	84.644011721313
7	1032	2242.858221888078	75.491107215874
7	1033	2244.955862178547	75.801111336915
7	1034	2251.89647631028	74.835169037186
7	1037	2263.268119279932	84.35370288527
7	1038	2266.171746837633	80.136852839756
7	1041	2279.961380536027	84.146902022312
7	1056	2296.629021306347	75.401941376026
7	1059	2299.938861980027	61.049592377375
7	1060	2300.560883590928	46.077815493091
7	1061	2304.67094456333	33.595534646581
7	1064	2310.850484028918	30.078657925552
7	1073	2320.630799360333	39.841525180823
7	1074	2323.814004911716	39.949920215723
7	1087	2343.024982598819	54.365066821462
7	1088	2344.790820643751	47.210574619063
7	1099	2375.094463564168	62.321650809296
7	1100	2376.020313095556	62.498989867301
7	1116	2418.052196348333	99.183643896158
7	1119	2418.526690447174	92.640229494413
7	1120	2419.222028046341	91.315296613338
7	1128	2434.453177285147	97.587276851413
7	1137	2450.293774469284	79.146007649276
7	1138	2451.292169122116	80.140134742149
7	1147	2474.330853446664	93.443649664959
7	1150	2474.649036017084	91.460051757277
8	176	367.376450425266	1
8	179	384.176460755635	1
8	181	386.436038687455	2
8	185	391.952056832985	1
8	187	393.866115821959	2
8	190	404.473974224828	2
8	193	410.436848643051	2
8	196	418.962261761174	2
8	201	430.042671051734	3
8	205	441.443807283647	2
8	212	473.00260902335	1
8	214	475.369278079737	2
8	221	493.286867919828	1
8	224	501.939221806893	1
8	227	509.038289566614	1
8	230	518.619025209951	1
8	233	528.562184431506	1
8	235	530.409486620472	2
8	249	548.429687237878	1
8	251	552.852190846318	2
8	253	558.782162656068	3
8	256	559.785125051752	4
8	259	574.152183291069	5
8	262	581.777140733225	5
8	266	591.908523466924	4
8	268	595.245884919689	5
8	270	599.744693744301	6
8	273	614.054973155262	6
8	275	614.201791139699	7
8	284	639.373022439287	1
8	290	647.18155342749	2
8	295	658.412344747376	2
8	298	662.241880940892	2
8	307	679.735089669793	2
8	309	681.301514871387	3
8	326	719.754056870467	3
8	331	727.714540815194	4
8	333	728.563158651515	5
8	335	730.639321852629	6
8	338	738.051917068501	7
8	344	743.143212324701	6
8	346	746.043867205386	7
8	349	748.788738380785	8
8	355	761.173475784625	7
8	357	761.546911015483	8
8	359	762.159761062042	9
8	364	770.565676082391	10
8	371	779.056388390191	11
8	378	804.665387734801	12
8	381	821.141477119636	12
8	383	823.114470007992	13
8	385	829.833902557911	14
8	387	841.976749373265	15
8	389	844.753959809814	16
8	393	857.484073673838	17
8	397	864.090526057359	18
8	399	864.406093474509	19
8	401	864.410050515611	20
8	406	873.152552595688	21
8	408	880.180520660851	22
8	417	892.143133296193	23
8	421	905.901144136857	23
8	429	929.964332537532	21
8	433	933.017075888709	22
8	448	967.038452370635	19
8	450	970.766761584691	20
8	456	988.829171470794	18
8	466	1033.712953239657	11
8	477	1063.897103797653	9
8	479	1067.205057491134	10
8	485	1074.2638470211	11
8	487	1076.070422185143	12
8	489	1078.233322827761	13
8	495	1100.820633055485	12
8	498	1101.542520841805	12
8	500	1111.342333799117	13
8	510	1137.351662066246	12
8	514	1143.757808395093	11
8	517	1148.722540957953	11
8	519	1150.605600291787	12
8	523	1155.850971048164	13
8	534	1171.764212020809	11
8	540	1173.638417992965	12
8	544	1183.043987541314	13
8	546	1184.463600298683	14
8	548	1186.294690857023	15
8	551	1193.42779355161	16
8	553	1193.952229021391	17
8	557	1198.118664749482	16
8	561	1204.241343238922	15
8	564	1210.346320488679	15
8	567	1214.33262395137	15
8	569	1214.830841163516	16
8	572	1219.949086922189	16
8	574	1222.914295801811	17
8	576	1223.293270800351	18
8	582	1248.688204836956	18
8	591	1290.898130123353	15
8	594	1291.823162123162	15
8	596	1294.576402543527	16
8	598	1304.070144681555	17
8	600	1305.840915143514	18
8	604	1319.757161600396	17
8	606	1323.432945874271	18
8	610	1329.748623566149	17
8	612	1330.682505835263	18
8	615	1340.718512005517	18
8	619	1345.187440574485	17
8	623	1350.785968730655	16
8	625	1350.872180850818	17
8	635	1382.607022192613	16
8	641	1400.916642425074	13
8	649	1422.107356603794	13
8	655	1424.971614565931	14
8	659	1426.229528690923	15
8	665	1451.471703703142	16
8	667	1452.277834284563	17
8	674	1462.965173674297	18
8	684	1485.516523248597	18
8	686	1487.722538453823	19
8	688	1487.844095693352	20
8	690	1489.919406919192	21
8	697	1503.613495727106	21
8	699	1504.303228010345	22
8	701	1505.738723982334	23
8	725	1571.779811722683	17
8	727	1573.37860006544	18
8	729	1574.86737474354	19
8	732	1580.95010154136	20
8	736	1589.412012295137	20
8	738	1606.774891541585	21
8	748	1626.911053211865	19
8	751	1632.047623014525	20
8	755	1633.802704932022	21
8	760	1644.547544615298	22
8	762	1645.199821265832	23
8	764	1650.037865197686	24
8	766	1650.283004258902	25
8	773	1677.203818671379	25
8	781	1694.228253446423	24
8	783	1695.752850120378	25
8	785	1696.928567990461	26
8	793	1717.067297815278	26
8	801	1725.738022932032	26
8	803	1732.5338024213	27
8	806	1735.719047425022	28
8	808	1737.147083566854	29
8	822	1768.93275183034	27
8	825	1789.832538635294	28
8	828	1800.201925045835	29
8	830	1801.397823919369	30
8	833	1813.417267898949	31
8	836	1820.845952050105	31
8	838	1821.109000042073	32
8	841	1824.448238797531	32
8	846	1851.763375986915	33
8	848	1853.763101051265	34
8	850	1861.615734364642	35
8	857	1872.60282119802	34
8	861	1879.356073586884	33
8	863	1886.688361683324	34
8	869	1902.442019052124	34
8	871	1905.861314486726	35
8	874	1909.777407995839	35
8	879	1922.182695436346	36
8	883	1930.15861388626	35
8	890	1963.91214132306	31
8	895	1973.318976600654	32
8	897	1973.361309767564	33
8	900	1975.116582120982	33
8	904	1977.572967073261	34
8	906	1979.076635191296	35
8	909	1985.261943290884	36
8	912	1989.30345486024	36
8	918	2015.354681933544	33
8	923	2020.548439221487	31
8	929	2025.725814737138	31
8	932	2032.01908448859	31
8	938	2055.502620266609	28
8	941	2060.575503583687	28
8	952	2084.709706378142	23
8	957	2092.939844548836	23
8	959	2099.037089414943	24
8	962	2102.591137611019	25
8	967	2116.368780264422	23
8	969	2116.482601048769	24
8	975	2119.324063641712	23
8	978	2123.674274645256	24
8	985	2138.040682945383	20
8	990	2150.885637978048	18
8	995	2167.367114672204	16
8	1007	2186.034893997877	16
8	1025	2221.227079930321	11
8	1031	2238.889269602652	10
8	1036	2254.483068097837	8
8	1040	2271.075409916749	7
8	1043	2280.771826103366	7
8	1048	2283.864084695993	8
8	1050	2284.36974984129	9
8	1052	2288.442495856882	10
8	1058	2297.580246024688	10
8	1063	2309.781809862415	8
8	1066	2312.772812754872	8
8	1068	2313.521323228255	9
8	1070	2318.332567453696	10
8	1072	2318.868552452175	11
8	1078	2327.906731433003	10
8	1083	2336.865900433734	11
8	1086	2339.803824499231	12
8	1094	2371.147766820008	11
8	1096	2371.152034379967	12
8	1102	2380.887203781705	11
8	1104	2383.188984259807	12
8	1108	2386.397673759669	13
8	1110	2391.11863221044	14
8	1113	2400.591305898383	15
8	1115	2407.515928351927	16
8	1118	2418.130008716	16
8	1124	2423.878827139453	15
8	1127	2430.033569373347	16
8	1130	2435.545057738834	16
8	1140	2457.691458169595	15
8	1142	2461.138953990144	16
8	1144	2462.293654580893	17
8	1146	2473.557527797445	18
8	1149	2474.41331895417	18
8	1152	2483.314383275376	18
8	1154	2487.898238471302	19
9	198	419.824288542282	1
9	208	445.426883461239	1
9	218	481.155473799364	1
9	239	536.946986058516	1
9	242	541.720738592907	1
9	244	541.736319955185	2
9	247	545.749899725905	2
9	286	642.852204457678	1
9	288	646.904432915695	2
9	301	666.123998518003	1
9	304	673.379073049835	1
9	311	692.296201596188	1
9	315	707.174758416955	1
9	317	707.316586279335	2
9	321	718.627327699064	1
9	324	719.093978241006	1
9	329	725.978438086876	1
9	342	740.857761909457	1
9	353	759.785179545867	1
9	361	769.99705848	2
9	366	773.001749095169	2
9	368	773.957541426202	3
9	373	780.867851638882	3
9	391	853.673845421965	1
9	395	862.799389841877	2
9	404	868.098797839271	2
9	410	880.277491819915	3
9	413	882.177038103687	3
9	425	912.935758198835	1
9	431	932.202672012874	1
9	436	936.657389288969	1
9	440	946.297682443241	1
9	446	960.738265453186	1
9	468	1042.502595974247	1
9	474	1060.452690583967	1
9	481	1073.028472791389	1
9	483	1073.979749661901	2
9	502	1113.293494763991	1
9	507	1132.000155132253	1
9	521	1154.808071207918	1
9	526	1158.547296278815	1
9	532	1170.522199205898	1
9	536	1171.867477851254	2
9	538	1172.13455232041	3
9	578	1231.608305717097	1
9	588	1288.624242739881	1
9	628	1356.036850805122	1
9	630	1372.606487445524	2
9	644	1405.653119015198	1
9	646	1415.389328740932	2
9	651	1422.655085990457	2
9	653	1422.976987813847	3
9	657	1425.03253417898	4
9	662	1430.283059070374	4
9	669	1453.338074498799	4
9	671	1458.853815662555	5
9	677	1470.455632448849	4
9	693	1493.449335598144	1
9	695	1496.052380205525	2
9	704	1514.884379549808	2
9	709	1528.555324124831	1
9	718	1564.373909976404	1
9	720	1565.073784446035	2
9	723	1568.88161662372	2
9	742	1616.890074396541	1
9	746	1626.810805176556	1
9	753	1632.799960695581	1
9	757	1636.823592669957	2
9	769	1658.548708404319	1
9	777	1686.708174305305	1
9	779	1694.179105853179	2
9	788	1705.252233173425	2
9	796	1719.93445107556	1
9	799	1724.59685573388	1
9	812	1740.42133159935	1
9	816	1757.194056480443	1
9	818	1761.281828584842	2
9	820	1761.918109262225	3
9	843	1831.77425238343	1
9	854	1868.713537013691	1
9	866	1898.558444776125	1
9	876	1910.506246022932	1
9	892	1966.608133512492	1
9	902	1976.663636876505	1
9	926	2021.706676798273	1
9	947	2073.959348802285	1
9	955	2092.180436930985	1
9	973	2118.166042985004	1
9	997	2169.154750841632	1
9	1001	2177.061307273094	1
9	1004	2178.914416394662	1
9	1012	2195.814478513715	1
9	1015	2200.177172437229	1
9	1021	2214.891347264506	1
9	1023	2215.816986545285	2
9	1045	2280.78927417951	1
9	1054	2288.659915777357	1
9	1076	2325.886460952761	1
9	1081	2335.729066720743	1
9	1090	2363.241703758442	1
9	1092	2369.572912620892	2
9	1106	2385.090107213244	1
9	1122	2420.381264551342	1
9	1132	2438.055371942036	1
9	1135	2446.879911890008	1
10	198	419.824288542282	9
10	208	445.426883461239	10
10	286	642.852204457678	11
10	301	666.123998518003	12
10	304	673.379073049835	13
10	311	692.296201596188	14
10	315	707.174758416955	15
10	321	718.627327699064	16
10	324	719.093978241006	17
10	329	725.978438086876	18
10	342	740.857761909457	19
10	353	759.785179545867	20
10	391	853.673845421965	21
10	425	912.935758198835	22
10	431	932.202672012874	23
10	436	936.657389288969	24
10	440	946.297682443241	25
10	446	960.738265453186	26
10	468	1042.502595974247	27
10	474	1060.452690583967	28
10	481	1073.028472791389	29
10	502	1113.293494763991	30
10	507	1132.000155132253	31
10	521	1154.808071207918	32
10	526	1158.547296278815	33
10	532	1170.522199205898	34
10	578	1231.608305717097	35
10	588	1288.624242739881	36
10	628	1356.036850805122	37
10	644	1405.653119015198	38
10	693	1493.449335598144	39
10	709	1528.555324124831	40
10	718	1564.373909976404	41
10	742	1616.890074396541	42
10	746	1626.810805176556	43
10	753	1632.799960695581	44
10	769	1658.548708404319	45
10	777	1686.708174305305	46
10	796	1719.93445107556	47
10	799	1724.59685573388	48
10	812	1740.42133159935	49
10	816	1757.194056480443	50
10	843	1831.77425238343	51
10	854	1868.713537013691	52
10	866	1898.558444776125	53
10	876	1910.506246022932	54
10	892	1966.608133512492	55
10	902	1976.663636876505	56
10	926	2021.706676798273	57
10	947	2073.959348802285	58
10	955	2092.180436930985	59
10	973	2118.166042985004	60
10	997	2169.154750841632	61
10	1001	2177.061307273094	62
10	1004	2178.914416394662	63
10	1012	2195.814478513715	64
10	1015	2200.177172437229	65
10	1021	2214.891347264506	66
10	1045	2280.78927417951	67
10	1054	2288.659915777357	68
10	1076	2325.886460952761	69
10	1081	2335.729066720743	70
10	1090	2363.241703758442	71
10	1106	2385.090107213244	72
10	1122	2420.381264551342	73
10	1132	2438.055371942036	74
10	1135	2446.879911890008	75
11	1155	2500	0.098
12	1155	2500	0.0508

