version 2
run experiments_medium_game_mode1-1039-20230311-09:43:35-13886
attr configname experiments_medium_game_mode1
attr datetime 20230311-09:43:35
attr experiment experiments_medium_game_mode1
attr inifile omnetpp.ini
attr iterationvars "$0=6.5, $1=5, $2=0"
attr iterationvarsf 6.5,5,0-
attr measurement "$0=6.5, $1=5, $2=0"
attr network Network
attr processid 13886
attr repetition 19
attr replication #19
attr resultdir results
attr runnumber 1039
attr seedset 19
param *.boss.arrival_mean 20
param *.boss.service_mean 6.5
param *.minion.arrival_mean 10
param *.minion.service_mean 5
param *.player.recover_rate_x 0
param **.minion.arrival_distribution 0
param **.minion.service_distribution 0
param **.boss.arrival_distribution 0
param **.boss.service_distribution 0

vector 0 Network.player boss_jobs_number_stat:vector ETV
attr source signal_boss_jobs_number
vector 1 Network.player boss_jobs_queue_number_stat:vector ETV
attr source signal_boss_jobs_queue_number
vector 2 Network.player boss_waiting_time_stat:vector ETV
attr source signal_boss_waiting_time
vector 3 Network.player boss_defeated_stat:vector ETV
attr source signal_boss_defeated
vector 4 Network.player boss_response_time_stat:vector ETV
attr source signal_boss_response_time
vector 5 Network.player minion_jobs_number_stat:vector ETV
attr source signal_minion_jobs_number
vector 6 Network.player minion_jobs_queue_number_stat:vector ETV
attr source signal_minion_jobs_queue_number
vector 7 Network.player minion_waiting_time_stat:vector ETV
attr source signal_minion_waiting_time
vector 8 Network.player minion_defeated_stat:vector ETV
attr source signal_minion_defeated
vector 9 Network.player minion_response_time_stat:vector ETV
attr source signal_minion_response_time
vector 10 Network.player minion_recovered_stat:vector ETV
attr source signal_minion_recovered
vector 11 Network.player minion_throughput:vector ETV
attr source signal_minion_throughput
vector 12 Network.player boss_throughput:vector ETV
attr source signal_boss_throughput
0	149	383.641814753773	1
0	158	419.226760993783	1
0	164	435.937457159369	1
0	166	441.599777676986	2
0	177	469.450297919605	1
0	180	470.48201465898	1
0	188	487.295243787722	1
0	197	500.66167326089	1
0	203	512.100524100803	1
0	209	533.110556723408	1
0	227	593.771786700608	1
0	239	644.532565131582	1
0	252	676.48596019194	1
0	260	703.330286601906	1
0	266	725.90316117181	1
0	270	731.588175821006	2
0	279	744.524420255921	2
0	290	759.122019627825	1
0	299	793.863135443444	1
0	305	815.681009898624	2
0	314	863.224603851332	1
0	317	870.153391622639	1
0	320	882.120463111697	1
0	326	923.471158080421	1
0	335	966.760995902482	1
0	347	1009.684344432772	1
0	354	1031.036760996085	1
0	369	1047.446284074941	1
0	372	1052.038242407772	1
0	374	1057.115240070998	2
0	389	1082.835420605179	1
0	415	1137.016704517448	1
0	419	1149.581529118299	1
0	425	1159.462263681971	1
0	454	1206.487230796995	1
0	459	1209.753595283991	1
0	463	1210.941507576878	1
0	471	1218.708561659235	1
0	481	1259.670195305888	1
0	483	1267.815771895886	2
0	496	1309.843732171748	1
0	506	1355.647566428243	1
0	520	1402.044285638431	1
0	522	1402.263904548659	2
0	539	1454.961072960112	1
0	541	1459.590822304099	2
0	556	1480.52788114512	1
0	572	1513.15314658393	1
0	576	1529.657626253454	2
0	581	1546.559532398319	1
0	590	1593.631743264632	1
0	593	1612.416300588425	1
0	596	1623.988397099659	1
0	629	1690.602733536229	1
0	651	1717.657651786433	1
0	653	1728.25733841582	2
0	668	1746.040566456924	1
0	670	1747.235335168242	2
0	673	1748.389845209716	2
0	675	1750.168091953481	3
0	680	1765.122783763006	3
0	682	1767.541957923034	4
0	687	1774.146124514192	4
0	714	1832.144477992951	1
0	724	1860.507320941987	1
0	737	1883.699473873445	1
0	741	1884.464361408446	2
0	743	1886.181841591436	3
0	757	1913.197721752833	1
0	759	1913.281949448185	2
0	762	1920.442455957637	2
0	765	1927.473728951076	2
0	779	1964.969949338338	1
0	783	1974.166259690969	2
0	798	1994.452365368981	1
0	805	2003.186013006887	1
0	818	2040.615125239329	1
0	837	2080.987086470017	1
0	847	2100.91784688331	1
0	862	2129.599279851329	1
0	864	2132.426180659516	2
0	868	2138.766813623332	3
0	872	2142.690949916287	4
0	876	2144.082990020558	5
0	890	2183.968035022845	1
0	901	2214.237337116187	1
0	909	2232.344284238071	1
0	915	2254.27334360207	1
0	922	2266.555854746247	1
0	931	2284.15446303664	1
0	946	2300.48471194332	1
0	960	2327.398750057176	1
0	966	2335.312333411039	1
0	971	2348.102139344011	1
0	974	2351.896011637656	1
0	989	2397.305582690173	1
0	998	2421.735659092536	1
0	1000	2428.024523204963	2
0	1002	2431.526234007268	3
0	1011	2447.718939005172	1
0	1015	2454.499579047895	2
0	1017	2457.358068384767	3
0	1028	2473.1920250507	1
0	1032	2483.711986540473	1
1	149	383.641814753773	0
1	150	384.960072866333	0
1	158	419.226760993783	0
1	161	429.044232260014	0
1	164	435.937457159369	0
1	166	441.599777676986	1
1	167	442.031891301127	1
1	170	453.00281005814	0
1	177	469.450297919605	0
1	178	469.860028127792	0
1	180	470.48201465898	0
1	181	470.578948685169	0
1	188	487.295243787722	0
1	189	487.466026214404	0
1	197	500.66167326089	0
1	198	502.340145429808	0
1	203	512.100524100803	0
1	204	512.643470502302	0
1	209	533.110556723408	0
1	210	541.195667423182	0
1	227	593.771786700608	0
1	232	634.985093810384	0
1	239	644.532565131582	0
1	242	655.719067654927	0
1	252	676.48596019194	0
1	253	678.491506568717	0
1	260	703.330286601906	0
1	263	713.578251854548	0
1	266	725.90316117181	0
1	270	731.588175821006	1
1	277	741.20976264021	1
1	279	744.524420255921	1
1	282	745.653322810794	1
1	283	749.613492743512	0
1	290	759.122019627825	0
1	291	764.466888516031	0
1	299	793.863135443444	0
1	305	815.681009898624	1
1	306	829.446683091129	1
1	307	834.149196899025	0
1	314	863.224603851332	0
1	315	863.382990531491	0
1	317	870.153391622639	0
1	318	872.352293215876	0
1	320	882.120463111697	0
1	323	896.372385016415	0
1	326	923.471158080421	0
1	327	924.825534035585	0
1	335	966.760995902482	0
1	336	968.668271774633	0
1	347	1009.684344432772	0
1	348	1012.395106324818	0
1	354	1031.036760996085	0
1	357	1038.127953416156	0
1	369	1047.446284074941	0
1	370	1049.459124596697	0
1	372	1052.038242407772	0
1	374	1057.115240070998	1
1	379	1063.648387323678	1
1	380	1065.121682187135	0
1	389	1082.835420605179	0
1	396	1103.170473465518	0
1	415	1137.016704517448	0
1	416	1140.420671742598	0
1	419	1149.581529118299	0
1	422	1155.061050616642	0
1	425	1159.462263681971	0
1	426	1164.24993865384	0
1	454	1206.487230796995	0
1	455	1208.79379626681	0
1	459	1209.753595283991	0
1	460	1209.808772511091	0
1	463	1210.941507576878	0
1	464	1211.223854037303	0
1	471	1218.708561659235	0
1	472	1240.163412485684	0
1	481	1259.670195305888	0
1	483	1267.815771895886	1
1	486	1271.184913184241	1
1	487	1283.986704139749	0
1	496	1309.843732171748	0
1	499	1316.934266620461	0
1	506	1355.647566428243	0
1	507	1365.792544996696	0
1	520	1402.044285638431	0
1	522	1402.263904548659	1
1	525	1402.747474475295	1
1	526	1411.814366135283	0
1	539	1454.961072960112	0
1	541	1459.590822304099	1
1	544	1461.090736837767	1
1	553	1479.289926513576	0
1	556	1480.52788114512	0
1	559	1487.489665181947	0
1	572	1513.15314658393	0
1	576	1529.657626253454	1
1	577	1540.123159926465	1
1	578	1541.418075323289	0
1	581	1546.559532398319	0
1	582	1547.137427893265	0
1	590	1593.631743264632	0
1	591	1595.171337547105	0
1	593	1612.416300588425	0
1	594	1617.360648665507	0
1	596	1623.988397099659	0
1	599	1639.420174755994	0
1	629	1690.602733536229	0
1	632	1699.76760456918	0
1	651	1717.657651786433	0
1	653	1728.25733841582	1
1	656	1729.379192335771	1
1	657	1731.794290695386	0
1	668	1746.040566456924	0
1	670	1747.235335168242	1
1	671	1747.589451998191	1
1	673	1748.389845209716	1
1	675	1750.168091953481	2
1	676	1755.239330915871	2
1	680	1765.122783763006	2
1	682	1767.541957923034	3
1	683	1773.438522955681	3
1	687	1774.146124514192	3
1	688	1774.851304323575	3
1	689	1782.571883686563	2
1	692	1795.087810689683	1
1	693	1801.166508017864	0
1	714	1832.144477992951	0
1	717	1835.891140678095	0
1	724	1860.507320941987	0
1	725	1861.007745519984	0
1	737	1883.699473873445	0
1	741	1884.464361408446	1
1	743	1886.181841591436	2
1	744	1890.243086767736	2
1	745	1892.667364198023	1
1	746	1894.793975697891	0
1	757	1913.197721752833	0
1	759	1913.281949448185	1
1	760	1916.306195807745	1
1	762	1920.442455957637	1
1	763	1923.615709751567	1
1	765	1927.473728951076	1
1	766	1934.941143325119	1
1	769	1938.089214232699	0
1	779	1964.969949338338	0
1	783	1974.166259690969	1
1	784	1975.922606735842	1
1	785	1977.477907517961	0
1	798	1994.452365368981	0
1	801	1999.696834494892	0
1	805	2003.186013006887	0
1	806	2004.389273284618	0
1	818	2040.615125239329	0
1	819	2040.961713911555	0
1	837	2080.987086470017	0
1	838	2084.778942682387	0
1	847	2100.91784688331	0
1	848	2107.52998872239	0
1	862	2129.599279851329	0
1	864	2132.426180659516	1
1	868	2138.766813623332	2
1	872	2142.690949916287	3
1	876	2144.082990020558	4
1	877	2146.361399156283	4
1	878	2153.195665993222	3
1	881	2163.357874468146	2
1	882	2167.984098964878	1
1	883	2170.512107731012	0
1	890	2183.968035022845	0
1	899	2203.208594904528	0
1	901	2214.237337116187	0
1	902	2214.267205478129	0
1	909	2232.344284238071	0
1	910	2234.516339199592	0
1	915	2254.27334360207	0
1	920	2261.848952679013	0
1	922	2266.555854746247	0
1	925	2271.598291738242	0
1	931	2284.15446303664	0
1	938	2290.872914679466	0
1	946	2300.48471194332	0
1	949	2306.272386328043	0
1	960	2327.398750057176	0
1	961	2330.719615852284	0
1	966	2335.312333411039	0
1	969	2344.859773740734	0
1	971	2348.102139344011	0
1	972	2348.129774505736	0
1	974	2351.896011637656	0
1	975	2353.432681240275	0
1	989	2397.305582690173	0
1	994	2402.870099432434	0
1	998	2421.735659092536	0
1	1000	2428.024523204963	1
1	1002	2431.526234007268	2
1	1003	2436.475699941729	2
1	1004	2438.122367114077	1
1	1009	2445.502032976248	0
1	1011	2447.718939005172	0
1	1015	2454.499579047895	1
1	1017	2457.358068384767	2
1	1018	2460.326495172043	2
1	1019	2460.493151727932	1
1	1026	2470.90672154048	0
1	1028	2473.1920250507	0
1	1029	2476.331148752229	0
1	1032	2483.711986540473	0
1	1033	2492.293018178609	0
2	149	383.641814753773	0
2	158	419.226760993783	0
2	164	435.937457159369	0
2	167	442.031891301127	0.432113624141
2	177	469.450297919605	0
2	180	470.48201465898	0
2	188	487.295243787722	0
2	197	500.66167326089	0
2	203	512.100524100803	0
2	209	533.110556723408	0
2	227	593.771786700608	0
2	239	644.532565131582	0
2	252	676.48596019194	0
2	260	703.330286601906	0
2	266	725.90316117181	0
2	277	741.20976264021	9.621586819204
2	282	745.653322810794	1.128902554873
2	290	759.122019627825	0
2	299	793.863135443444	0
2	306	829.446683091129	13.765673192505
2	314	863.224603851332	0
2	317	870.153391622639	0
2	320	882.120463111697	0
2	326	923.471158080421	0
2	335	966.760995902482	0
2	347	1009.684344432772	0
2	354	1031.036760996085	0
2	369	1047.446284074941	0
2	372	1052.038242407772	0
2	379	1063.648387323678	6.53314725268
2	389	1082.835420605179	0
2	415	1137.016704517448	0
2	419	1149.581529118299	0
2	425	1159.462263681971	0
2	454	1206.487230796995	0
2	459	1209.753595283991	0
2	463	1210.941507576878	0
2	471	1218.708561659235	0
2	481	1259.670195305888	0
2	486	1271.184913184241	3.369141288355
2	496	1309.843732171748	0
2	506	1355.647566428243	0
2	520	1402.044285638431	0
2	525	1402.747474475295	0.483569926636
2	539	1454.961072960112	0
2	544	1461.090736837767	1.499914533668
2	556	1480.52788114512	0
2	572	1513.15314658393	0
2	577	1540.123159926465	10.465533673011
2	581	1546.559532398319	0
2	590	1593.631743264632	0
2	593	1612.416300588425	0
2	596	1623.988397099659	0
2	629	1690.602733536229	0
2	651	1717.657651786433	0
2	656	1729.379192335771	1.121853919951
2	668	1746.040566456924	0
2	671	1747.589451998191	0.354116829949
2	676	1755.239330915871	6.849485706155
2	683	1773.438522955681	23.2704310022
2	688	1774.851304323575	9.728520560569
2	689	1782.571883686563	15.029925763529
2	692	1795.087810689683	20.941686175491
2	714	1832.144477992951	0
2	724	1860.507320941987	0
2	737	1883.699473873445	0
2	744	1890.243086767736	5.77872535929
2	745	1892.667364198023	6.485522606587
2	757	1913.197721752833	0
2	760	1916.306195807745	3.02424635956
2	763	1923.615709751567	3.17325379393
2	766	1934.941143325119	7.467414374043
2	779	1964.969949338338	0
2	784	1975.922606735842	1.756347044873
2	798	1994.452365368981	0
2	805	2003.186013006887	0
2	818	2040.615125239329	0
2	837	2080.987086470017	0
2	847	2100.91784688331	0
2	862	2129.599279851329	0
2	877	2146.361399156283	13.935218496767
2	878	2153.195665993222	14.42885236989
2	881	2163.357874468146	20.666924551859
2	882	2167.984098964878	23.90110894432
2	890	2183.968035022845	0
2	901	2214.237337116187	0
2	909	2232.344284238071	0
2	915	2254.27334360207	0
2	922	2266.555854746247	0
2	931	2284.15446303664	0
2	946	2300.48471194332	0
2	960	2327.398750057176	0
2	966	2335.312333411039	0
2	971	2348.102139344011	0
2	974	2351.896011637656	0
2	989	2397.305582690173	0
2	998	2421.735659092536	0
2	1003	2436.475699941729	8.451176736766
2	1004	2438.122367114077	6.596133106809
2	1011	2447.718939005172	0
2	1018	2460.326495172043	5.826916124148
2	1019	2460.493151727932	3.135083343165
2	1028	2473.1920250507	0
2	1032	2483.711986540473	0
3	150	384.960072866333	12
3	161	429.044232260014	13
3	167	442.031891301127	14
3	170	453.00281005814	15
3	178	469.860028127792	16
3	181	470.578948685169	17
3	189	487.466026214404	18
3	198	502.340145429808	19
3	204	512.643470502302	20
3	210	541.195667423182	21
3	232	634.985093810384	22
3	242	655.719067654927	23
3	253	678.491506568717	24
3	263	713.578251854548	25
3	277	741.20976264021	26
3	282	745.653322810794	27
3	283	749.613492743512	28
3	291	764.466888516031	29
3	306	829.446683091129	30
3	307	834.149196899025	31
3	315	863.382990531491	32
3	318	872.352293215876	33
3	323	896.372385016415	34
3	327	924.825534035585	35
3	336	968.668271774633	36
3	348	1012.395106324818	37
3	357	1038.127953416156	38
3	370	1049.459124596697	39
3	379	1063.648387323678	40
3	380	1065.121682187135	41
3	396	1103.170473465518	42
3	416	1140.420671742598	43
3	422	1155.061050616642	44
3	426	1164.24993865384	45
3	455	1208.79379626681	46
3	460	1209.808772511091	47
3	464	1211.223854037303	48
3	472	1240.163412485684	49
3	486	1271.184913184241	50
3	487	1283.986704139749	51
3	499	1316.934266620461	52
3	507	1365.792544996696	53
3	525	1402.747474475295	54
3	526	1411.814366135283	55
3	544	1461.090736837767	56
3	553	1479.289926513576	57
3	559	1487.489665181947	58
3	577	1540.123159926465	59
3	578	1541.418075323289	60
3	582	1547.137427893265	61
3	591	1595.171337547105	62
3	594	1617.360648665507	63
3	599	1639.420174755994	64
3	632	1699.76760456918	65
3	656	1729.379192335771	66
3	657	1731.794290695386	67
3	671	1747.589451998191	68
3	676	1755.239330915871	69
3	683	1773.438522955681	70
3	688	1774.851304323575	71
3	689	1782.571883686563	72
3	692	1795.087810689683	73
3	693	1801.166508017864	74
3	717	1835.891140678095	75
3	725	1861.007745519984	76
3	744	1890.243086767736	77
3	745	1892.667364198023	78
3	746	1894.793975697891	79
3	760	1916.306195807745	80
3	763	1923.615709751567	81
3	766	1934.941143325119	82
3	769	1938.089214232699	83
3	784	1975.922606735842	84
3	785	1977.477907517961	85
3	801	1999.696834494892	86
3	806	2004.389273284618	87
3	819	2040.961713911555	88
3	838	2084.778942682387	89
3	848	2107.52998872239	90
3	877	2146.361399156283	91
3	878	2153.195665993222	92
3	881	2163.357874468146	93
3	882	2167.984098964878	94
3	883	2170.512107731012	95
3	899	2203.208594904528	96
3	902	2214.267205478129	97
3	910	2234.516339199592	98
3	920	2261.848952679013	99
3	925	2271.598291738242	100
3	938	2290.872914679466	101
3	949	2306.272386328043	102
3	961	2330.719615852284	103
3	969	2344.859773740734	104
3	972	2348.129774505736	105
3	975	2353.432681240275	106
3	994	2402.870099432434	107
3	1003	2436.475699941729	108
3	1004	2438.122367114077	109
3	1009	2445.502032976248	110
3	1018	2460.326495172043	111
3	1019	2460.493151727932	112
3	1026	2470.90672154048	113
3	1029	2476.331148752229	114
3	1033	2492.293018178609	115
4	150	384.960072866333	1.31825811256
4	161	429.044232260014	9.817471266231
4	167	442.031891301127	6.094434141758
4	170	453.00281005814	11.403032381154
4	178	469.860028127792	0.409730208187
4	181	470.578948685169	0.096934026189
4	189	487.466026214404	0.170782426682
4	198	502.340145429808	1.678472168918
4	204	512.643470502302	0.542946401499
4	210	541.195667423182	8.085110699774
4	232	634.985093810384	41.213307109776
4	242	655.719067654927	11.186502523345
4	253	678.491506568717	2.005546376777
4	263	713.578251854548	10.247965252642
4	277	741.20976264021	15.3066014684
4	282	745.653322810794	14.065146989788
4	283	749.613492743512	5.089072487591
4	291	764.466888516031	5.344868888206
4	306	829.446683091129	35.583547647685
4	307	834.149196899025	18.468187000401
4	315	863.382990531491	0.158386680159
4	318	872.352293215876	2.198901593237
4	323	896.372385016415	14.251921904718
4	327	924.825534035585	1.354375955164
4	336	968.668271774633	1.907275872151
4	348	1012.395106324818	2.710761892046
4	357	1038.127953416156	7.091192420071
4	370	1049.459124596697	2.012840521756
4	379	1063.648387323678	11.610144915906
4	380	1065.121682187135	8.006442116137
4	396	1103.170473465518	20.335052860339
4	416	1140.420671742598	3.40396722515
4	422	1155.061050616642	5.479521498343
4	426	1164.24993865384	4.787674971869
4	455	1208.79379626681	2.306565469815
4	460	1209.808772511091	0.0551772271
4	464	1211.223854037303	0.282346460425
4	472	1240.163412485684	21.454850826449
4	486	1271.184913184241	11.514717878353
4	487	1283.986704139749	16.170932243863
4	499	1316.934266620461	7.090534448713
4	507	1365.792544996696	10.144978568453
4	525	1402.747474475295	0.703188836864
4	526	1411.814366135283	9.550461586624
4	544	1461.090736837767	6.129663877655
4	553	1479.289926513576	19.699104209477
4	559	1487.489665181947	6.961784036827
4	577	1540.123159926465	26.970013342535
4	578	1541.418075323289	11.760449069835
4	582	1547.137427893265	0.577895494946
4	591	1595.171337547105	1.539594282473
4	594	1617.360648665507	4.944348077082
4	599	1639.420174755994	15.431777656335
4	632	1699.76760456918	9.164871032951
4	656	1729.379192335771	11.721540549338
4	657	1731.794290695386	3.536952279566
4	671	1747.589451998191	1.548885541267
4	676	1755.239330915871	8.003995747629
4	683	1773.438522955681	25.048677745965
4	688	1774.851304323575	24.683212370094
4	689	1782.571883686563	17.449099923557
4	692	1795.087810689683	27.545852766649
4	693	1801.166508017864	27.020383503672
4	717	1835.891140678095	3.746662685144
4	725	1861.007745519984	0.500424577997
4	744	1890.243086767736	6.543612894291
4	745	1892.667364198023	8.203002789577
4	746	1894.793975697891	8.612134106455
4	760	1916.306195807745	3.108474054912
4	763	1923.615709751567	10.333760303382
4	766	1934.941143325119	14.498687367482
4	769	1938.089214232699	10.615485281623
4	784	1975.922606735842	10.952657397504
4	785	1977.477907517961	3.311647826992
4	801	1999.696834494892	5.244469125911
4	806	2004.389273284618	1.203260277731
4	819	2040.961713911555	0.346588672226
4	838	2084.778942682387	3.79185621237
4	848	2107.52998872239	6.61214183908
4	877	2146.361399156283	16.762119304954
4	878	2153.195665993222	20.769485333706
4	881	2163.357874468146	24.591060844814
4	882	2167.984098964878	25.293149048591
4	883	2170.512107731012	26.429117710454
4	899	2203.208594904528	19.240559881683
4	902	2214.267205478129	0.029868361942
4	910	2234.516339199592	2.172054961521
4	920	2261.848952679013	7.575609076943
4	925	2271.598291738242	5.042436991995
4	938	2290.872914679466	6.718451642826
4	949	2306.272386328043	5.787674384723
4	961	2330.719615852284	3.320865795108
4	969	2344.859773740734	9.547440329695
4	972	2348.129774505736	0.027635161725
4	975	2353.432681240275	1.536669602619
4	994	2402.870099432434	5.564516742261
4	1003	2436.475699941729	14.740040849193
4	1004	2438.122367114077	10.097843909114
4	1009	2445.502032976248	13.97579896898
4	1018	2460.326495172043	12.607556166871
4	1019	2460.493151727932	5.993572680037
4	1026	2470.90672154048	13.548653155713
4	1029	2476.331148752229	3.139123701529
4	1033	2492.293018178609	8.581031638136
5	152	385.856899874733	1
5	155	408.691715619325	1
5	160	422.13264824982	1
5	169	445.819057629507	1
5	172	454.087649832625	2
5	174	466.825941906207	3
5	184	481.958246252984	2
5	186	484.368239412351	3
5	192	491.184902048821	3
5	200	507.395280976871	1
5	206	530.648492201309	1
5	212	543.588478983341	1
5	215	554.755673435099	1
5	217	555.313263309698	2
5	221	575.587625228941	1
5	224	579.283341760883	1
5	229	596.194993200021	1
5	231	616.827667599831	2
5	236	640.926297437906	1
5	241	649.886856687228	1
5	244	655.991254291414	2
5	246	658.258721181871	3
5	248	661.594702362575	4
5	256	683.557625529397	2
5	262	707.612973189694	1
5	268	731.363546110908	1
5	272	732.555186216837	2
5	274	733.938954235922	3
5	276	734.751258498641	4
5	281	745.076474176766	5
5	288	757.68685211186	3
5	296	790.217733311095	1
5	301	797.60490314529	1
5	303	810.26358369908	2
5	311	844.825138635796	1
5	322	885.099273410516	1
5	329	948.972755669185	1
5	332	950.843979774307	1
5	338	972.02407510722	1
5	341	981.928561880455	1
5	344	1004.842236377678	1
5	350	1025.758625337468	1
5	352	1026.600216556579	2
5	356	1034.755844313557	3
5	361	1042.537682298745	2
5	363	1042.903472205063	3
5	365	1043.289063513605	4
5	367	1046.0639403592	5
5	376	1057.550270121693	6
5	378	1061.03259428033	7
5	383	1070.191146829727	7
5	385	1070.286842594129	8
5	391	1086.027920857735	7
5	393	1094.231740682781	8
5	395	1101.25677937566	9
5	398	1103.206723378744	10
5	400	1106.186864163115	11
5	402	1109.171080301339	12
5	404	1111.387788992762	13
5	408	1121.809931380067	12
5	411	1124.366351542074	12
5	421	1154.570025499484	10
5	430	1167.05463710117	8
5	434	1171.721424202972	7
5	440	1179.208781504965	4
5	443	1186.537198072979	4
5	445	1187.891230891189	5
5	448	1202.67566319902	5
5	451	1204.01364622619	5
5	457	1209.213125572176	5
5	466	1212.525211650875	5
5	474	1243.543414230326	3
5	476	1246.956304856231	4
5	478	1248.25184246608	5
5	485	1268.876528944801	5
5	489	1288.324820709837	6
5	498	1311.522300834359	2
5	503	1347.919863570171	1
5	509	1374.868030005294	1
5	512	1379.578036641553	1
5	514	1380.636937306802	2
5	518	1392.15735548521	1
5	524	1402.608920941986	2
5	530	1422.721074296431	1
5	533	1434.530211434858	1
5	536	1447.566384208322	1
5	543	1460.540129749878	1
5	546	1465.639866408089	2
5	548	1466.106117658667	3
5	550	1471.368291647667	4
5	552	1478.976951480305	5
5	558	1486.661311713835	5
5	563	1498.512310193738	4
5	565	1505.425528053387	5
5	570	1510.933478874596	3
5	574	1521.879486692066	4
5	586	1563.378368305413	2
5	598	1639.056986888519	1
5	601	1643.095036236944	2
5	604	1645.546022462589	2
5	608	1661.634814004436	1
5	610	1671.579912758762	2
5	613	1672.025614561915	2
5	615	1673.769670837592	3
5	618	1679.416565973792	3
5	621	1681.617957238574	3
5	623	1681.707524378777	4
5	627	1688.170722645438	3
5	631	1692.82202740727	4
5	634	1702.191657967471	5
5	637	1704.833006367118	5
5	639	1705.599151971544	6
5	644	1710.030724900868	4
5	647	1713.741763839065	4
5	649	1714.940245213364	5
5	655	1728.87665711158	6
5	659	1733.694104865433	7
5	663	1740.128382121185	6
5	678	1761.815259399482	4
5	685	1773.795755106873	5
5	691	1792.918935437412	6
5	695	1802.277444354918	7
5	697	1803.676666182345	8
5	700	1813.440534849893	8
5	702	1814.60925833719	9
5	706	1820.402365016173	8
5	708	1821.614431305861	9
5	712	1827.149029616638	8
5	716	1833.437028583181	9
5	731	1876.226428141584	1
5	734	1879.711272229701	1
5	739	1883.806687998546	1
5	748	1902.470646176537	2
5	752	1907.529091213011	1
5	754	1908.263601933055	2
5	768	1935.123759178274	2
5	771	1938.497859420328	3
5	776	1962.257532328165	1
5	781	1969.299355942594	1
5	788	1984.117516746036	1
5	790	1986.044914204507	2
5	792	1989.687237629296	3
5	794	1990.620009507669	4
5	796	1991.781384648472	5
5	800	1995.076524006025	6
5	808	2008.288417313999	5
5	810	2009.93813881571	6
5	813	2025.56978282973	6
5	816	2040.550524347734	6
5	822	2054.211906877718	6
5	825	2065.159803241648	6
5	827	2072.225498533218	7
5	835	2080.539873363293	2
5	840	2087.090379295645	3
5	842	2088.891266320457	4
5	851	2113.982284071148	1
5	853	2114.816664513199	2
5	855	2115.391268542159	3
5	857	2116.680605292526	4
5	866	2134.837579236397	2
5	870	2139.045435916166	3
5	874	2143.647369207872	4
5	880	2157.816230141225	5
5	885	2178.162557058013	6
5	887	2180.332846172576	7
5	892	2186.758955664257	7
5	894	2191.137331745992	8
5	896	2194.998118816962	9
5	898	2196.124755564521	10
5	904	2215.071349859126	11
5	917	2255.125267489965	6
5	919	2258.251636537411	7
5	924	2269.820350887882	8
5	928	2275.391187735827	8
5	933	2285.943208414918	8
5	935	2288.567040384363	9
5	937	2288.72831507386	10
5	942	2295.55461015028	9
5	944	2295.615227937649	10
5	948	2305.385790729079	11
5	953	2311.454745772018	10
5	956	2319.928991314839	10
5	968	2339.568903514049	6
5	978	2361.142496454305	6
5	982	2373.270587371442	5
5	991	2400.670039269132	1
5	993	2401.423215500016	2
5	1006	2440.135947521906	1
5	1008	2443.649004060011	2
5	1013	2448.608729818361	3
5	1021	2460.892213925155	4
5	1023	2464.399823215664	5
5	1025	2465.102922889915	6
5	1039	2496.33997144847	2
6	152	385.856899874733	0
6	153	392.729268391305	0
6	155	408.691715619325	0
6	156	418.529035532523	0
6	160	422.13264824982	0
6	162	432.054488931703	0
6	169	445.819057629507	0
6	172	454.087649832625	1
6	174	466.825941906207	2
6	175	468.8121174124	2
6	182	470.907325216106	1
6	184	481.958246252984	1
6	186	484.368239412351	2
6	190	487.719214788947	2
6	192	491.184902048821	2
6	193	493.16422802658	2
6	194	495.320280874222	1
6	195	497.050194866757	0
6	200	507.395280976871	0
6	201	510.436254432221	0
6	206	530.648492201309	0
6	207	530.994166226931	0
6	212	543.588478983341	0
6	213	548.264191836287	0
6	215	554.755673435099	0
6	217	555.313263309698	1
6	218	561.71032848642	1
6	219	574.477919931109	0
6	221	575.587625228941	0
6	222	575.917103906412	0
6	224	579.283341760883	0
6	225	579.663445234593	0
6	229	596.194993200021	0
6	231	616.827667599831	1
6	233	637.812456117612	1
6	234	639.857911445318	0
6	236	640.926297437906	0
6	237	643.190436648096	0
6	241	649.886856687228	0
6	244	655.991254291414	1
6	246	658.258721181871	2
6	248	661.594702362575	3
6	249	669.204496790429	3
6	250	670.028702103447	2
6	254	682.447626220803	1
6	256	683.557625529397	1
6	257	687.460931773791	1
6	258	693.016052573405	0
6	262	707.612973189694	0
6	264	716.506833261955	0
6	268	731.363546110908	0
6	272	732.555186216837	1
6	274	733.938954235922	2
6	276	734.751258498641	3
6	281	745.076474176766	4
6	284	751.730648868037	4
6	285	751.914286809888	3
6	286	752.426080852291	2
6	288	757.68685211186	2
6	292	768.069416085265	2
6	293	769.665573456752	1
6	294	771.62464611035	0
6	296	790.217733311095	0
6	297	790.261576990696	0
6	301	797.60490314529	0
6	303	810.26358369908	1
6	308	835.074735402084	1
6	309	836.167895587212	0
6	311	844.825138635796	0
6	312	849.99445729206	0
6	322	885.099273410516	0
6	324	899.539391559309	0
6	329	948.972755669185	0
6	330	949.541629639123	0
6	332	950.843979774307	0
6	333	952.373569419326	0
6	338	972.02407510722	0
6	339	974.203014488277	0
6	341	981.928561880455	0
6	342	985.358571796312	0
6	344	1004.842236377678	0
6	345	1007.27862549976	0
6	350	1025.758625337468	0
6	352	1026.600216556579	1
6	356	1034.755844313557	2
6	358	1041.076899887445	2
6	359	1041.396393400879	1
6	361	1042.537682298745	1
6	363	1042.903472205063	2
6	365	1043.289063513605	3
6	367	1046.0639403592	4
6	376	1057.550270121693	5
6	378	1061.03259428033	6
6	381	1067.306555984358	6
6	383	1070.191146829727	6
6	385	1070.286842594129	7
6	386	1073.84201309668	7
6	387	1080.065236847411	6
6	391	1086.027920857735	6
6	393	1094.231740682781	7
6	395	1101.25677937566	8
6	398	1103.206723378744	9
6	400	1106.186864163115	10
6	402	1109.171080301339	11
6	404	1111.387788992762	12
6	405	1119.464122013954	12
6	406	1121.335662808896	11
6	408	1121.809931380067	11
6	409	1122.038614608142	11
6	411	1124.366351542074	11
6	412	1133.295947547415	11
6	413	1135.329358149294	10
6	417	1148.066269334663	9
6	421	1154.570025499484	9
6	423	1156.58011019548	9
6	427	1166.10151343948	8
6	428	1166.627857590591	7
6	430	1167.05463710117	7
6	431	1167.321011623108	7
6	432	1170.012254491301	6
6	434	1171.721424202972	6
6	435	1172.754644126637	6
6	436	1176.256648151793	5
6	437	1176.87014221355	4
6	438	1178.378043067061	3
6	440	1179.208781504965	3
6	441	1179.478954920791	3
6	443	1186.537198072979	3
6	445	1187.891230891189	4
6	446	1193.526466380559	4
6	448	1202.67566319902	4
6	449	1202.918260871684	4
6	451	1204.01364622619	4
6	452	1205.205023791315	4
6	457	1209.213125572176	4
6	461	1209.934125012143	4
6	466	1212.525211650875	4
6	467	1213.551450381591	4
6	468	1214.855368136587	3
6	469	1216.748225925073	2
6	474	1243.543414230326	2
6	476	1246.956304856231	3
6	478	1248.25184246608	4
6	479	1254.878534828011	4
6	485	1268.876528944801	4
6	489	1288.324820709837	5
6	490	1292.698785227611	5
6	491	1294.169116913603	4
6	492	1295.596396143002	3
6	493	1300.287229897283	2
6	494	1306.471493521762	1
6	498	1311.522300834359	1
6	500	1321.416769420609	1
6	501	1321.673111714723	0
6	503	1347.919863570171	0
6	504	1351.498780959691	0
6	509	1374.868030005294	0
6	510	1375.591678938516	0
6	512	1379.578036641553	0
6	514	1380.636937306802	1
6	515	1380.883150806873	1
6	516	1384.414373081822	0
6	518	1392.15735548521	0
6	524	1402.608920941986	1
6	527	1413.555632267568	1
6	528	1418.002319746358	0
6	530	1422.721074296431	0
6	531	1426.130284316771	0
6	533	1434.530211434858	0
6	534	1436.509507929456	0
6	536	1447.566384208322	0
6	537	1451.4536028752	0
6	543	1460.540129749878	0
6	546	1465.639866408089	1
6	548	1466.106117658667	2
6	550	1471.368291647667	3
6	552	1478.976951480305	4
6	554	1480.072110581913	4
6	558	1486.661311713835	4
6	560	1488.979259894047	4
6	561	1497.640929998785	3
6	563	1498.512310193738	3
6	565	1505.425528053387	4
6	566	1507.381098259976	4
6	567	1508.176326102253	3
6	568	1508.296146152126	2
6	570	1510.933478874596	2
6	574	1521.879486692066	3
6	579	1541.470996874038	3
6	583	1548.040077514417	2
6	584	1548.908207083235	1
6	586	1563.378368305413	1
6	587	1576.793906182048	1
6	588	1578.71821770398	0
6	598	1639.056986888519	0
6	601	1643.095036236944	1
6	602	1644.45485837861	1
6	604	1645.546022462589	1
6	605	1647.475123674029	1
6	606	1647.648170003315	0
6	608	1661.634814004436	0
6	610	1671.579912758762	1
6	611	1671.745289905885	1
6	613	1672.025614561915	1
6	615	1673.769670837592	2
6	616	1674.857415053656	2
6	618	1679.416565973792	2
6	619	1679.945188011615	2
6	621	1681.617957238574	2
6	623	1681.707524378777	3
6	624	1682.413846320711	3
6	625	1684.430375778165	2
6	627	1688.170722645438	2
6	631	1692.82202740727	3
6	634	1702.191657967471	4
6	635	1703.671790888851	4
6	637	1704.833006367118	4
6	639	1705.599151971544	5
6	640	1707.080315507655	5
6	641	1707.14655605498	4
6	642	1707.742297323892	3
6	644	1710.030724900868	3
6	645	1710.491020152586	3
6	647	1713.741763839065	3
6	649	1714.940245213364	4
6	655	1728.87665711158	5
6	659	1733.694104865433	6
6	660	1734.895277952904	6
6	661	1736.143560387317	5
6	663	1740.128382121185	5
6	664	1740.930467200988	5
6	665	1744.548233873878	4
6	666	1745.859944225677	3
6	678	1761.815259399482	3
6	685	1773.795755106873	4
6	691	1792.918935437412	5
6	695	1802.277444354918	6
6	697	1803.676666182345	7
6	698	1804.900173706949	7
6	700	1813.440534849893	7
6	702	1814.60925833719	8
6	703	1818.921902667738	8
6	704	1820.140243429411	7
6	706	1820.402365016173	7
6	708	1821.614431305861	8
6	709	1821.762587106944	8
6	710	1823.01371066739	7
6	712	1827.149029616638	7
6	716	1833.437028583181	8
6	718	1837.952108488067	8
6	719	1840.679426823005	7
6	720	1841.848554478449	6
6	721	1856.729625075751	5
6	722	1859.598358703701	4
6	726	1861.758555801651	3
6	727	1864.36677990251	2
6	728	1867.651308425494	1
6	729	1874.462263548244	0
6	731	1876.226428141584	0
6	732	1878.04591331518	0
6	734	1879.711272229701	0
6	735	1879.77123812407	0
6	739	1883.806687998546	0
6	748	1902.470646176537	1
6	749	1903.836707641488	1
6	750	1904.144599654246	0
6	752	1907.529091213011	0
6	754	1908.263601933055	1
6	755	1911.0066559879	1
6	768	1935.123759178274	1
6	771	1938.497859420328	2
6	772	1944.633544272308	2
6	773	1945.457895104454	1
6	774	1948.050814929287	0
6	776	1962.257532328165	0
6	777	1962.765882665989	0
6	781	1969.299355942594	0
6	786	1977.750996889856	0
6	788	1984.117516746036	0
6	790	1986.044914204507	1
6	792	1989.687237629296	2
6	794	1990.620009507669	3
6	796	1991.781384648472	4
6	800	1995.076524006025	5
6	802	2001.199921710692	5
6	803	2002.015108805819	4
6	808	2008.288417313999	4
6	810	2009.93813881571	5
6	811	2019.642421381331	5
6	813	2025.56978282973	5
6	814	2027.068706561301	5
6	816	2040.550524347734	5
6	820	2041.441327099416	5
6	822	2054.211906877718	5
6	823	2063.114667108785	5
6	825	2065.159803241648	5
6	827	2072.225498533218	6
6	828	2074.318795706393	6
6	829	2076.271039243886	5
6	830	2077.401085480936	4
6	831	2078.20484029018	3
6	832	2079.015799354366	2
6	833	2079.544606798655	1
6	835	2080.539873363293	1
6	840	2087.090379295645	2
6	842	2088.891266320457	3
6	843	2089.034303336835	3
6	844	2094.112399296532	2
6	845	2095.912879818464	1
6	849	2109.364885208318	0
6	851	2113.982284071148	0
6	853	2114.816664513199	1
6	855	2115.391268542159	2
6	857	2116.680605292526	3
6	858	2119.389106145292	3
6	859	2123.980074866156	2
6	860	2127.431992553152	1
6	866	2134.837579236397	1
6	870	2139.045435916166	2
6	874	2143.647369207872	3
6	880	2157.816230141225	4
6	885	2178.162557058013	5
6	887	2180.332846172576	6
6	888	2180.342478462079	6
6	892	2186.758955664257	6
6	894	2191.137331745992	7
6	896	2194.998118816962	8
6	898	2196.124755564521	9
6	904	2215.071349859126	10
6	905	2222.904612552921	10
6	906	2227.027343653942	9
6	907	2227.868153068424	8
6	911	2236.202055841819	7
6	912	2246.025331922015	6
6	913	2247.898641224488	5
6	917	2255.125267489965	5
6	919	2258.251636537411	6
6	924	2269.820350887882	7
6	926	2274.519465961715	7
6	928	2275.391187735827	7
6	929	2282.225620545933	7
6	933	2285.943208414918	7
6	935	2288.567040384363	8
6	937	2288.72831507386	9
6	939	2290.996797655741	9
6	940	2292.198568636658	8
6	942	2295.55461015028	8
6	944	2295.615227937649	9
6	948	2305.385790729079	10
6	950	2308.93681955789	10
6	951	2310.63762549404	9
6	953	2311.454745772018	9
6	954	2317.662468518644	9
6	956	2319.928991314839	9
6	957	2322.331814586806	9
6	958	2323.92900486049	8
6	962	2332.148040986334	7
6	963	2332.153641645315	6
6	964	2332.226543205298	5
6	968	2339.568903514049	5
6	976	2361.039678390137	5
6	978	2361.142496454305	5
6	979	2363.736557893268	5
6	980	2363.815621889356	4
6	982	2373.270587371442	4
6	983	2373.712546339607	4
6	984	2375.928060576871	3
6	985	2376.858506929292	2
6	986	2380.83467445219	1
6	987	2382.334396542626	0
6	991	2400.670039269132	0
6	993	2401.423215500016	1
6	995	2406.179048911414	1
6	996	2416.260999216089	0
6	1006	2440.135947521906	0
6	1008	2443.649004060011	1
6	1013	2448.608729818361	2
6	1021	2460.892213925155	3
6	1023	2464.399823215664	4
6	1025	2465.102922889915	5
6	1030	2481.885090911042	5
6	1034	2493.167112433184	4
6	1035	2494.949129906514	3
6	1036	2495.24009210564	2
6	1037	2495.735035575591	1
6	1039	2496.33997144847	1
7	152	385.856899874733	0
7	155	408.691715619325	0
7	161	429.044232260014	6.911584010194
7	170	453.00281005814	7.183752428633
7	175	468.8121174124	14.724467579775
7	178	469.860028127792	3.034086221585
7	181	470.578948685169	1.128650765564
7	182	470.907325216106	0.425310557126
7	189	487.466026214404	5.50777996142
7	190	487.719214788947	3.350975376596
7	193	493.16422802658	5.868984238858
7	194	495.320280874222	4.135378825401
7	200	507.395280976871	0
7	206	530.648492201309	0
7	212	543.588478983341	0
7	215	554.755673435099	0
7	218	561.71032848642	6.397065176722
7	221	575.587625228941	0
7	224	579.283341760883	0
7	232	634.985093810384	38.790100610363
7	233	637.812456117612	20.984788517781
7	236	640.926297437906	0
7	242	655.719067654927	5.832210967699
7	249	669.204496790429	13.213242499015
7	250	670.028702103447	11.769980921576
7	253	678.491506568717	16.896804206142
7	254	682.447626220803	5.961666028863
7	257	687.460931773791	3.903306244394
7	263	713.578251854548	5.965278664854
7	283	749.613492743512	18.249946632604
7	284	751.730648868037	19.1754626512
7	285	751.914286809888	17.975332573966
7	286	752.426080852291	17.67482235365
7	291	764.466888516031	19.390414339265
7	292	768.069416085265	10.382563973405
7	293	769.665573456752	10.543553828927
7	296	790.217733311095	0
7	307	834.149196899025	36.544293753735
7	308	835.074735402084	24.811151703004
7	311	844.825138635796	0
7	323	896.372385016415	11.273111605899
7	329	948.972755669185	0
7	332	950.843979774307	0
7	338	972.02407510722	0
7	341	981.928561880455	0
7	344	1004.842236377678	0
7	350	1025.758625337468	0
7	357	1038.127953416156	11.527736859577
7	358	1041.076899887445	10.04013889136
7	359	1041.396393400879	6.640549087322
7	370	1049.459124596697	6.921442297952
7	380	1065.121682187135	22.218209982072
7	381	1067.306555984358	24.017492470753
7	386	1073.84201309668	27.77807273748
7	387	1080.065236847411	32.61895277247
7	396	1103.170473465518	51.132231057746
7	405	1119.464122013954	61.913851892261
7	406	1121.335662808896	60.303068528566
7	409	1122.038614608142	51.847467778415
7	412	1133.295947547415	63.009104953286
7	413	1135.329358149294	52.493937544115
7	416	1140.420671742598	54.392750884863
7	417	1148.066269334663	53.834528651882
7	422	1155.061050616642	53.804271240982
7	423	1156.58011019548	53.373386816736
7	426	1164.24993865384	58.063074490725
7	427	1166.10151343948	56.930433138141
7	428	1166.627857590591	55.240068597829
7	431	1167.321011623108	45.511080243041
7	432	1170.012254491301	45.645902949227
7	435	1172.754644126637	35.737939609189
7	436	1176.256648151793	26.675119033494
7	437	1176.87014221355	22.300116714066
7	438	1178.378043067061	18.91577938509
7	441	1179.478954920791	12.424317819621
7	446	1193.526466380559	21.805042177587
7	449	1202.918260871684	23.709479366719
7	452	1205.205023791315	18.667825718336
7	455	1208.79379626681	20.902565375621
7	460	1209.808772511091	7.133109312071
7	461	1209.934125012143	5.920478785953
7	464	1211.223854037303	4.736623240308
7	467	1213.551450381591	4.338324809415
7	468	1214.855368136587	5.101772852596
7	469	1216.748225925073	5.806718348195
7	472	1240.163412485684	27.638200834809
7	479	1254.878534828011	36.169973168776
7	487	1283.986704139749	40.443289909423
7	490	1292.698785227611	45.74248037138
7	491	1294.169116913603	45.917274447523
7	492	1295.596396143002	35.926200837114
7	493	1300.287229897283	31.410700952482
7	494	1306.471493521762	18.146672811925
7	499	1316.934266620461	7.090534448713
7	500	1321.416769420609	9.89446858625
7	503	1347.919863570171	0
7	509	1374.868030005294	0
7	512	1379.578036641553	0
7	515	1380.883150806873	0.246213500071
7	518	1392.15735548521	0
7	526	1411.814366135283	9.770080496852
7	527	1413.555632267568	10.946711325582
7	530	1422.721074296431	0
7	533	1434.530211434858	0
7	536	1447.566384208322	0
7	553	1479.289926513576	18.749796763698
7	554	1480.072110581913	14.432244173824
7	559	1487.489665181947	21.38354752328
7	560	1488.979259894047	17.61096824638
7	561	1497.640929998785	18.66397851848
7	566	1507.381098259976	26.853217114856
7	567	1508.176326102253	21.515014388418
7	568	1508.296146152126	9.783835958388
7	578	1541.418075323289	35.992547269902
7	579	1541.470996874038	30.537517999442
7	582	1547.137427893265	33.984281309335
7	583	1548.040077514417	26.160590822351
7	584	1548.908207083235	2.348674684916
7	587	1576.793906182048	13.415537876635
7	599	1639.420174755994	0.363187867475
7	602	1644.45485837861	1.359822141666
7	605	1647.475123674029	1.92910121144
7	608	1661.634814004436	0
7	611	1671.745289905885	0.165377147123
7	616	1674.857415053656	2.831800491741
7	619	1679.945188011615	6.175517174023
7	624	1682.413846320711	2.997280346919
7	625	1684.430375778165	2.812418539591
7	632	1699.76760456918	18.060080190403
7	635	1703.671790888851	15.501068243413
7	640	1707.080315507655	16.477581971426
7	641	1707.14655605498	14.32452864771
7	642	1707.742297323892	5.550639356421
7	645	1710.491020152586	5.658013785468
7	657	1731.794290695386	26.195138723842
7	660	1734.895277952904	24.864553052036
7	661	1736.143560387317	22.401796548252
7	664	1740.930467200988	25.990221987624
7	665	1744.548233873878	26.890582087445
7	666	1745.859944225677	16.983287114097
7	693	1801.166508017864	67.472403152431
7	698	1804.900173706949	64.771791585764
7	703	1818.921902667738	72.881336210814
7	704	1820.140243429411	58.324984029929
7	709	1821.762587106944	47.966832000071
7	710	1823.01371066739	30.094775229978
7	717	1835.891140678095	33.613696323177
7	718	1837.952108488067	34.275442305722
7	719	1840.679426823005	27.238891973112
7	720	1841.848554478449	27.239296141259
7	721	1856.729625075751	36.327260059578
7	722	1859.598358703701	37.98392739784
7	725	1861.007745519984	33.858715903346
7	726	1861.758555801651	29.6140778087
7	727	1864.36677990251	30.929751319329
7	728	1867.651308425494	7.143987483507
7	731	1876.226428141584	0
7	734	1879.711272229701	0
7	746	1894.793975697891	10.987287699345
7	749	1903.836707641488	1.366061464951
7	752	1907.529091213011	0
7	755	1911.0066559879	2.743054054845
7	769	1938.089214232699	24.891492479866
7	772	1944.633544272308	9.509785094034
7	773	1945.457895104454	6.960035684126
7	776	1962.257532328165	0
7	785	1977.477907517961	8.178551575367
7	788	1984.117516746036	0
7	801	1999.696834494892	13.651920290385
7	802	2001.199921710692	11.512684081396
7	803	2002.015108805819	11.39509929815
7	806	2004.389273284618	12.607888636146
7	811	2019.642421381331	25.19005601235
7	814	2027.068706561301	31.992182555276
7	819	2040.961713911555	37.775700904668
7	820	2041.441327099416	33.152909785417
7	823	2063.114667108785	53.176528293075
7	828	2074.318795706393	48.749012876663
7	829	2076.271039243886	35.720514896152
7	830	2077.401085480936	36.785960241607
7	831	2078.20484029018	23.992933412462
7	832	2079.015799354366	13.855996112718
7	833	2079.544606798655	7.319108265437
7	838	2084.778942682387	4.239069319094
7	843	2089.034303336835	8.047216866818
7	844	2094.112399296532	7.022020000887
7	845	2095.912879818464	7.021613498007
7	848	2107.52998872239	6.61214183908
7	851	2113.982284071148	0
7	858	2119.389106145292	4.572441632093
7	859	2123.980074866156	8.588806323997
7	860	2127.431992553152	10.751387260626
7	883	2170.512107731012	40.912827879683
7	888	2180.342478462079	45.504899225682
7	899	2203.208594904528	64.163158988362
7	902	2214.267205478129	70.619836270257
7	905	2222.904612552921	65.088382411696
7	906	2227.027343653942	48.864786595929
7	907	2227.868153068424	47.535306895848
7	910	2234.516339199592	50.548304176747
7	911	2236.202055841819	49.443100177562
7	912	2246.025331922015	54.888000176023
7	913	2247.898641224488	52.900522407526
7	920	2261.848952679013	65.724197114492
7	925	2271.598291738242	57.360954622055
7	926	2274.519465961715	59.448116102589
7	929	2282.225620545933	49.881336307862
7	938	2290.872914679466	36.599571077396
7	939	2290.996797655741	35.871530165776
7	940	2292.198568636658	33.946932099247
7	949	2306.272386328043	39.716531581796
7	950	2308.93681955789	39.116468670008
7	951	2310.63762549404	35.246437758213
7	954	2317.662468518644	33.508005482004
7	957	2322.331814586806	36.388606171888
7	958	2323.92900486049	35.361964476127
7	961	2330.719615852284	41.991300778424
7	962	2332.148040986334	36.593430836054
7	963	2332.153641645315	36.538413707666
7	964	2332.226543205298	31.741831261978
7	969	2344.859773740734	39.473983011655
7	972	2348.129774505736	36.675028733718
7	975	2353.432681240275	33.503689925436
7	976	2361.039678390137	33.640928332961
7	979	2363.736557893268	28.424224482229
7	980	2363.815621889356	24.246718375307
7	983	2373.712546339607	25.610406995596
7	984	2375.928060576871	24.032048939215
7	985	2376.858506929292	15.716010474987
7	986	2380.83467445219	7.564087080748
7	994	2402.870099432434	2.200060163302
7	995	2406.179048911414	4.755833411398
7	1009	2445.502032976248	5.366085454342
7	1026	2470.90672154048	27.257717480469
7	1029	2476.331148752229	28.612209747057
7	1030	2481.885090911042	33.276361092681
7	1033	2492.293018178609	31.400804253454
7	1034	2493.167112433184	28.76728921752
7	1035	2494.949129906514	29.846207016599
7	1036	2495.24009210564	22.04806705494
7	1037	2495.735035575591	12.023049035118
8	153	392.729268391305	39
8	156	418.529035532523	40
8	162	432.054488931703	41
8	175	468.8121174124	42
8	182	470.907325216106	43
8	190	487.719214788947	44
8	193	493.16422802658	45
8	194	495.320280874222	46
8	195	497.050194866757	47
8	201	510.436254432221	48
8	207	530.994166226931	49
8	213	548.264191836287	50
8	218	561.71032848642	51
8	219	574.477919931109	52
8	222	575.917103906412	53
8	225	579.663445234593	54
8	233	637.812456117612	55
8	234	639.857911445318	56
8	237	643.190436648096	57
8	249	669.204496790429	58
8	250	670.028702103447	59
8	254	682.447626220803	60
8	257	687.460931773791	61
8	258	693.016052573405	62
8	264	716.506833261955	63
8	284	751.730648868037	64
8	285	751.914286809888	65
8	286	752.426080852291	66
8	292	768.069416085265	67
8	293	769.665573456752	68
8	294	771.62464611035	69
8	297	790.261576990696	70
8	308	835.074735402084	71
8	309	836.167895587212	72
8	312	849.99445729206	73
8	324	899.539391559309	74
8	330	949.541629639123	75
8	333	952.373569419326	76
8	339	974.203014488277	77
8	342	985.358571796312	78
8	345	1007.27862549976	79
8	358	1041.076899887445	80
8	359	1041.396393400879	81
8	381	1067.306555984358	82
8	386	1073.84201309668	83
8	387	1080.065236847411	84
8	405	1119.464122013954	85
8	406	1121.335662808896	86
8	409	1122.038614608142	87
8	412	1133.295947547415	88
8	413	1135.329358149294	89
8	417	1148.066269334663	90
8	423	1156.58011019548	91
8	427	1166.10151343948	92
8	428	1166.627857590591	93
8	431	1167.321011623108	94
8	432	1170.012254491301	95
8	435	1172.754644126637	96
8	436	1176.256648151793	97
8	437	1176.87014221355	98
8	438	1178.378043067061	99
8	441	1179.478954920791	100
8	446	1193.526466380559	101
8	449	1202.918260871684	102
8	452	1205.205023791315	103
8	461	1209.934125012143	104
8	467	1213.551450381591	105
8	468	1214.855368136587	106
8	469	1216.748225925073	107
8	479	1254.878534828011	108
8	490	1292.698785227611	109
8	491	1294.169116913603	110
8	492	1295.596396143002	111
8	493	1300.287229897283	112
8	494	1306.471493521762	113
8	500	1321.416769420609	114
8	501	1321.673111714723	115
8	504	1351.498780959691	116
8	510	1375.591678938516	117
8	515	1380.883150806873	118
8	516	1384.414373081822	119
8	527	1413.555632267568	120
8	528	1418.002319746358	121
8	531	1426.130284316771	122
8	534	1436.509507929456	123
8	537	1451.4536028752	124
8	554	1480.072110581913	125
8	560	1488.979259894047	126
8	561	1497.640929998785	127
8	566	1507.381098259976	128
8	567	1508.176326102253	129
8	568	1508.296146152126	130
8	579	1541.470996874038	131
8	583	1548.040077514417	132
8	584	1548.908207083235	133
8	587	1576.793906182048	134
8	588	1578.71821770398	135
8	602	1644.45485837861	136
8	605	1647.475123674029	137
8	606	1647.648170003315	138
8	611	1671.745289905885	139
8	616	1674.857415053656	140
8	619	1679.945188011615	141
8	624	1682.413846320711	142
8	625	1684.430375778165	143
8	635	1703.671790888851	144
8	640	1707.080315507655	145
8	641	1707.14655605498	146
8	642	1707.742297323892	147
8	645	1710.491020152586	148
8	660	1734.895277952904	149
8	661	1736.143560387317	150
8	664	1740.930467200988	151
8	665	1744.548233873878	152
8	666	1745.859944225677	153
8	698	1804.900173706949	154
8	703	1818.921902667738	155
8	704	1820.140243429411	156
8	709	1821.762587106944	157
8	710	1823.01371066739	158
8	718	1837.952108488067	159
8	719	1840.679426823005	160
8	720	1841.848554478449	161
8	721	1856.729625075751	162
8	722	1859.598358703701	163
8	726	1861.758555801651	164
8	727	1864.36677990251	165
8	728	1867.651308425494	166
8	729	1874.462263548244	167
8	732	1878.04591331518	168
8	735	1879.77123812407	169
8	749	1903.836707641488	170
8	750	1904.144599654246	171
8	755	1911.0066559879	172
8	772	1944.633544272308	173
8	773	1945.457895104454	174
8	774	1948.050814929287	175
8	777	1962.765882665989	176
8	786	1977.750996889856	177
8	802	2001.199921710692	178
8	803	2002.015108805819	179
8	811	2019.642421381331	180
8	814	2027.068706561301	181
8	820	2041.441327099416	182
8	823	2063.114667108785	183
8	828	2074.318795706393	184
8	829	2076.271039243886	185
8	830	2077.401085480936	186
8	831	2078.20484029018	187
8	832	2079.015799354366	188
8	833	2079.544606798655	189
8	843	2089.034303336835	190
8	844	2094.112399296532	191
8	845	2095.912879818464	192
8	849	2109.364885208318	193
8	858	2119.389106145292	194
8	859	2123.980074866156	195
8	860	2127.431992553152	196
8	888	2180.342478462079	197
8	905	2222.904612552921	198
8	906	2227.027343653942	199
8	907	2227.868153068424	200
8	911	2236.202055841819	201
8	912	2246.025331922015	202
8	913	2247.898641224488	203
8	926	2274.519465961715	204
8	929	2282.225620545933	205
8	939	2290.996797655741	206
8	940	2292.198568636658	207
8	950	2308.93681955789	208
8	951	2310.63762549404	209
8	954	2317.662468518644	210
8	957	2322.331814586806	211
8	958	2323.92900486049	212
8	962	2332.148040986334	213
8	963	2332.153641645315	214
8	964	2332.226543205298	215
8	976	2361.039678390137	216
8	979	2363.736557893268	217
8	980	2363.815621889356	218
8	983	2373.712546339607	219
8	984	2375.928060576871	220
8	985	2376.858506929292	221
8	986	2380.83467445219	222
8	987	2382.334396542626	223
8	995	2406.179048911414	224
8	996	2416.260999216089	225
8	1030	2481.885090911042	226
8	1034	2493.167112433184	227
8	1035	2494.949129906514	228
8	1036	2495.24009210564	229
8	1037	2495.735035575591	230
9	153	392.729268391305	6.872368516572
9	156	418.529035532523	9.837319913198
9	162	432.054488931703	9.921840681883
9	175	468.8121174124	22.993059782893
9	182	470.907325216106	1.457027296501
9	190	487.719214788947	5.760968535963
9	193	493.16422802658	8.795988614229
9	194	495.320280874222	8.0250370865
9	195	497.050194866757	5.865292817936
9	201	510.436254432221	3.04097345535
9	207	530.994166226931	0.345674025622
9	213	548.264191836287	4.675712852946
9	218	561.71032848642	6.954655051321
9	219	574.477919931109	19.164656621411
9	222	575.917103906412	0.329478677471
9	225	579.663445234593	0.38010347371
9	233	637.812456117612	41.617462917591
9	234	639.857911445318	23.030243845487
9	237	643.190436648096	2.26413921019
9	249	669.204496790429	19.317640103201
9	250	670.028702103447	14.037447812033
9	254	682.447626220803	20.852923858228
9	257	687.460931773791	10.974971581851
9	258	693.016052573405	9.458427044008
9	264	716.506833261955	8.893860072261
9	284	751.730648868037	20.367102757129
9	285	751.914286809888	19.359100593051
9	286	752.426080852291	18.487126616369
9	292	768.069416085265	22.992941908499
9	293	769.665573456752	11.978721344892
9	294	771.62464611035	12.502626482525
9	297	790.261576990696	0.043843679601
9	308	835.074735402084	37.469832256794
9	309	836.167895587212	25.904311888132
9	312	849.99445729206	5.169318656264
9	324	899.539391559309	14.440118148793
9	330	949.541629639123	0.568873969938
9	333	952.373569419326	1.529589645019
9	339	974.203014488277	2.178939381057
9	342	985.358571796312	3.430009915857
9	345	1007.27862549976	2.436389122082
9	358	1041.076899887445	14.476683330866
9	359	1041.396393400879	10.359632404794
9	381	1067.306555984358	24.403083779295
9	386	1073.84201309668	30.552949583075
9	387	1080.065236847411	34.001296488211
9	405	1119.464122013954	67.425879606182
9	406	1121.335662808896	63.785392687203
9	409	1122.038614608142	61.006020327812
9	412	1133.295947547415	63.104800717688
9	413	1135.329358149294	65.042515555165
9	417	1148.066269334663	62.038348476928
9	423	1156.58011019548	55.32333081982
9	427	1166.10151343948	59.914649276365
9	428	1166.627857590591	57.456777289252
9	431	1167.321011623108	55.933222630346
9	432	1170.012254491301	48.202323111234
9	435	1172.754644126637	48.388292584563
9	436	1176.256648151793	39.239943634345
9	437	1176.87014221355	27.288613095251
9	438	1178.378043067061	23.808017567577
9	441	1179.478954920791	20.01669123882
9	446	1193.526466380559	26.471829279389
9	449	1202.918260871684	31.196836668712
9	452	1205.205023791315	25.99624228635
9	461	1209.934125012143	7.258461813123
9	467	1213.551450381591	7.064219584596
9	468	1214.855368136587	5.642242564411
9	469	1216.748225925073	6.994630641082
9	479	1254.878534828011	42.353323177136
9	490	1292.698785227611	49.155370997285
9	491	1294.169116913603	47.212812057372
9	492	1295.596396143002	47.344553676922
9	493	1300.287229897283	40.617034591395
9	494	1306.471493521762	37.594964576961
9	500	1321.416769420609	11.573037248861
9	501	1321.673111714723	10.150810880364
9	504	1351.498780959691	3.57891738952
9	510	1375.591678938516	0.723648933222
9	515	1380.883150806873	1.30511416532
9	516	1384.414373081822	3.77743577502
9	527	1413.555632267568	11.511346629137
9	528	1418.002319746358	15.393398804372
9	531	1426.130284316771	3.40921002034
9	534	1436.509507929456	1.979296494598
9	537	1451.4536028752	3.887218666878
9	554	1480.072110581913	19.531980832035
9	560	1488.979259894047	22.87314223538
9	561	1497.640929998785	26.272638351118
9	566	1507.381098259976	28.404146779671
9	567	1508.176326102253	27.648444957133
9	568	1508.296146152126	21.634834438291
9	579	1541.470996874038	36.045468820651
9	583	1548.040077514417	34.886930930487
9	584	1548.908207083235	27.028720391169
9	587	1576.793906182048	30.234373783729
9	588	1578.71821770398	15.339849398567
9	602	1644.45485837861	5.397871490091
9	605	1647.475123674029	4.380087437085
9	606	1647.648170003315	2.102147540726
9	611	1671.745289905885	10.110475901449
9	616	1674.857415053656	3.277502294894
9	619	1679.945188011615	7.9195734497
9	624	1682.413846320711	8.644175483119
9	625	1684.430375778165	5.013809804373
9	635	1703.671790888851	21.964266510074
9	640	1707.080315507655	18.909592862217
9	641	1707.14655605498	16.543822518751
9	642	1707.742297323892	14.920269916622
9	645	1710.491020152586	8.299362185115
9	660	1734.895277952904	29.29612598136
9	661	1736.143560387317	26.112835486449
9	664	1740.930467200988	27.188703361923
9	665	1744.548233873878	29.607988660514
9	666	1745.859944225677	28.202292439244
9	698	1804.900173706949	71.206068841516
9	703	1818.921902667738	78.793520546553
9	704	1820.140243429411	74.099676972487
9	709	1821.762587106944	59.947327707462
9	710	1823.01371066739	49.217955560517
9	718	1837.952108488067	35.674664133149
9	719	1840.679426823005	37.00276064066
9	720	1841.848554478449	28.408019628556
9	721	1856.729625075751	42.120366738561
9	722	1859.598358703701	39.195993687528
9	726	1861.758555801651	34.609526185013
9	727	1864.36677990251	32.222301909559
9	728	1867.651308425494	34.214279842313
9	729	1874.462263548244	13.954942606257
9	732	1878.04591331518	1.819485173596
9	735	1879.77123812407	0.059965894369
9	749	1903.836707641488	20.030019642942
9	750	1904.144599654246	1.673953477709
9	755	1911.0066559879	3.477564774889
9	772	1944.633544272308	31.435822519475
9	773	1945.457895104454	10.33413592618
9	774	1948.050814929287	9.552955508959
9	777	1962.765882665989	0.508350337824
9	786	1977.750996889856	8.451640947262
9	802	2001.199921710692	15.155007506185
9	803	2002.015108805819	12.327871176523
9	811	2019.642421381331	27.861036732859
9	814	2027.068706561301	32.61634119232
9	820	2041.441327099416	38.255314092529
9	823	2063.114667108785	54.826249794786
9	828	2074.318795706393	64.380656890683
9	829	2076.271039243886	50.701256414156
9	830	2077.401085480936	36.850561133202
9	831	2078.20484029018	37.589715050851
9	832	2079.015799354366	24.803892476648
9	833	2079.544606798655	14.384803557007
9	843	2089.034303336835	8.494429973542
9	844	2094.112399296532	13.125312826515
9	845	2095.912879818464	8.822500522819
9	849	2109.364885208318	8.447038325008
9	858	2119.389106145292	5.406822074144
9	859	2123.980074866156	9.163410352957
9	860	2127.431992553152	12.040724010993
9	888	2180.342478462079	50.74319861075
9	905	2222.904612552921	79.257243345049
9	906	2227.027343653942	69.211113512717
9	907	2227.868153068424	49.705596010411
9	911	2236.202055841819	52.234020818974
9	912	2246.025331922015	59.266376257758
9	913	2247.898641224488	56.761309478496
9	926	2274.519465961715	60.282128845528
9	929	2282.225620545933	67.154270686807
9	939	2290.996797655741	36.723454053671
9	940	2292.198568636658	37.073301146693
9	950	2308.93681955789	42.380964811643
9	951	2310.63762549404	40.817274606158
9	954	2317.662468518644	42.271280782817
9	957	2322.331814586806	38.177351550166
9	958	2323.92900486049	37.985796445572
9	962	2332.148040986334	43.419725912474
9	963	2332.153641645315	36.599031495035
9	964	2332.226543205298	36.611315267649
9	976	2361.039678390137	41.110687075298
9	979	2363.736557893268	36.337807836092
9	980	2363.815621889356	28.503288478317
9	983	2373.712546339607	34.143642825558
9	984	2375.928060576871	27.82592123286
9	985	2376.858506929292	24.962495291636
9	986	2380.83467445219	19.692177997885
9	987	2382.334396542626	9.063809171184
9	995	2406.179048911414	5.509009642282
9	996	2416.260999216089	14.837783716073
9	1030	2481.885090911042	34.16615190587
9	1034	2493.167112433184	32.274898508029
9	1035	2494.949129906514	30.54930669085
9	1036	2495.24009210564	30.137169215725
9	1037	2495.735035575591	22.543010524891
10	177	469.450297919605	7
10	180	470.48201465898	8
10	188	487.295243787722	9
10	252	676.48596019194	10
10	290	759.122019627825	11
10	354	1031.036760996085	12
10	369	1047.446284074941	13
10	372	1052.038242407772	14
10	389	1082.835420605179	15
10	415	1137.016704517448	16
10	419	1149.581529118299	17
10	425	1159.462263681971	18
10	454	1206.487230796995	19
10	459	1209.753595283991	20
10	463	1210.941507576878	21
10	471	1218.708561659235	22
10	481	1259.670195305888	23
10	496	1309.843732171748	24
10	520	1402.044285638431	25
10	556	1480.52788114512	26
10	572	1513.15314658393	27
10	581	1546.559532398319	28
10	629	1690.602733536229	29
10	651	1717.657651786433	30
10	668	1746.040566456924	31
10	714	1832.144477992951	32
10	724	1860.507320941987	33
10	757	1913.197721752833	34
10	798	1994.452365368981	35
10	805	2003.186013006887	36
10	818	2040.615125239329	37
10	837	2080.987086470017	38
10	847	2100.91784688331	39
10	862	2129.599279851329	40
10	890	2183.968035022845	41
10	901	2214.237337116187	42
10	909	2232.344284238071	43
10	915	2254.27334360207	44
10	922	2266.555854746247	45
10	931	2284.15446303664	46
10	946	2300.48471194332	47
10	960	2327.398750057176	48
10	966	2335.312333411039	49
10	971	2348.102139344011	50
10	974	2351.896011637656	51
10	1011	2447.718939005172	52
10	1028	2473.1920250507	53
10	1032	2483.711986540473	54
11	1040	2500	0.092
12	1040	2500	0.046

