version 2
run experiments_medium_game_mode1-425-20230311-09:41:25-10810
attr configname experiments_medium_game_mode1
attr datetime 20230311-09:41:25
attr experiment experiments_medium_game_mode1
attr inifile omnetpp.ini
attr iterationvars "$0=5.5, $1=5, $2=0"
attr iterationvarsf 5.5,5,0-
attr measurement "$0=5.5, $1=5, $2=0"
attr network Network
attr processid 10810
attr repetition 5
attr replication #5
attr resultdir results
attr runnumber 425
attr seedset 5
param *.boss.arrival_mean 20
param *.boss.service_mean 5.5
param *.minion.arrival_mean 10
param *.minion.service_mean 5
param *.player.recover_rate_x 0
param **.minion.arrival_distribution 0
param **.minion.service_distribution 0
param **.boss.arrival_distribution 0
param **.boss.service_distribution 0

vector 0 Network.player boss_defeated_stat:vector ETV
attr source signal_boss_defeated
vector 1 Network.player boss_jobs_queue_number_stat:vector ETV
attr source signal_boss_jobs_queue_number
vector 2 Network.player boss_response_time_stat:vector ETV
attr source signal_boss_response_time
vector 3 Network.player minion_jobs_number_stat:vector ETV
attr source signal_minion_jobs_number
vector 4 Network.player minion_jobs_queue_number_stat:vector ETV
attr source signal_minion_jobs_queue_number
vector 5 Network.player minion_waiting_time_stat:vector ETV
attr source signal_minion_waiting_time
vector 6 Network.player minion_defeated_stat:vector ETV
attr source signal_minion_defeated
vector 7 Network.player minion_response_time_stat:vector ETV
attr source signal_minion_response_time
vector 8 Network.player boss_jobs_number_stat:vector ETV
attr source signal_boss_jobs_number
vector 9 Network.player boss_waiting_time_stat:vector ETV
attr source signal_boss_waiting_time
vector 10 Network.player minion_recovered_stat:vector ETV
attr source signal_minion_recovered
vector 11 Network.player minion_throughput:vector ETV
attr source signal_minion_throughput
vector 12 Network.player boss_throughput:vector ETV
attr source signal_boss_throughput
0	132	352.419413953366	19
0	143	384.971039197779	20
0	144	384.984612763022	21
0	147	393.18475236929	22
0	161	413.7824323843	23
0	172	445.49160086173	24
0	175	457.384619861621	25
0	176	457.385076896313	26
0	187	469.070084802075	27
0	211	528.281371041501	28
0	212	533.179554435613	29
0	213	536.167227012591	30
0	216	557.266926190985	31
0	217	563.56064843232	32
0	222	573.817794461848	33
0	225	581.500571396334	34
0	246	628.148376851301	35
0	254	642.97887073899	36
0	266	664.352179951255	37
0	267	667.115540953657	38
0	270	671.369068179928	39
0	291	715.633290642459	40
0	311	750.768204498205	41
0	332	802.278357629217	42
0	343	828.272223852343	43
0	372	883.594357394011	44
0	378	887.981493951636	45
0	385	896.248603754752	46
0	392	907.591348466653	47
0	402	919.480993014041	48
0	407	936.447606586028	49
0	424	965.312779511845	50
0	434	982.667937219853	51
0	441	993.305176217763	52
0	459	1019.260783871674	53
0	484	1089.353087055494	54
0	485	1091.692768263468	55
0	495	1110.702633925242	56
0	511	1170.145939036469	57
0	528	1200.481287161832	58
0	551	1282.066377257918	59
0	571	1335.197201893783	60
0	588	1364.032104050904	61
0	607	1412.671643441996	62
0	617	1449.361086328333	63
0	625	1466.283209009988	64
0	626	1466.981461513805	65
0	630	1474.734688693141	66
0	637	1483.582042992274	67
0	643	1505.552821052008	68
0	660	1541.691799751987	69
0	663	1547.345029913686	70
0	668	1571.604113417143	71
0	697	1632.542187791374	72
0	705	1650.985624075942	73
0	710	1664.906565313518	74
0	713	1668.340439789491	75
0	723	1678.753813486626	76
0	732	1692.193355286041	77
0	739	1705.528400955309	78
0	746	1714.34105433376	79
0	757	1740.885426651111	80
0	760	1746.515230778877	81
0	781	1814.16435191181	82
0	786	1822.334657476856	83
0	789	1835.236298225579	84
0	790	1841.102952863946	85
0	796	1854.466024420374	86
0	799	1859.063315848651	87
0	807	1869.05312402433	88
0	810	1870.180849006436	89
0	818	1883.917001060696	90
0	826	1907.685850962181	91
0	837	1946.480143467533	92
0	845	1971.223281072027	93
0	848	1979.684398410201	94
0	853	1985.137222768579	95
0	864	2005.675900795327	96
0	867	2010.179427631525	97
0	881	2043.939784820892	98
0	891	2070.210194896341	99
0	897	2076.414622236344	100
0	905	2093.402430249246	101
0	910	2104.992143675572	102
0	920	2120.636182388701	103
0	926	2131.294609548714	104
0	934	2158.802554833642	105
0	946	2178.029613062688	106
0	952	2192.713321185297	107
0	953	2192.864993012527	108
0	993	2265.309014011623	109
0	1009	2295.615478093588	110
0	1017	2319.596523400409	111
0	1041	2372.209816886562	112
0	1042	2375.657852537123	113
0	1052	2387.626387864249	114
0	1053	2399.241094336128	115
0	1065	2439.534449033754	116
0	1066	2440.412170163124	117
0	1074	2464.235331930885	118
0	1077	2470.276651419965	119
0	1080	2479.772752411169	120
1	132	352.419413953366	0
1	140	381.910508285344	0
1	142	382.12216177113	1
1	143	384.971039197779	1
1	144	384.984612763022	0
1	146	385.458599038288	0
1	147	393.18475236929	0
1	152	401.932998597983	0
1	154	404.293112790177	1
1	161	413.7824323843	1
1	169	437.903864460807	1
1	171	439.767450543379	2
1	172	445.49160086173	2
1	175	457.384619861621	1
1	176	457.385076896313	0
1	184	467.105152708054	0
1	187	469.070084802075	0
1	200	507.778352471988	0
1	202	511.970843354015	1
1	204	523.641403692857	2
1	206	523.764599663184	3
1	208	526.525142992614	4
1	211	528.281371041501	4
1	212	533.179554435613	3
1	213	536.167227012591	2
1	215	556.097184880185	2
1	216	557.266926190985	2
1	217	563.56064843232	1
1	219	564.45633319999	1
1	222	573.817794461848	1
1	225	581.500571396334	0
1	245	627.778284939314	0
1	246	628.148376851301	0
1	253	638.222539276565	0
1	254	642.97887073899	0
1	263	662.431607004495	0
1	265	662.436923341715	1
1	266	664.352179951255	1
1	267	667.115540953657	0
1	269	669.501349085891	0
1	270	671.369068179928	0
1	290	712.041199677948	0
1	291	715.633290642459	0
1	308	741.260931673624	0
1	311	750.768204498205	0
1	329	799.551242766425	0
1	332	802.278357629217	0
1	340	822.860284331871	0
1	343	828.272223852343	0
1	369	877.543810870645	0
1	372	883.594357394011	0
1	377	887.337605029767	0
1	378	887.981493951636	0
1	380	888.487505027603	0
1	385	896.248603754752	0
1	391	907.588439234243	0
1	392	907.591348466653	0
1	395	909.614822051967	0
1	402	919.480993014041	0
1	404	920.771602651114	0
1	407	936.447606586028	0
1	423	964.27347470108	0
1	424	965.312779511845	0
1	433	981.828805080065	0
1	434	982.667937219853	0
1	440	991.993690733228	0
1	441	993.305176217763	0
1	454	1016.249624094874	0
1	459	1019.260783871674	0
1	479	1077.928705248913	0
1	481	1080.302015026252	1
1	484	1089.353087055494	1
1	485	1091.692768263468	0
1	494	1107.584578418003	0
1	495	1110.702633925242	0
1	506	1158.933809594803	0
1	511	1170.145939036469	0
1	527	1188.996723057024	0
1	528	1200.481287161832	0
1	550	1278.988197943606	0
1	551	1282.066377257918	0
1	570	1331.699076905576	0
1	571	1335.197201893783	0
1	583	1354.3265869964	0
1	588	1364.032104050904	0
1	606	1410.690821772367	0
1	607	1412.671643441996	0
1	614	1442.401810080516	0
1	617	1449.361086328333	0
1	620	1458.263650676793	0
1	622	1458.853799594753	1
1	625	1466.283209009988	1
1	626	1466.981461513805	0
1	629	1474.67750170795	0
1	630	1474.734688693141	0
1	632	1478.591938273987	0
1	637	1483.582042992274	0
1	640	1499.350124495382	0
1	643	1505.552821052008	0
1	659	1540.927398831871	0
1	660	1541.691799751987	0
1	662	1543.83572861612	0
1	663	1547.345029913686	0
1	667	1571.160236717777	0
1	668	1571.604113417143	0
1	692	1627.011532211296	0
1	697	1632.542187791374	0
1	700	1641.200728983196	0
1	704	1649.139788179428	1
1	705	1650.985624075942	1
1	707	1651.886764969815	1
1	710	1664.906565313518	1
1	713	1668.340439789491	0
1	722	1677.97722850772	0
1	723	1678.753813486626	0
1	731	1691.221218932796	0
1	732	1692.193355286041	0
1	734	1695.469903337416	0
1	739	1705.528400955309	0
1	741	1709.973952942435	0
1	746	1714.34105433376	0
1	754	1734.173751778239	0
1	757	1740.885426651111	0
1	759	1741.631715878164	0
1	760	1746.515230778877	0
1	770	1795.251777029999	0
1	772	1796.186514870931	1
1	778	1810.233699922377	2
1	781	1814.16435191181	2
1	785	1821.747407345427	2
1	786	1822.334657476856	2
1	789	1835.236298225579	1
1	790	1841.102952863946	0
1	795	1852.560548192826	0
1	796	1854.466024420374	0
1	798	1854.576513861016	0
1	799	1859.063315848651	0
1	806	1868.175832967458	0
1	807	1869.05312402433	0
1	809	1869.101112407136	0
1	810	1870.180849006436	0
1	815	1883.079443135498	0
1	818	1883.917001060696	0
1	825	1906.172223784969	0
1	826	1907.685850962181	0
1	834	1929.509174591028	0
1	837	1946.480143467533	0
1	842	1967.343964080476	0
1	845	1971.223281072027	0
1	847	1979.682068380707	0
1	848	1979.684398410201	0
1	850	1982.357432335051	0
1	853	1985.137222768579	0
1	863	2003.786686497585	0
1	864	2005.675900795327	0
1	866	2006.5504223079	0
1	867	2010.179427631525	0
1	880	2040.249635521158	0
1	881	2043.939784820892	0
1	884	2053.063007369747	0
1	891	2070.210194896341	0
1	896	2076.247451695774	0
1	897	2076.414622236344	0
1	900	2080.649378436169	0
1	902	2086.329528345313	1
1	905	2093.402430249246	1
1	910	2104.992143675572	0
1	919	2116.760152658708	0
1	920	2120.636182388701	0
1	925	2130.649701280081	0
1	926	2131.294609548714	0
1	929	2149.349687489204	0
1	934	2158.802554833642	0
1	941	2171.319197265902	0
1	946	2178.029613062688	0
1	949	2183.040962897326	0
1	951	2183.478361293144	1
1	952	2192.713321185297	1
1	953	2192.864993012527	0
1	992	2263.858396856056	0
1	993	2265.309014011623	0
1	1008	2294.457992447564	0
1	1009	2295.615478093588	0
1	1016	2319.143568197383	0
1	1017	2319.596523400409	0
1	1036	2364.097716176362	0
1	1040	2369.034416376807	1
1	1041	2372.209816886562	1
1	1042	2375.657852537123	0
1	1045	2379.332298766566	0
1	1049	2382.99845866801	1
1	1052	2387.626387864249	1
1	1053	2399.241094336128	0
1	1060	2420.064793868789	0
1	1064	2435.541766541786	1
1	1065	2439.534449033754	1
1	1066	2440.412170163124	0
1	1073	2461.309526535168	0
1	1074	2464.235331930885	0
1	1076	2468.83020005602	0
1	1077	2470.276651419965	0
1	1079	2471.034788360199	0
1	1080	2479.772752411169	0
2	132	352.419413953366	2.920001992485
2	143	384.971039197779	3.060530912435
2	144	384.984612763022	2.862450991892
2	147	393.18475236929	7.726153331002
2	161	413.7824323843	11.849433786317
2	172	445.49160086173	41.198488071553
2	175	457.384619861621	19.480755400814
2	176	457.385076896313	17.617626352934
2	187	469.070084802075	1.964932094021
2	211	528.281371041501	20.503018569513
2	212	533.179554435613	21.208711081598
2	213	536.167227012591	12.525823319734
2	216	557.266926190985	33.502326527801
2	217	563.56064843232	37.035505439706
2	222	573.817794461848	17.720609581663
2	225	581.500571396334	17.044238196344
2	246	628.148376851301	0.370091911987
2	254	642.97887073899	4.756331462425
2	266	664.352179951255	1.92057294676
2	267	667.115540953657	4.678617611942
2	270	671.369068179928	1.867719094037
2	291	715.633290642459	3.592090964511
2	311	750.768204498205	9.507272824581
2	332	802.278357629217	2.727114862792
2	343	828.272223852343	5.411939520472
2	372	883.594357394011	6.050546523366
2	378	887.981493951636	0.643888921869
2	385	896.248603754752	7.761098727149
2	392	907.591348466653	0.00290923241
2	402	919.480993014041	9.866170962074
2	407	936.447606586028	15.676003934914
2	424	965.312779511845	1.039304810765
2	434	982.667937219853	0.839132139788
2	441	993.305176217763	1.311485484535
2	459	1019.260783871674	3.0111597768
2	484	1089.353087055494	11.424381806581
2	485	1091.692768263468	11.390753237216
2	495	1110.702633925242	3.118055507239
2	511	1170.145939036469	11.212129441666
2	528	1200.481287161832	11.484564104808
2	551	1282.066377257918	3.078179314312
2	571	1335.197201893783	3.498124988207
2	588	1364.032104050904	9.705517054504
2	607	1412.671643441996	1.980821669629
2	617	1449.361086328333	6.959276247817
2	625	1466.283209009988	8.019558333195
2	626	1466.981461513805	8.127661919052
2	630	1474.734688693141	0.057186985191
2	637	1483.582042992274	4.990104718287
2	643	1505.552821052008	6.202696556626
2	660	1541.691799751987	0.764400920116
2	663	1547.345029913686	3.509301297566
2	668	1571.604113417143	0.443876699366
2	697	1632.542187791374	5.530655580078
2	705	1650.985624075942	9.784895092746
2	710	1664.906565313518	15.76677713409
2	713	1668.340439789491	16.453674819676
2	723	1678.753813486626	0.776584978906
2	732	1692.193355286041	0.972136353245
2	739	1705.528400955309	10.058497617893
2	746	1714.34105433376	4.367101391325
2	757	1740.885426651111	6.711674872872
2	760	1746.515230778877	4.883514900713
2	781	1814.16435191181	18.912574881811
2	786	1822.334657476856	26.148142605925
2	789	1835.236298225579	25.002598303202
2	790	1841.102952863946	19.355545518519
2	796	1854.466024420374	1.905476227548
2	799	1859.063315848651	4.486801987635
2	807	1869.05312402433	0.877291056872
2	810	1870.180849006436	1.0797365993
2	818	1883.917001060696	0.837557925198
2	826	1907.685850962181	1.513627177212
2	837	1946.480143467533	16.970968876505
2	845	1971.223281072027	3.879316991551
2	848	1979.684398410201	0.002330029494
2	853	1985.137222768579	2.779790433528
2	864	2005.675900795327	1.889214297742
2	867	2010.179427631525	3.629005323625
2	881	2043.939784820892	3.690149299734
2	891	2070.210194896341	17.147187526594
2	897	2076.414622236344	0.16717054057
2	905	2093.402430249246	12.753051813077
2	910	2104.992143675572	18.662615330259
2	920	2120.636182388701	3.876029729993
2	926	2131.294609548714	0.644908268633
2	934	2158.802554833642	9.452867344438
2	946	2178.029613062688	6.710415796786
2	952	2192.713321185297	9.672358287971
2	953	2192.864993012527	9.386631719383
2	993	2265.309014011623	1.450617155567
2	1009	2295.615478093588	1.157485646024
2	1017	2319.596523400409	0.452955203026
2	1041	2372.209816886562	8.1121007102
2	1042	2375.657852537123	6.623436160316
2	1052	2387.626387864249	8.294089097683
2	1053	2399.241094336128	16.242635668118
2	1065	2439.534449033754	19.469655164965
2	1066	2440.412170163124	4.870403621338
2	1074	2464.235331930885	2.925805395717
2	1077	2470.276651419965	1.446451363945
2	1080	2479.772752411169	8.73796405097
3	134	354.172507827807	1
3	137	373.165573927013	1
3	149	393.279838510632	1
3	156	408.207277351423	1
3	158	411.99829745011	2
3	160	412.37183081957	3
3	163	436.073400872944	4
3	165	437.314233815506	5
3	167	437.327952946813	6
3	174	451.242256151972	7
3	178	459.810452974783	8
3	181	462.544540123058	8
3	186	468.979055047066	8
3	189	471.920162134502	9
3	191	475.095408618298	10
3	195	494.588354537745	9
3	198	497.713550616588	9
3	210	527.626775085374	10
3	221	571.143215401286	11
3	224	579.391432256081	12
3	232	605.943574795199	8
3	235	607.913223543641	8
3	238	609.957947543076	8
3	242	624.665666816139	7
3	249	630.706851864441	6
3	251	637.487093734645	7
3	256	643.417267897842	8
3	259	653.393714807935	8
3	261	656.310268947339	9
3	272	674.6047529137	10
3	279	695.335114389194	6
3	283	701.516242444663	5
3	286	704.925125838561	5
3	288	711.815483747498	6
3	293	715.664169776615	7
3	299	727.040126940911	4
3	305	735.618888755847	1
3	310	746.139589939481	1
3	314	762.644089716245	1
3	317	765.774707186922	1
3	319	768.538631314541	2
3	321	769.235612506848	3
3	326	787.248359323836	1
3	331	802.008149240264	1
3	335	815.757023724541	1
3	338	822.315232027055	1
3	342	828.136835226231	2
3	345	832.129773314188	3
3	347	833.062464632352	4
3	350	840.209054935251	4
3	353	845.043579502083	4
3	355	848.103789288935	5
3	359	853.51756743213	4
3	362	857.235620783026	4
3	366	871.716141047027	3
3	371	881.573981200952	3
3	374	883.796395950465	4
3	382	891.948409974863	4
3	384	892.451265341315	5
3	387	896.287023108023	6
3	389	907.496880138223	7
3	397	912.519557305623	7
3	399	912.719751269411	8
3	401	915.703469079402	9
3	406	931.627609079209	10
3	410	940.35611761368	10
3	413	952.926673196333	10
3	416	954.689615315032	10
3	420	958.18994317615	9
3	426	967.306304503991	9
3	428	971.293520383222	10
3	436	988.770386098451	8
3	438	991.89196686214	9
3	443	993.592636988663	10
3	445	995.06088645478	11
3	448	1008.314780315635	11
3	451	1012.966214610902	11
3	456	1018.219575777321	11
3	458	1018.378246406112	12
3	464	1033.460060157527	10
3	466	1037.687100701228	11
3	472	1053.982005230281	8
3	483	1087.119359711866	4
3	488	1102.540491660609	4
3	492	1104.720238786165	3
3	498	1113.692156924454	3
3	503	1148.073931961739	1
3	508	1158.994943503307	1
3	510	1159.869971217089	2
3	513	1170.270592856227	3
3	516	1172.886145916887	3
3	519	1178.431073673036	3
3	521	1180.180260533885	4
3	525	1187.386849011417	3
3	533	1213.938108252133	1
3	536	1220.894768537029	1
3	539	1246.89843674697	1
3	541	1247.276325723585	2
3	545	1266.056222790817	1
3	548	1278.370214318002	1
3	553	1284.448987743469	2
3	556	1294.136166031973	2
3	559	1301.96258254879	2
3	563	1317.004740683419	1
3	565	1321.089472312076	2
3	568	1327.240403897141	2
3	575	1339.31192988468	1
3	578	1344.089152158986	1
3	581	1354.139097917223	1
3	585	1357.590687385923	2
3	587	1362.401640317386	3
3	593	1370.548662839093	1
3	596	1393.477834516225	1
3	599	1394.357009853883	1
3	601	1399.467597341814	2
3	604	1409.444819982285	2
3	610	1413.916469106427	2
3	616	1442.842899766702	1
3	624	1460.245386861678	1
3	634	1482.431277285998	1
3	636	1482.922469037112	2
3	642	1504.007678257348	2
3	647	1516.603279450633	1
3	650	1520.830688733209	1
3	652	1521.897440116271	2
3	656	1534.041056993256	1
3	665	1567.933072131845	1
3	671	1575.426811134132	1
3	673	1577.614321941095	2
3	677	1588.382349111459	1
3	680	1604.98445020996	1
3	683	1608.10816906207	1
3	685	1611.611585584382	2
3	688	1620.970579796187	2
3	694	1629.016241169596	1
3	696	1629.509796788956	2
3	702	1645.107593448206	2
3	709	1656.998456245854	3
3	712	1667.385312246145	4
3	716	1670.941665386543	4
3	719	1677.340756018396	4
3	725	1679.151605878875	4
3	736	1698.499432454028	1
3	738	1702.537875751213	2
3	743	1710.023199632792	3
3	745	1711.831678986269	4
3	748	1715.794270075167	5
3	756	1740.402810295447	2
3	764	1754.371851842985	1
3	767	1757.712952114246	1
3	774	1803.563631578393	1
3	776	1804.702121163114	2
3	780	1813.945618333506	3
3	783	1815.189939142241	4
3	788	1830.000877789753	5
3	792	1844.087242559274	6
3	802	1865.352465476735	5
3	817	1883.609421275364	1
3	820	1885.977274496929	2
3	822	1886.339112843074	3
3	830	1925.322903074237	1
3	832	1926.617656675168	2
3	836	1946.452518246029	3
3	844	1968.617331088617	1
3	852	1983.774184273965	2
3	856	1991.012150132266	2
3	860	1995.96333466045	1
3	869	2021.788839862228	1
3	871	2027.965610252793	2
3	875	2036.670246191136	1
3	878	2038.612038391061	1
3	886	2053.451391923639	1
3	888	2059.720372977221	2
3	890	2065.213904978399	3
3	893	2070.960011779213	4
3	904	2088.416297189241	3
3	907	2094.55514914724	4
3	909	2099.423059657969	5
3	913	2109.526301819064	5
3	916	2113.901216392289	5
3	931	2152.7373224416	1
3	933	2158.324858173646	2
3	938	2170.032935115697	1
3	943	2175.059280819876	1
3	945	2175.89386075536	2
3	955	2194.513301538501	2
3	957	2197.181186761374	3
3	960	2201.862421686758	3
3	962	2205.989717082358	4
3	965	2210.635198036061	4
3	967	2215.605995918517	5
3	972	2220.983562150837	3
3	977	2237.146804838887	1
3	979	2242.672738216294	2
3	981	2243.211192938679	3
3	986	2254.082127145278	1
3	988	2255.276179260871	2
3	990	2257.380623580054	3
3	995	2265.712071714624	4
3	999	2278.530645851194	3
3	1001	2279.373335041389	4
3	1003	2282.299088262717	5
3	1006	2288.557943251978	5
3	1019	2321.438632138943	1
3	1021	2332.743083346899	2
3	1024	2334.166339972331	2
3	1026	2334.24183420918	3
3	1031	2350.681956625492	1
3	1034	2362.032617962155	1
3	1038	2366.417596998391	2
3	1047	2382.613350806866	2
3	1051	2383.497710697982	3
3	1058	2419.292970577924	1
3	1062	2432.429685492346	2
3	1070	2452.103637946343	1
4	134	354.172507827807	0
4	135	361.55381870012	0
4	137	373.165573927013	0
4	138	374.146406677628	0
4	149	393.279838510632	0
4	150	395.632135660572	0
4	156	408.207277351423	0
4	158	411.99829745011	1
4	160	412.37183081957	2
4	163	436.073400872944	3
4	165	437.314233815506	4
4	167	437.327952946813	5
4	174	451.242256151972	6
4	178	459.810452974783	7
4	179	460.810273120149	7
4	181	462.544540123058	7
4	182	463.583546193469	7
4	186	468.979055047066	7
4	189	471.920162134502	8
4	191	475.095408618298	9
4	192	486.128192478909	9
4	193	493.241819176104	8
4	195	494.588354537745	8
4	196	494.898538181566	8
4	198	497.713550616588	8
4	210	527.626775085374	9
4	221	571.143215401286	10
4	224	579.391432256081	11
4	226	585.863844765241	11
4	227	592.984917411733	10
4	228	599.42778249176	9
4	229	602.888290862552	8
4	230	605.312862326771	7
4	232	605.943574795199	7
4	233	607.032814382006	7
4	235	607.913223543641	7
4	236	609.660128269292	7
4	238	609.957947543076	7
4	239	613.878738029064	7
4	240	618.613227787386	6
4	242	624.665666816139	6
4	243	624.860876175419	6
4	247	629.726520151549	5
4	249	630.706851864441	5
4	251	637.487093734645	6
4	256	643.417267897842	7
4	257	652.60313816383	7
4	259	653.393714807935	7
4	261	656.310268947339	8
4	272	674.6047529137	9
4	273	678.879464272351	9
4	274	680.611373323397	8
4	275	687.762731496563	7
4	276	692.316647298491	6
4	277	693.640338304499	5
4	279	695.335114389194	5
4	280	697.275601303664	5
4	281	698.828443616246	4
4	283	701.516242444663	4
4	284	704.727293955371	4
4	286	704.925125838561	4
4	288	711.815483747498	5
4	293	715.664169776615	6
4	294	716.551917961384	6
4	295	716.997014751459	5
4	296	718.7710573961	4
4	297	725.719666887329	3
4	299	727.040126940911	3
4	300	727.389644745486	3
4	301	729.908599039332	2
4	302	732.342625953862	1
4	303	734.324255285968	0
4	305	735.618888755847	0
4	306	740.284264982888	0
4	310	746.139589939481	0
4	312	753.850434774431	0
4	314	762.644089716245	0
4	315	763.53287890238	0
4	317	765.774707186922	0
4	319	768.538631314541	1
4	321	769.235612506848	2
4	322	769.70506016283	2
4	323	772.271632375587	1
4	324	773.497305747628	0
4	326	787.248359323836	0
4	327	795.406107135759	0
4	331	802.008149240264	0
4	333	810.322256492736	0
4	335	815.757023724541	0
4	336	819.649575624589	0
4	338	822.315232027055	0
4	342	828.136835226231	1
4	345	832.129773314188	2
4	347	833.062464632352	3
4	348	834.212812896608	3
4	350	840.209054935251	3
4	351	841.296831940346	3
4	353	845.043579502083	3
4	355	848.103789288935	4
4	356	850.758911048422	4
4	357	853.299094611775	3
4	359	853.51756743213	3
4	360	854.855703148101	3
4	362	857.235620783026	3
4	363	862.939671084945	3
4	364	867.709954783964	2
4	366	871.716141047027	2
4	367	877.149077112598	2
4	371	881.573981200952	2
4	374	883.796395950465	3
4	375	884.023775276695	3
4	382	891.948409974863	3
4	384	892.451265341315	4
4	387	896.287023108023	5
4	389	907.496880138223	6
4	393	909.171423881206	6
4	397	912.519557305623	6
4	399	912.719751269411	7
4	401	915.703469079402	8
4	406	931.627609079209	9
4	408	940.152470913787	9
4	410	940.35611761368	9
4	411	948.460274776517	9
4	413	952.926673196333	9
4	414	953.232176382356	9
4	416	954.689615315032	9
4	417	956.177888805461	9
4	418	957.673934215601	8
4	420	958.18994317615	8
4	421	962.26000579693	8
4	426	967.306304503991	8
4	428	971.293520383222	9
4	429	976.74340326403	9
4	430	978.093959718902	8
4	431	979.308066740364	7
4	436	988.770386098451	7
4	438	991.89196686214	8
4	443	993.592636988663	9
4	445	995.06088645478	10
4	446	1002.115736661607	10
4	448	1008.314780315635	10
4	449	1009.405181541533	10
4	451	1012.966214610902	10
4	452	1014.54021120339	10
4	456	1018.219575777321	10
4	458	1018.378246406112	11
4	460	1022.013144691627	11
4	461	1022.859445051926	10
4	462	1030.625799673907	9
4	464	1033.460060157527	9
4	466	1037.687100701228	10
4	467	1039.54895892121	10
4	468	1041.391481214515	9
4	469	1052.32240483756	8
4	470	1052.468506020903	7
4	472	1053.982005230281	7
4	473	1058.469419231939	7
4	474	1060.122300781322	6
4	475	1068.203947008897	5
4	476	1071.233204000071	4
4	477	1077.469970855897	3
4	483	1087.119359711866	3
4	486	1094.072520952501	3
4	488	1102.540491660609	3
4	489	1102.648858197479	3
4	490	1104.01592925614	2
4	492	1104.720238786165	2
4	496	1111.454799051203	2
4	498	1113.692156924454	2
4	499	1118.055737749669	2
4	500	1119.036022178878	1
4	501	1121.600966159082	0
4	503	1148.073931961739	0
4	504	1149.71946351602	0
4	508	1158.994943503307	0
4	510	1159.869971217089	1
4	513	1170.270592856227	2
4	514	1171.46064123858	2
4	516	1172.886145916887	2
4	517	1176.003647150046	2
4	519	1178.431073673036	2
4	521	1180.180260533885	3
4	522	1180.467223301702	3
4	523	1183.960540604893	2
4	525	1187.386849011417	2
4	529	1201.206575901287	2
4	530	1203.192138237519	1
4	531	1209.025510685789	0
4	533	1213.938108252133	0
4	534	1218.994900855933	0
4	536	1220.894768537029	0
4	537	1229.058548301663	0
4	539	1246.89843674697	0
4	541	1247.276325723585	1
4	542	1249.63024962455	1
4	543	1257.614162301407	0
4	545	1266.056222790817	0
4	546	1267.843464829622	0
4	548	1278.370214318002	0
4	553	1284.448987743469	1
4	554	1286.926880950944	1
4	556	1294.136166031973	1
4	557	1301.736888723613	1
4	559	1301.96258254879	1
4	560	1303.136202286638	1
4	561	1308.936589677758	0
4	563	1317.004740683419	0
4	565	1321.089472312076	1
4	566	1325.560882518641	1
4	568	1327.240403897141	1
4	572	1338.349014008686	1
4	573	1338.716675345316	0
4	575	1339.31192988468	0
4	576	1341.800172279304	0
4	578	1344.089152158986	0
4	579	1350.807409841054	0
4	581	1354.139097917223	0
4	585	1357.590687385923	1
4	587	1362.401640317386	2
4	589	1364.265746381476	2
4	590	1367.352666476943	1
4	591	1369.819845028512	0
4	593	1370.548662839093	0
4	594	1380.527318542826	0
4	596	1393.477834516225	0
4	597	1394.031719063037	0
4	599	1394.357009853883	0
4	601	1399.467597341814	1
4	602	1400.413076151414	1
4	604	1409.444819982285	1
4	608	1413.591107805269	1
4	610	1413.916469106427	1
4	611	1418.877012888772	1
4	612	1425.185104373875	0
4	616	1442.842899766702	0
4	618	1450.348748459959	0
4	624	1460.245386861678	0
4	627	1469.330465353336	0
4	634	1482.431277285998	0
4	636	1482.922469037112	1
4	638	1493.064478100081	1
4	642	1504.007678257348	1
4	644	1514.027506762589	1
4	645	1516.299042080879	0
4	647	1516.603279450633	0
4	648	1517.949913662178	0
4	650	1520.830688733209	0
4	652	1521.897440116271	1
4	653	1523.229222595233	1
4	654	1529.247272740407	0
4	656	1534.041056993256	0
4	657	1534.251459933666	0
4	665	1567.933072131845	0
4	669	1574.743626567988	0
4	671	1575.426811134132	0
4	673	1577.614321941095	1
4	674	1580.454649163953	1
4	675	1582.725190649305	0
4	677	1588.382349111459	0
4	678	1596.53510395861	0
4	680	1604.98445020996	0
4	681	1605.135671024017	0
4	683	1608.10816906207	0
4	685	1611.611585584382	1
4	686	1619.488512877747	1
4	688	1620.970579796187	1
4	689	1622.268256999676	1
4	690	1623.351353206911	0
4	694	1629.016241169596	0
4	696	1629.509796788956	1
4	698	1633.194880999919	1
4	702	1645.107593448206	1
4	709	1656.998456245854	2
4	712	1667.385312246145	3
4	714	1670.071129993551	3
4	716	1670.941665386543	3
4	717	1676.646741892682	3
4	719	1677.340756018396	3
4	720	1677.619094544357	3
4	725	1679.151605878875	3
4	726	1681.092014395783	3
4	727	1682.34017969426	2
4	728	1684.373445956637	1
4	729	1686.782035927658	0
4	736	1698.499432454028	0
4	738	1702.537875751213	1
4	743	1710.023199632792	2
4	745	1711.831678986269	3
4	748	1715.794270075167	4
4	749	1718.568410544636	4
4	750	1721.50904238229	3
4	751	1723.658601100959	2
4	752	1727.236963105657	1
4	756	1740.402810295447	1
4	761	1750.280537472927	1
4	762	1750.437441910174	0
4	764	1754.371851842985	0
4	765	1756.26946795785	0
4	767	1757.712952114246	0
4	768	1761.416271262115	0
4	774	1803.563631578393	0
4	776	1804.702121163114	1
4	780	1813.945618333506	2
4	783	1815.189939142241	3
4	788	1830.000877789753	4
4	792	1844.087242559274	5
4	793	1845.037171310403	5
4	800	1860.478951026812	4
4	802	1865.352465476735	4
4	803	1865.613523800389	4
4	804	1866.781406805021	3
4	811	1871.560221710758	2
4	812	1876.074661636759	1
4	813	1879.956982328803	0
4	817	1883.609421275364	0
4	820	1885.977274496929	1
4	822	1886.339112843074	2
4	823	1892.381924540909	2
4	827	1909.496923617805	1
4	828	1909.521281627535	0
4	830	1925.322903074237	0
4	832	1926.617656675168	1
4	836	1946.452518246029	2
4	838	1952.105834356399	2
4	839	1953.09610164278	1
4	840	1954.318022929138	0
4	844	1968.617331088617	0
4	852	1983.774184273965	1
4	854	1986.868064985485	1
4	856	1991.012150132266	1
4	857	1992.632096783181	1
4	858	1992.9947858194	0
4	860	1995.96333466045	0
4	861	1999.858064870913	0
4	869	2021.788839862228	0
4	871	2027.965610252793	1
4	872	2029.399855659868	1
4	873	2032.00367679328	0
4	875	2036.670246191136	0
4	876	2036.848915739548	0
4	878	2038.612038391061	0
4	882	2045.132188315256	0
4	886	2053.451391923639	0
4	888	2059.720372977221	1
4	890	2065.213904978399	2
4	893	2070.960011779213	3
4	894	2073.76756195112	3
4	898	2079.302937717415	2
4	904	2088.416297189241	2
4	907	2094.55514914724	3
4	909	2099.423059657969	4
4	911	2108.375835542787	4
4	913	2109.526301819064	4
4	914	2110.22618237781	4
4	916	2113.901216392289	4
4	917	2116.090520139898	4
4	921	2128.189728254141	3
4	922	2128.884360537513	2
4	923	2129.12626471863	1
4	927	2138.177896303974	0
4	931	2152.7373224416	0
4	933	2158.324858173646	1
4	935	2162.522354969873	1
4	936	2162.90979135711	0
4	938	2170.032935115697	0
4	939	2170.12399730194	0
4	943	2175.059280819876	0
4	945	2175.89386075536	1
4	947	2182.671993117736	1
4	955	2194.513301538501	1
4	957	2197.181186761374	2
4	958	2200.662244116329	2
4	960	2201.862421686758	2
4	962	2205.989717082358	3
4	963	2206.892298242022	3
4	965	2210.635198036061	3
4	967	2215.605995918517	4
4	968	2218.384969968064	4
4	969	2219.202122860497	3
4	970	2220.955745994924	2
4	972	2220.983562150837	2
4	973	2225.725236268494	2
4	974	2227.010381536658	1
4	975	2227.827984481425	0
4	977	2237.146804838887	0
4	979	2242.672738216294	1
4	981	2243.211192938679	2
4	982	2247.668240264981	2
4	983	2250.765235787509	1
4	984	2253.421498648272	0
4	986	2254.082127145278	0
4	988	2255.276179260871	1
4	990	2257.380623580054	2
4	995	2265.712071714624	3
4	996	2265.997913610879	3
4	997	2275.272022083726	2
4	999	2278.530645851194	2
4	1001	2279.373335041389	3
4	1003	2282.299088262717	4
4	1004	2285.122124994014	4
4	1006	2288.557943251978	4
4	1010	2301.502372411399	4
4	1011	2302.732413921886	3
4	1012	2305.839328010733	2
4	1013	2310.597199063651	1
4	1014	2312.088642640197	0
4	1019	2321.438632138943	0
4	1021	2332.743083346899	1
4	1022	2333.86958674113	1
4	1024	2334.166339972331	1
4	1026	2334.24183420918	2
4	1027	2336.79288420246	2
4	1028	2343.387324291057	1
4	1029	2350.382918722612	0
4	1031	2350.681956625492	0
4	1032	2350.692470188939	0
4	1034	2362.032617962155	0
4	1038	2366.417596998391	1
4	1043	2376.650581145088	1
4	1047	2382.613350806866	1
4	1051	2383.497710697982	2
4	1054	2402.147270581076	2
4	1055	2402.333786082706	1
4	1056	2406.656383018204	0
4	1058	2419.292970577924	0
4	1062	2432.429685492346	1
4	1067	2445.04534347807	1
4	1068	2448.305422717742	0
4	1070	2452.103637946343	0
4	1071	2454.219291520468	0
5	134	354.172507827807	0
5	137	373.165573927013	0
5	149	393.279838510632	0
5	176	457.385076896313	49.17779954489
5	179	460.810273120149	48.811975670039
5	182	463.583546193469	51.211715373899
5	187	469.070084802075	32.996683929131
5	192	486.128192478909	48.813958663403
5	193	493.241819176104	55.913866229291
5	196	494.898538181566	43.656282029594
5	225	581.500571396334	121.69011842155
5	226	585.863844765241	123.31930464218
5	227	592.984917411733	125.87976470368
5	228	599.42778249176	130.44872744469
5	229	602.888290862552	130.96812872805
5	230	605.312862326771	130.21745370847
5	233	607.032814382006	112.44445984426
5	236	609.660128269292	111.9465776527
5	239	613.878738029064	106.10038555708
5	240	618.613227787386	90.986452702012
5	243	624.860876175419	53.717660774133
5	246	628.148376851301	48.75694459522
5	247	629.726520151549	23.78294535635
5	254	642.97887073899	35.065647195349
5	257	652.60313816383	42.645190620754
5	267	667.115540953657	42.449874137518
5	270	671.369068179928	43.590783240614
5	273	678.879464272351	48.17261240791
5	274	680.611373323397	43.124279588752
5	275	687.762731496563	49.540192219998
5	276	692.316647298491	48.899379400649
5	277	693.640338304499	40.246623496564
5	280	697.275601303664	40.965332356325
5	281	698.828443616246	36.396836611751
5	284	704.727293955371	35.22594486948
5	291	715.633290642459	41.028537728759
5	294	716.551917961384	21.21680357219
5	295	716.997014751459	15.480772306796
5	296	718.7710573961	13.845931557539
5	297	725.719666887329	13.904183139831
5	300	727.389644745486	15.348445067538
5	301	729.908599039332	14.244429262717
5	302	732.342625953862	5.302499012951
5	305	735.618888755847	0
5	311	750.768204498205	4.628614558724
5	314	762.644089716245	0
5	317	765.774707186922	0
5	322	769.70506016283	1.166428848289
5	323	772.271632375587	3.036019868739
5	326	787.248359323836	0
5	332	802.278357629217	0.270208388953
5	335	815.757023724541	0
5	338	822.315232027055	0
5	343	828.272223852343	5.411939520472
5	348	834.212812896608	6.075977670377
5	351	841.296831940346	9.167058626158
5	356	850.758911048422	17.69644641607
5	357	853.299094611775	13.090039676524
5	360	854.855703148101	9.812123646018
5	363	862.939671084945	14.83588179601
5	364	867.709954783964	14.192387351834
5	367	877.149077112598	19.913456329572
5	372	883.594357394011	11.878216346984
5	375	884.023775276695	6.47996440605
5	378	887.981493951636	6.407512750684
5	385	896.248603754752	12.452207804287
5	392	907.591348466653	20.253743436886
5	393	909.171423881206	20.683918853603
5	402	919.480993014041	27.532583039178
5	407	936.447606586028	43.996341244713
5	408	940.152470913787	43.865447805764
5	411	948.460274776517	40.963394638294
5	414	953.232176382356	45.643737148113
5	417	956.177888805461	46.563066753494
5	418	957.673934215601	45.154376909978
5	421	962.26000579693	49.540254527519
5	424	965.312779511845	49.609310432443
5	429	976.74340326403	55.971800612916
5	430	978.093959718902	46.466350639693
5	431	979.308066740364	38.951949126684
5	434	982.667937219853	29.74126402352
5	441	993.305176217763	38.615560902731
5	446	1002.115736661607	43.925793485457
5	449	1009.405181541533	45.131706840453
5	452	1014.54021120339	47.233906699399
5	459	1019.260783871674	47.967263488452
5	460	1022.013144691627	40.184339611562
5	461	1022.859445051926	34.089058953475
5	462	1030.625799673907	38.733832811767
5	467	1039.54895892121	47.555268187982
5	468	1041.391481214515	47.798844225852
5	469	1052.32240483756	57.26151838278
5	470	1052.468506020903	44.153725705268
5	473	1058.469419231939	45.503204621037
5	474	1060.122300781322	43.872676686448
5	475	1068.203947008897	49.984371231576
5	476	1071.233204000071	52.854957593959
5	477	1077.469970855897	44.00991069837
5	485	1091.692768263468	54.00566756224
5	486	1094.072520952501	40.09051572222
5	489	1102.648858197479	24.720152948566
5	490	1104.01592925614	16.896569544274
5	495	1110.702633925242	8.162142264633
5	496	1111.454799051203	6.734560265038
5	499	1118.055737749669	10.471159331666
5	500	1119.036022178878	5.343865254424
5	503	1148.073931961739	0
5	511	1170.145939036469	11.150995533162
5	514	1171.46064123858	11.590670021491
5	517	1176.003647150046	5.733054293819
5	522	1180.467223301702	7.581077384815
5	523	1183.960540604893	5.529466931857
5	528	1200.481287161832	20.301026627947
5	529	1201.206575901287	13.81972688987
5	530	1203.192138237519	14.195415180495
5	533	1213.938108252133	0
5	536	1220.894768537029	0
5	539	1246.89843674697	0
5	542	1249.63024962455	2.353923900965
5	545	1266.056222790817	0
5	548	1278.370214318002	0
5	551	1282.066377257918	3.078179314312
5	554	1286.926880950944	2.477893207475
5	557	1301.736888723613	7.60072269164
5	560	1303.136202286638	1.173619737848
5	563	1317.004740683419	0
5	566	1325.560882518641	4.471410206565
5	571	1335.197201893783	7.956797996642
5	572	1338.349014008686	6.64993710311
5	575	1339.31192988468	0
5	578	1344.089152158986	0
5	581	1354.139097917223	0
5	588	1364.032104050904	9.705517054504
5	589	1364.265746381476	6.675058995553
5	590	1367.352666476943	4.951026159557
5	593	1370.548662839093	0
5	596	1393.477834516225	0
5	599	1394.357009853883	0
5	602	1400.413076151414	0.9454788096
5	607	1412.671643441996	3.226823459711
5	608	1413.591107805269	2.900286032902
5	611	1418.877012888772	4.960543782345
5	617	1449.361086328333	6.518186561631
5	626	1466.981461513805	6.736074652127
5	637	1483.582042992274	1.150765706276
5	638	1493.064478100081	10.142009062969
5	643	1505.552821052008	6.202696556626
5	644	1514.027506762589	10.019828505241
5	647	1516.603279450633	0
5	650	1520.830688733209	0
5	653	1523.229222595233	1.331782478962
5	656	1534.041056993256	0
5	665	1567.933072131845	0
5	668	1571.604113417143	0.443876699366
5	671	1575.426811134132	0
5	674	1580.454649163953	2.840327222858
5	677	1588.382349111459	0
5	680	1604.98445020996	0
5	683	1608.10816906207	0
5	686	1619.488512877747	7.876927293365
5	689	1622.268256999676	1.297677203489
5	697	1632.542187791374	3.525946621778
5	698	1633.194880999919	3.685084210963
5	713	1668.340439789491	27.139710806295
5	714	1670.071129993551	24.963536545345
5	717	1676.646741892682	19.648285646828
5	720	1677.619094544357	10.233782298212
5	723	1678.753813486626	7.812148100083
5	726	1681.092014395783	3.751258377387
5	727	1682.34017969426	4.36295118654
5	728	1684.373445956637	5.221840077762
5	739	1705.528400955309	7.028968501281
5	746	1714.34105433376	11.803178582547
5	749	1718.568410544636	8.594457602201
5	750	1721.50904238229	11.485842749498
5	751	1723.658601100959	11.82692211469
5	752	1727.236963105657	11.44269303049
5	757	1740.885426651111	6.711674872872
5	760	1746.515230778877	6.11242048343
5	761	1750.280537472927	8.648821594763
5	764	1754.371851842985	0
5	767	1757.712952114246	0
5	790	1841.102952863946	37.539321285553
5	793	1845.037171310403	40.335050147289
5	796	1854.466024420374	40.520406086868
5	799	1859.063315848651	43.87337670641
5	800	1860.478951026812	30.478073237059
5	803	1865.613523800389	21.526281241115
5	804	1866.781406805021	14.220858612195
5	807	1869.05312402433	14.476610163314
5	810	1870.180849006436	4.828383529701
5	811	1871.560221710758	3.3843887433
5	812	1876.074661636759	6.973549229623
5	818	1883.917001060696	0.307579785332
5	823	1892.381924540909	6.40465004398
5	826	1907.685850962181	21.346738119107
5	827	1909.496923617805	3.324699832836
5	830	1925.322903074237	0
5	837	1946.480143467533	19.862486792365
5	838	1952.105834356399	22.596659765371
5	839	1953.09610164278	6.643583396751
5	845	1971.223281072027	2.60594998341
5	848	1979.684398410201	0.002330029494
5	853	1985.137222768579	2.779790433528
5	854	1986.868064985485	3.09388071152
5	857	1992.632096783181	1.619946650915
5	860	1995.96333466045	0
5	869	2021.788839862228	0
5	872	2029.399855659868	1.434245407075
5	875	2036.670246191136	0
5	878	2038.612038391061	0
5	881	2043.939784820892	3.690149299734
5	891	2070.210194896341	16.758802972702
5	894	2073.76756195112	14.047188973899
5	897	2076.414622236344	11.200717257945
5	898	2079.302937717415	8.342925938202
5	910	2104.992143675572	28.744691979798
5	911	2108.375835542787	27.726457106618
5	914	2110.22618237781	21.809885188569
5	917	2116.090520139898	21.535370992658
5	920	2120.636182388701	21.213122730732
5	921	2128.189728254141	18.663426435077
5	922	2128.884360537513	14.983144145224
5	923	2129.12626471863	12.366112059922
5	926	2131.294609548714	0.644908268633
5	934	2158.802554833642	6.065232392042
5	935	2162.522354969873	4.197496796227
5	938	2170.032935115697	0
5	946	2178.029613062688	2.970332242812
5	947	2182.671993117736	6.778132362376
5	953	2192.864993012527	9.824030115201
5	958	2200.662244116329	6.148942577828
5	963	2206.892298242022	9.711111480648
5	968	2218.384969968064	16.522548281306
5	969	2219.202122860497	13.212405778139
5	970	2220.955745994924	10.320547958863
5	973	2225.725236268494	10.119240349977
5	974	2227.010381536658	6.026819385821
5	977	2237.146804838887	0
5	982	2247.668240264981	4.995502048687
5	983	2250.765235787509	7.55404284883
5	986	2254.082127145278	0
5	993	2265.309014011623	10.032834750752
5	996	2265.997913610879	8.617290030825
5	997	2275.272022083726	11.41362522767
5	1004	2285.122124994014	19.41005327939
5	1009	2295.615478093588	17.084832242394
5	1010	2301.502372411399	22.12903737001
5	1011	2302.732413921886	20.433325659169
5	1012	2305.839328010733	17.281384758755
5	1013	2310.597199063651	16.139206616087
5	1019	2321.438632138943	0
5	1022	2333.86958674113	1.126503394231
5	1027	2336.79288420246	2.626544230129
5	1028	2343.387324291057	9.145490081877
5	1031	2350.681956625492	0
5	1034	2362.032617962155	0
5	1042	2375.657852537123	11.560136360761
5	1043	2376.650581145088	10.232984146697
5	1053	2399.241094336128	19.908795569562
5	1054	2402.147270581076	19.53391977421
5	1055	2402.333786082706	18.836075384724
5	1058	2419.292970577924	0
5	1066	2440.412170163124	20.347376294335
5	1067	2445.04534347807	12.615657985724
5	1070	2452.103637946343	0
6	135	361.55381870012	26
6	138	374.146406677628	27
6	150	395.632135660572	28
6	179	460.810273120149	29
6	182	463.583546193469	30
6	192	486.128192478909	31
6	193	493.241819176104	32
6	196	494.898538181566	33
6	226	585.863844765241	34
6	227	592.984917411733	35
6	228	599.42778249176	36
6	229	602.888290862552	37
6	230	605.312862326771	38
6	233	607.032814382006	39
6	236	609.660128269292	40
6	239	613.878738029064	41
6	240	618.613227787386	42
6	243	624.860876175419	43
6	247	629.726520151549	44
6	257	652.60313816383	45
6	273	678.879464272351	46
6	274	680.611373323397	47
6	275	687.762731496563	48
6	276	692.316647298491	49
6	277	693.640338304499	50
6	280	697.275601303664	51
6	281	698.828443616246	52
6	284	704.727293955371	53
6	294	716.551917961384	54
6	295	716.997014751459	55
6	296	718.7710573961	56
6	297	725.719666887329	57
6	300	727.389644745486	58
6	301	729.908599039332	59
6	302	732.342625953862	60
6	303	734.324255285968	61
6	306	740.284264982888	62
6	312	753.850434774431	63
6	315	763.53287890238	64
6	322	769.70506016283	65
6	323	772.271632375587	66
6	324	773.497305747628	67
6	327	795.406107135759	68
6	333	810.322256492736	69
6	336	819.649575624589	70
6	348	834.212812896608	71
6	351	841.296831940346	72
6	356	850.758911048422	73
6	357	853.299094611775	74
6	360	854.855703148101	75
6	363	862.939671084945	76
6	364	867.709954783964	77
6	367	877.149077112598	78
6	375	884.023775276695	79
6	393	909.171423881206	80
6	408	940.152470913787	81
6	411	948.460274776517	82
6	414	953.232176382356	83
6	417	956.177888805461	84
6	418	957.673934215601	85
6	421	962.26000579693	86
6	429	976.74340326403	87
6	430	978.093959718902	88
6	431	979.308066740364	89
6	446	1002.115736661607	90
6	449	1009.405181541533	91
6	452	1014.54021120339	92
6	460	1022.013144691627	93
6	461	1022.859445051926	94
6	462	1030.625799673907	95
6	467	1039.54895892121	96
6	468	1041.391481214515	97
6	469	1052.32240483756	98
6	470	1052.468506020903	99
6	473	1058.469419231939	100
6	474	1060.122300781322	101
6	475	1068.203947008897	102
6	476	1071.233204000071	103
6	477	1077.469970855897	104
6	486	1094.072520952501	105
6	489	1102.648858197479	106
6	490	1104.01592925614	107
6	496	1111.454799051203	108
6	499	1118.055737749669	109
6	500	1119.036022178878	110
6	501	1121.600966159082	111
6	504	1149.71946351602	112
6	514	1171.46064123858	113
6	517	1176.003647150046	114
6	522	1180.467223301702	115
6	523	1183.960540604893	116
6	529	1201.206575901287	117
6	530	1203.192138237519	118
6	531	1209.025510685789	119
6	534	1218.994900855933	120
6	537	1229.058548301663	121
6	542	1249.63024962455	122
6	543	1257.614162301407	123
6	546	1267.843464829622	124
6	554	1286.926880950944	125
6	557	1301.736888723613	126
6	560	1303.136202286638	127
6	561	1308.936589677758	128
6	566	1325.560882518641	129
6	572	1338.349014008686	130
6	573	1338.716675345316	131
6	576	1341.800172279304	132
6	579	1350.807409841054	133
6	589	1364.265746381476	134
6	590	1367.352666476943	135
6	591	1369.819845028512	136
6	594	1380.527318542826	137
6	597	1394.031719063037	138
6	602	1400.413076151414	139
6	608	1413.591107805269	140
6	611	1418.877012888772	141
6	612	1425.185104373875	142
6	618	1450.348748459959	143
6	627	1469.330465353336	144
6	638	1493.064478100081	145
6	644	1514.027506762589	146
6	645	1516.299042080879	147
6	648	1517.949913662178	148
6	653	1523.229222595233	149
6	654	1529.247272740407	150
6	657	1534.251459933666	151
6	669	1574.743626567988	152
6	674	1580.454649163953	153
6	675	1582.725190649305	154
6	678	1596.53510395861	155
6	681	1605.135671024017	156
6	686	1619.488512877747	157
6	689	1622.268256999676	158
6	690	1623.351353206911	159
6	698	1633.194880999919	160
6	714	1670.071129993551	161
6	717	1676.646741892682	162
6	720	1677.619094544357	163
6	726	1681.092014395783	164
6	727	1682.34017969426	165
6	728	1684.373445956637	166
6	729	1686.782035927658	167
6	749	1718.568410544636	168
6	750	1721.50904238229	169
6	751	1723.658601100959	170
6	752	1727.236963105657	171
6	761	1750.280537472927	172
6	762	1750.437441910174	173
6	765	1756.26946795785	174
6	768	1761.416271262115	175
6	793	1845.037171310403	176
6	800	1860.478951026812	177
6	803	1865.613523800389	178
6	804	1866.781406805021	179
6	811	1871.560221710758	180
6	812	1876.074661636759	181
6	813	1879.956982328803	182
6	823	1892.381924540909	183
6	827	1909.496923617805	184
6	828	1909.521281627535	185
6	838	1952.105834356399	186
6	839	1953.09610164278	187
6	840	1954.318022929138	188
6	854	1986.868064985485	189
6	857	1992.632096783181	190
6	858	1992.9947858194	191
6	861	1999.858064870913	192
6	872	2029.399855659868	193
6	873	2032.00367679328	194
6	876	2036.848915739548	195
6	882	2045.132188315256	196
6	894	2073.76756195112	197
6	898	2079.302937717415	198
6	911	2108.375835542787	199
6	914	2110.22618237781	200
6	917	2116.090520139898	201
6	921	2128.189728254141	202
6	922	2128.884360537513	203
6	923	2129.12626471863	204
6	927	2138.177896303974	205
6	935	2162.522354969873	206
6	936	2162.90979135711	207
6	939	2170.12399730194	208
6	947	2182.671993117736	209
6	958	2200.662244116329	210
6	963	2206.892298242022	211
6	968	2218.384969968064	212
6	969	2219.202122860497	213
6	970	2220.955745994924	214
6	973	2225.725236268494	215
6	974	2227.010381536658	216
6	975	2227.827984481425	217
6	982	2247.668240264981	218
6	983	2250.765235787509	219
6	984	2253.421498648272	220
6	996	2265.997913610879	221
6	997	2275.272022083726	222
6	1004	2285.122124994014	223
6	1010	2301.502372411399	224
6	1011	2302.732413921886	225
6	1012	2305.839328010733	226
6	1013	2310.597199063651	227
6	1014	2312.088642640197	228
6	1022	2333.86958674113	229
6	1027	2336.79288420246	230
6	1028	2343.387324291057	231
6	1029	2350.382918722612	232
6	1032	2350.692470188939	233
6	1043	2376.650581145088	234
6	1054	2402.147270581076	235
6	1055	2402.333786082706	236
6	1056	2406.656383018204	237
6	1067	2445.04534347807	238
6	1068	2448.305422717742	239
6	1071	2454.219291520468	240
7	135	361.55381870012	7.381310872313
7	138	374.146406677628	0.980832750615
7	150	395.632135660572	2.35229714994
7	179	460.810273120149	52.602995768726
7	182	463.583546193469	51.585248743359
7	192	486.128192478909	50.054791605965
7	193	493.241819176104	55.927585360598
7	196	494.898538181566	57.570585234753
7	226	585.863844765241	126.05339179046
7	227	592.984917411733	130.44037728867
7	228	599.42778249176	132.32262978371
7	229	602.888290862552	133.90923581549
7	230	605.312862326771	133.39270019227
7	233	607.032814382006	131.93740576371
7	236	609.660128269292	115.07177373155
7	239	613.878738029064	116.16518741248
7	240	618.613227787386	110.8348753154
7	243	624.860876175419	97.234101090045
7	247	629.726520151549	50.335087895468
7	257	652.60313816383	44.689914620189
7	273	678.879464272351	51.101179333037
7	274	680.611373323397	49.904521458956
7	275	687.762731496563	50.275637761918
7	276	692.316647298491	54.094108021926
7	277	693.640338304499	50.223070406657
7	280	697.275601303664	43.881886495729
7	281	698.828443616246	42.518174668907
7	284	704.727293955371	42.295686950876
7	294	716.551917961384	41.947165047684
7	295	716.997014751459	21.661900362265
7	296	718.7710573961	17.254814951437
7	297	725.719666887329	20.794541048768
7	300	727.389644745486	15.574160997988
7	301	729.908599039332	17.867399361384
7	302	732.342625953862	16.678456177247
7	303	734.324255285968	7.284128345057
7	306	740.284264982888	4.665376227041
7	312	753.850434774431	7.71084483495
7	315	763.53287890238	0.888789186135
7	322	769.70506016283	3.930352975908
7	323	772.271632375587	3.733001061046
7	324	773.497305747628	4.26169324078
7	327	795.406107135759	8.157747811923
7	333	810.322256492736	8.314107252472
7	336	819.649575624589	3.892551900048
7	348	834.212812896608	11.352528564737
7	351	841.296831940346	13.159996714115
7	356	850.758911048422	18.629137734234
7	357	853.299094611775	20.236629979423
7	360	854.855703148101	14.64664821285
7	363	862.939671084945	17.896091582862
7	364	867.709954783964	19.606165495029
7	367	877.149077112598	23.631509680468
7	375	884.023775276695	12.307634229668
7	393	909.171423881206	21.833818851439
7	408	940.152470913787	47.701205572472
7	411	948.460274776517	52.173251668494
7	414	953.232176382356	45.735296244133
7	417	956.177888805461	48.589449571218
7	418	957.673934215601	48.059112163634
7	421	962.26000579693	49.740448491307
7	429	976.74340326403	61.039934184628
7	430	978.093959718902	57.322357067788
7	431	979.308066740364	47.680457661155
7	446	1002.115736661607	47.426121346575
7	449	1009.405181541533	51.215238365383
7	452	1014.54021120339	50.26673650231
7	460	1022.013144691627	50.719624308405
7	461	1022.859445051926	41.030639971861
7	462	1030.625799673907	41.855413575456
7	467	1039.54895892121	47.65699205907
7	468	1041.391481214515	49.397790481287
7	469	1052.32240483756	58.729767848897
7	470	1052.468506020903	57.407619566123
7	473	1058.469419231939	50.154638916304
7	474	1060.122300781322	47.15608617042
7	475	1068.203947008897	51.954322914023
7	476	1071.233204000071	53.01362822275
7	477	1077.469970855897	59.091724449785
7	486	1094.072520952501	56.385420251273
7	489	1102.648858197479	48.666852967198
7	490	1104.01592925614	26.087224007227
7	496	1111.454799051203	8.914307390594
7	499	1118.055737749669	13.335498963504
7	500	1119.036022178878	11.451443760875
7	501	1121.600966159082	7.908809234628
7	504	1149.71946351602	1.645531554281
7	514	1171.46064123858	12.465697735273
7	517	1176.003647150046	16.133675932957
7	522	1180.467223301702	10.196630445475
7	523	1183.960540604893	11.074394688006
7	529	1201.206575901287	21.026315367402
7	530	1203.192138237519	15.805289226102
7	531	1209.025510685789	20.028787628765
7	534	1218.994900855933	5.0567926038
7	537	1229.058548301663	8.163779764634
7	542	1249.63024962455	2.73181287758
7	543	1257.614162301407	10.337836577822
7	546	1267.843464829622	1.787242038805
7	554	1286.926880950944	7.938683007338
7	557	1301.736888723613	17.287900980144
7	560	1303.136202286638	9.000036254665
7	561	1308.936589677758	6.974007128968
7	566	1325.560882518641	8.556141835222
7	572	1338.349014008686	11.108610111545
7	573	1338.716675345316	7.01759843974
7	576	1341.800172279304	2.488242394624
7	579	1350.807409841054	6.718257682068
7	589	1364.265746381476	9.939159385076
7	590	1367.352666476943	9.76197909102
7	591	1369.819845028512	7.418204711126
7	594	1380.527318542826	9.978655703733
7	597	1394.031719063037	0.553884546812
7	602	1400.413076151414	6.056066297531
7	608	1413.591107805269	4.146287822984
7	611	1418.877012888772	8.186191116405
7	612	1425.185104373875	11.268635267448
7	618	1450.348748459959	7.505848693257
7	627	1469.330465353336	9.085078491658
7	638	1493.064478100081	10.633200814083
7	644	1514.027506762589	14.677382267207
7	645	1516.299042080879	12.291363823531
7	648	1517.949913662178	1.346634211545
7	653	1523.229222595233	2.398533862024
7	654	1529.247272740407	7.349832624136
7	657	1534.251459933666	0.21040294041
7	669	1574.743626567988	3.583389850211
7	674	1580.454649163953	5.027838029821
7	675	1582.725190649305	5.11086870821
7	678	1596.53510395861	8.152754847151
7	681	1605.135671024017	0.151220814057
7	686	1619.488512877747	11.380343815677
7	689	1622.268256999676	10.656671415294
7	690	1623.351353206911	2.380773410724
7	698	1633.194880999919	4.178639830323
7	714	1670.071129993551	28.870401010355
7	717	1676.646741892682	31.539148444476
7	720	1677.619094544357	20.620638298503
7	726	1681.092014395783	10.15034900924
7	727	1682.34017969426	4.999423675864
7	728	1684.373445956637	6.396217448917
7	729	1686.782035927658	7.630430048783
7	749	1718.568410544636	16.030534793423
7	750	1721.50904238229	11.535089439855
7	751	1723.658601100959	13.635401468167
7	752	1727.236963105657	15.405284119388
7	761	1750.280537472927	9.87772717748
7	762	1750.437441910174	8.80572603201
7	765	1756.26946795785	1.897616114865
7	768	1761.416271262115	3.703319147869
7	793	1845.037171310403	41.47353973201
7	800	1860.478951026812	45.289011884571
7	803	1865.613523800389	35.612646010636
7	804	1866.781406805021	22.694164245747
7	811	1871.560221710758	6.207756234023
7	812	1876.074661636759	7.898828669301
7	813	1879.956982328803	10.855869921667
7	823	1892.381924540909	8.772503265545
7	827	1909.496923617805	23.157810774731
7	828	1909.521281627535	3.349057842566
7	838	1952.105834356399	25.488177681231
7	839	1953.09610164278	23.586927051752
7	840	1954.318022929138	7.865504683109
7	854	1986.868064985485	4.510632650434
7	857	1992.632096783181	8.857912509216
7	858	1992.9947858194	1.982635687134
7	861	1999.858064870913	3.894730210463
7	872	2029.399855659868	7.61101579764
7	873	2032.00367679328	4.038066540487
7	876	2036.848915739548	0.178669548412
7	882	2045.132188315256	4.882552794098
7	894	2073.76756195112	20.316170027481
7	898	2079.302937717415	14.089032739016
7	911	2108.375835542787	32.128383847013
7	914	2110.22618237781	29.576803941641
7	917	2116.090520139898	27.674222950657
7	921	2128.189728254141	28.766668596172
7	922	2128.884360537513	19.358058718449
7	923	2129.12626471863	15.225048326341
7	927	2138.177896303974	7.528195023893
7	935	2162.522354969873	9.785032528273
7	936	2162.90979135711	4.584933183464
7	939	2170.12399730194	0.091062186243
7	947	2182.671993117736	7.61271229786
7	958	2200.662244116329	17.621281219003
7	963	2206.892298242022	12.378996703521
7	968	2218.384969968064	21.20378320669
7	969	2219.202122860497	17.339701173739
7	970	2220.955745994924	14.966028912566
7	973	2225.725236268494	15.090038232433
7	974	2227.010381536658	11.404385618141
7	975	2227.827984481425	6.844422330588
7	982	2247.668240264981	10.521435426094
7	983	2250.765235787509	8.092497571215
7	984	2253.421498648272	10.210305709593
7	996	2265.997913610879	10.721734350008
7	997	2275.272022083726	17.891398503672
7	1004	2285.122124994014	21.263728137958
7	1010	2301.502372411399	22.971726560205
7	1011	2302.732413921886	23.359078880497
7	1012	2305.839328010733	23.540239748016
7	1013	2310.597199063651	22.039255811673
7	1014	2312.088642640197	17.630650192633
7	1022	2333.86958674113	12.430954602187
7	1027	2336.79288420246	4.049800855561
7	1028	2343.387324291057	9.220984318726
7	1029	2350.382918722612	16.141084513432
7	1032	2350.692470188939	0.010513563447
7	1043	2376.650581145088	12.552864968726
7	1054	2402.147270581076	22.81497181451
7	1055	2402.333786082706	19.72043527584
7	1056	2406.656383018204	23.158672320222
7	1067	2445.04534347807	24.980549609281
7	1068	2448.305422717742	15.875737225396
7	1071	2454.219291520468	2.115653574125
8	140	381.910508285344	1
8	142	382.12216177113	2
8	146	385.458599038288	1
8	152	401.932998597983	1
8	154	404.293112790177	2
8	169	437.903864460807	2
8	171	439.767450543379	3
8	184	467.105152708054	1
8	200	507.778352471988	1
8	202	511.970843354015	2
8	204	523.641403692857	3
8	206	523.764599663184	4
8	208	526.525142992614	5
8	215	556.097184880185	3
8	219	564.45633319999	2
8	245	627.778284939314	1
8	253	638.222539276565	1
8	263	662.431607004495	1
8	265	662.436923341715	2
8	269	669.501349085891	1
8	290	712.041199677948	1
8	308	741.260931673624	1
8	329	799.551242766425	1
8	340	822.860284331871	1
8	369	877.543810870645	1
8	377	887.337605029767	1
8	380	888.487505027603	1
8	391	907.588439234243	1
8	395	909.614822051967	1
8	404	920.771602651114	1
8	423	964.27347470108	1
8	433	981.828805080065	1
8	440	991.993690733228	1
8	454	1016.249624094874	1
8	479	1077.928705248913	1
8	481	1080.302015026252	2
8	494	1107.584578418003	1
8	506	1158.933809594803	1
8	527	1188.996723057024	1
8	550	1278.988197943606	1
8	570	1331.699076905576	1
8	583	1354.3265869964	1
8	606	1410.690821772367	1
8	614	1442.401810080516	1
8	620	1458.263650676793	1
8	622	1458.853799594753	2
8	629	1474.67750170795	1
8	632	1478.591938273987	1
8	640	1499.350124495382	1
8	659	1540.927398831871	1
8	662	1543.83572861612	1
8	667	1571.160236717777	1
8	692	1627.011532211296	1
8	700	1641.200728983196	1
8	704	1649.139788179428	2
8	707	1651.886764969815	2
8	722	1677.97722850772	1
8	731	1691.221218932796	1
8	734	1695.469903337416	1
8	741	1709.973952942435	1
8	754	1734.173751778239	1
8	759	1741.631715878164	1
8	770	1795.251777029999	1
8	772	1796.186514870931	2
8	778	1810.233699922377	3
8	785	1821.747407345427	3
8	795	1852.560548192826	1
8	798	1854.576513861016	1
8	806	1868.175832967458	1
8	809	1869.101112407136	1
8	815	1883.079443135498	1
8	825	1906.172223784969	1
8	834	1929.509174591028	1
8	842	1967.343964080476	1
8	847	1979.682068380707	1
8	850	1982.357432335051	1
8	863	2003.786686497585	1
8	866	2006.5504223079	1
8	880	2040.249635521158	1
8	884	2053.063007369747	1
8	896	2076.247451695774	1
8	900	2080.649378436169	1
8	902	2086.329528345313	2
8	919	2116.760152658708	1
8	925	2130.649701280081	1
8	929	2149.349687489204	1
8	941	2171.319197265902	1
8	949	2183.040962897326	1
8	951	2183.478361293144	2
8	992	2263.858396856056	1
8	1008	2294.457992447564	1
8	1016	2319.143568197383	1
8	1036	2364.097716176362	1
8	1040	2369.034416376807	2
8	1045	2379.332298766566	1
8	1049	2382.99845866801	2
8	1060	2420.064793868789	1
8	1064	2435.541766541786	2
8	1073	2461.309526535168	1
8	1076	2468.83020005602	1
8	1079	2471.034788360199	1
9	140	381.910508285344	0
9	143	384.971039197779	2.848877426649
9	146	385.458599038288	0
9	152	401.932998597983	0
9	161	413.7824323843	9.489319594123
9	172	445.49160086173	7.587736400923
9	175	457.384619861621	17.617169318242
9	184	467.105152708054	0
9	200	507.778352471988	0
9	211	528.281371041501	16.310527687486
9	212	533.179554435613	9.538150742756
9	213	536.167227012591	12.402627349407
9	216	557.266926190985	30.741783198371
9	217	563.56064843232	7.463463552135
9	222	573.817794461848	9.361461261858
9	245	627.778284939314	0
9	253	638.222539276565	0
9	263	662.431607004495	0
9	266	664.352179951255	1.91525660954
9	269	669.501349085891	0
9	290	712.041199677948	0
9	308	741.260931673624	0
9	329	799.551242766425	0
9	340	822.860284331871	0
9	369	877.543810870645	0
9	377	887.337605029767	0
9	380	888.487505027603	0
9	391	907.588439234243	0
9	395	909.614822051967	0
9	404	920.771602651114	0
9	423	964.27347470108	0
9	433	981.828805080065	0
9	440	991.993690733228	0
9	454	1016.249624094874	0
9	479	1077.928705248913	0
9	484	1089.353087055494	9.051072029242
9	494	1107.584578418003	0
9	506	1158.933809594803	0
9	527	1188.996723057024	0
9	550	1278.988197943606	0
9	570	1331.699076905576	0
9	583	1354.3265869964	0
9	606	1410.690821772367	0
9	614	1442.401810080516	0
9	620	1458.263650676793	0
9	625	1466.283209009988	7.429409415235
9	629	1474.67750170795	0
9	632	1478.591938273987	0
9	640	1499.350124495382	0
9	659	1540.927398831871	0
9	662	1543.83572861612	0
9	667	1571.160236717777	0
9	692	1627.011532211296	0
9	700	1641.200728983196	0
9	705	1650.985624075942	1.845835896514
9	710	1664.906565313518	13.019800343703
9	722	1677.97722850772	0
9	731	1691.221218932796	0
9	734	1695.469903337416	0
9	741	1709.973952942435	0
9	754	1734.173751778239	0
9	759	1741.631715878164	0
9	770	1795.251777029999	0
9	781	1814.16435191181	17.977837040879
9	786	1822.334657476856	12.100957554479
9	789	1835.236298225579	13.488890880152
9	795	1852.560548192826	0
9	798	1854.576513861016	0
9	806	1868.175832967458	0
9	809	1869.101112407136	0
9	815	1883.079443135498	0
9	825	1906.172223784969	0
9	834	1929.509174591028	0
9	842	1967.343964080476	0
9	847	1979.682068380707	0
9	850	1982.357432335051	0
9	863	2003.786686497585	0
9	866	2006.5504223079	0
9	880	2040.249635521158	0
9	884	2053.063007369747	0
9	896	2076.247451695774	0
9	900	2080.649378436169	0
9	905	2093.402430249246	7.072901903933
9	919	2116.760152658708	0
9	925	2130.649701280081	0
9	929	2149.349687489204	0
9	941	2171.319197265902	0
9	949	2183.040962897326	0
9	952	2192.713321185297	9.234959892153
9	992	2263.858396856056	0
9	1008	2294.457992447564	0
9	1016	2319.143568197383	0
9	1036	2364.097716176362	0
9	1041	2372.209816886562	3.175400509755
9	1045	2379.332298766566	0
9	1052	2387.626387864249	4.627929196239
9	1060	2420.064793868789	0
9	1065	2439.534449033754	3.992682491968
9	1073	2461.309526535168	0
9	1076	2468.83020005602	0
9	1079	2471.034788360199	0
10	184	467.105152708054	5
10	200	507.778352471988	6
10	245	627.778284939314	7
10	253	638.222539276565	8
10	263	662.431607004495	9
10	269	669.501349085891	10
10	290	712.041199677948	11
10	340	822.860284331871	12
10	369	877.543810870645	13
10	377	887.337605029767	14
10	380	888.487505027603	15
10	391	907.588439234243	16
10	395	909.614822051967	17
10	404	920.771602651114	18
10	423	964.27347470108	19
10	433	981.828805080065	20
10	440	991.993690733228	21
10	454	1016.249624094874	22
10	479	1077.928705248913	23
10	494	1107.584578418003	24
10	527	1188.996723057024	25
10	550	1278.988197943606	26
10	570	1331.699076905576	27
10	583	1354.3265869964	28
10	606	1410.690821772367	29
10	640	1499.350124495382	30
10	667	1571.160236717777	31
10	700	1641.200728983196	32
10	722	1677.97722850772	33
10	741	1709.973952942435	34
10	754	1734.173751778239	35
10	759	1741.631715878164	36
10	795	1852.560548192826	37
10	798	1854.576513861016	38
10	806	1868.175832967458	39
10	809	1869.101112407136	40
10	825	1906.172223784969	41
10	834	1929.509174591028	42
10	847	1979.682068380707	43
10	850	1982.357432335051	44
10	880	2040.249635521158	45
10	896	2076.247451695774	46
10	900	2080.649378436169	47
10	919	2116.760152658708	48
10	925	2130.649701280081	49
10	949	2183.040962897326	50
10	992	2263.858396856056	51
10	1008	2294.457992447564	52
10	1036	2364.097716176362	53
10	1045	2379.332298766566	54
10	1060	2420.064793868789	55
11	1081	2500	0.096
12	1081	2500	0.048

