version 2
run experiments_medium_game_mode1-77-20230311-09:40:13-9051
attr configname experiments_medium_game_mode1
attr datetime 20230311-09:40:13
attr experiment experiments_medium_game_mode1
attr inifile omnetpp.ini
attr iterationvars "$0=5, $1=4, $2=0"
attr iterationvarsf 5,4,0-
attr measurement "$0=5, $1=4, $2=0"
attr network Network
attr processid 9051
attr repetition 17
attr replication #17
attr resultdir results
attr runnumber 77
attr seedset 17
param *.boss.arrival_mean 20
param *.boss.service_mean 5
param *.minion.arrival_mean 10
param *.minion.service_mean 4
param *.player.recover_rate_x 0
param **.minion.arrival_distribution 0
param **.minion.service_distribution 0
param **.boss.arrival_distribution 0
param **.boss.service_distribution 0

vector 0 Network.player boss_jobs_number_stat:vector ETV
attr source signal_boss_jobs_number
vector 1 Network.player boss_jobs_queue_number_stat:vector ETV
attr source signal_boss_jobs_queue_number
vector 2 Network.player boss_defeated_stat:vector ETV
attr source signal_boss_defeated
vector 3 Network.player boss_response_time_stat:vector ETV
attr source signal_boss_response_time
vector 4 Network.player boss_waiting_time_stat:vector ETV
attr source signal_boss_waiting_time
vector 5 Network.player minion_waiting_time_stat:vector ETV
attr source signal_minion_waiting_time
vector 6 Network.player minion_defeated_stat:vector ETV
attr source signal_minion_defeated
vector 7 Network.player minion_jobs_queue_number_stat:vector ETV
attr source signal_minion_jobs_queue_number
vector 8 Network.player minion_response_time_stat:vector ETV
attr source signal_minion_response_time
vector 9 Network.player minion_recovered_stat:vector ETV
attr source signal_minion_recovered
vector 10 Network.player minion_jobs_number_stat:vector ETV
attr source signal_minion_jobs_number
vector 11 Network.player minion_throughput:vector ETV
attr source signal_minion_throughput
vector 12 Network.player boss_throughput:vector ETV
attr source signal_boss_throughput
0	156	350.171511211393	2
0	162	359.177002320821	1
0	169	365.26094743687	1
0	171	368.098189762035	2
0	186	385.995055935859	1
0	201	401.159380145501	1
0	210	408.580972013092	1
0	212	411.98303390355	2
0	214	412.876803304027	3
0	219	422.146072715288	3
0	227	446.775027194891	1
0	233	468.45014409572	1
0	236	472.544172029421	1
0	242	487.076176212721	1
0	245	491.308263830936	1
0	254	514.420445053881	1
0	263	540.977110483324	1
0	266	551.819681983572	1
0	268	554.511948886503	2
0	275	575.952425612315	1
0	278	583.288797401775	1
0	281	588.718100361583	1
0	303	643.125925376857	1
0	306	645.586996621865	1
0	335	730.571370209296	1
0	337	734.350173070654	2
0	371	810.658340050417	1
0	385	884.907727247863	1
0	387	887.721201712711	2
0	389	888.414522886148	3
0	391	888.512631947575	4
0	394	890.614748597704	4
0	408	921.637319564409	3
0	418	933.050810641064	1
0	433	955.511706174683	1
0	455	994.890497857697	1
0	457	1003.331701847225	2
0	467	1024.71278138575	1
0	470	1033.063840915732	1
0	473	1051.810539160986	1
0	481	1065.212657206365	1
0	484	1065.754729663329	1
0	488	1080.816328212444	2
0	503	1093.090213003979	1
0	554	1190.157796246335	1
0	558	1195.018006867426	2
0	566	1254.157083332267	1
0	581	1280.882010518192	1
0	584	1313.151903889802	1
0	592	1321.444395591257	2
0	595	1325.585896946281	2
0	601	1335.422098015786	1
0	604	1338.793171785704	1
0	609	1343.945698054676	1
0	611	1344.605648280557	2
0	613	1348.23718360817	3
0	619	1354.444723385226	1
0	624	1363.78207600242	1
0	627	1372.897775342055	1
0	630	1380.740144125913	1
0	652	1449.877692855951	1
0	656	1463.860393903988	1
0	661	1472.968465229854	1
0	668	1519.198196621634	1
0	673	1532.42682870514	1
0	682	1550.165412899953	1
0	686	1554.583269324379	2
0	699	1573.502541172078	1
0	719	1622.789686438765	1
0	721	1626.079452015312	2
0	725	1630.884862694327	3
0	727	1635.526245392597	4
0	734	1672.708889509399	1
0	745	1683.53909461402	1
0	748	1684.610946595907	1
0	752	1685.324302382972	2
0	756	1690.607090687069	1
0	758	1690.716656719464	2
0	773	1722.801084257979	1
0	782	1752.565669775121	1
0	785	1757.548582860074	1
0	805	1795.945836784854	1
0	811	1803.075119845715	1
0	834	1863.031907122048	1
0	839	1873.807397067592	1
0	842	1876.768904317585	1
0	855	1890.39997952919	1
0	859	1891.62937734553	1
0	864	1895.714537944116	1
0	870	1904.656803873486	2
0	877	1907.741361857288	1
0	879	1907.770545241994	2
0	881	1910.078089205621	3
0	894	1928.628792155236	1
0	903	1940.266183214219	1
0	919	1969.677378120698	1
0	940	2005.109057834261	1
0	956	2037.716048677079	1
0	974	2096.363142973599	1
0	976	2103.40630497504	2
0	983	2118.70735399252	2
0	994	2130.419533422778	1
0	1004	2149.699629152779	1
0	1016	2180.406746134353	1
0	1025	2189.056782590741	1
0	1034	2208.817946604845	1
0	1040	2249.007462530087	1
0	1047	2267.540485069693	1
0	1058	2284.914111308136	1
0	1073	2303.01610025261	1
0	1097	2370.815889430469	1
0	1099	2386.415765345996	2
0	1121	2426.057704019991	1
0	1123	2426.901955418237	2
0	1127	2436.157063888962	3
0	1146	2467.123966566147	1
0	1151	2473.867866227238	1
0	1167	2489.726720628059	1
1	156	350.171511211393	1
1	157	353.344738418983	1
1	158	355.290835608685	0
1	162	359.177002320821	0
1	165	362.789320280922	0
1	169	365.26094743687	0
1	171	368.098189762035	1
1	174	371.566415482964	1
1	175	371.832594974144	0
1	186	385.995055935859	0
1	187	386.537618898158	0
1	201	401.159380145501	0
1	202	401.910088266849	0
1	210	408.580972013092	0
1	212	411.98303390355	1
1	214	412.876803304027	2
1	215	413.163559285727	2
1	219	422.146072715288	2
1	220	427.189917497707	2
1	221	427.922357441697	1
1	222	435.680222571414	0
1	227	446.775027194891	0
1	228	458.250785452565	0
1	233	468.45014409572	0
1	234	468.869554149841	0
1	236	472.544172029421	0
1	237	473.956035000615	0
1	242	487.076176212721	0
1	243	489.345794061866	0
1	245	491.308263830936	0
1	250	506.660182670723	0
1	254	514.420445053881	0
1	255	520.577502646217	0
1	263	540.977110483324	0
1	264	548.73981259588	0
1	266	551.819681983572	0
1	268	554.511948886503	1
1	269	557.378756655542	1
1	270	560.225395712413	0
1	275	575.952425612315	0
1	276	577.9018900646	0
1	278	583.288797401775	0
1	279	584.758140273916	0
1	281	588.718100361583	0
1	282	589.162810097485	0
1	303	643.125925376857	0
1	304	645.449045145658	0
1	306	645.586996621865	0
1	307	647.69619737293	0
1	335	730.571370209296	0
1	337	734.350173070654	1
1	338	734.78433097299	1
1	349	759.20056697042	0
1	371	810.658340050417	0
1	372	812.353647148666	0
1	385	884.907727247863	0
1	387	887.721201712711	1
1	389	888.414522886148	2
1	391	888.512631947575	3
1	392	890.393903172406	3
1	394	890.614748597704	3
1	399	900.20419523379	3
1	404	909.257044634215	2
1	408	921.637319564409	2
1	409	922.317788523386	2
1	410	922.692474020673	1
1	411	922.883592904869	0
1	418	933.050810641064	0
1	421	934.247753038994	0
1	433	955.511706174683	0
1	434	957.470126032248	0
1	455	994.890497857697	0
1	457	1003.331701847225	1
1	460	1004.898537500106	1
1	461	1006.959790968176	0
1	467	1024.71278138575	0
1	468	1031.475641295442	0
1	470	1033.063840915732	0
1	471	1037.996181834585	0
1	473	1051.810539160986	0
1	476	1055.837965313033	0
1	481	1065.212657206365	0
1	482	1065.605076243449	0
1	484	1065.754729663329	0
1	488	1080.816328212444	1
1	489	1084.115779879249	1
1	496	1085.400072391735	0
1	503	1093.090213003979	0
1	504	1093.657489625602	0
1	554	1190.157796246335	0
1	558	1195.018006867426	1
1	561	1202.830598561256	1
1	562	1209.393343372029	0
1	566	1254.157083332267	0
1	567	1255.620065117901	0
1	581	1280.882010518192	0
1	582	1282.710348141849	0
1	584	1313.151903889802	0
1	592	1321.444395591257	1
1	593	1323.626969401313	1
1	595	1325.585896946281	1
1	598	1327.882677775781	1
1	599	1329.60097826366	0
1	601	1335.422098015786	0
1	602	1335.868657271501	0
1	604	1338.793171785704	0
1	605	1340.140585036792	0
1	609	1343.945698054676	0
1	611	1344.605648280557	1
1	613	1348.23718360817	2
1	614	1348.822357874246	2
1	615	1349.844675503416	1
1	616	1349.879942636139	0
1	619	1354.444723385226	0
1	620	1355.182682924241	0
1	624	1363.78207600242	0
1	625	1368.099233449117	0
1	627	1372.897775342055	0
1	628	1376.197251490721	0
1	630	1380.740144125913	0
1	635	1391.59031065529	0
1	652	1449.877692855951	0
1	653	1456.437199779314	0
1	656	1463.860393903988	0
1	657	1466.283210225794	0
1	661	1472.968465229854	0
1	662	1480.279280130568	0
1	668	1519.198196621634	0
1	671	1531.110978975295	0
1	673	1532.42682870514	0
1	676	1534.280663548479	0
1	682	1550.165412899953	0
1	686	1554.583269324379	1
1	687	1559.659255987225	1
1	690	1565.59643086944	0
1	699	1573.502541172078	0
1	700	1580.142015066642	0
1	719	1622.789686438765	0
1	721	1626.079452015312	1
1	725	1630.884862694327	2
1	727	1635.526245392597	3
1	728	1637.763289228829	3
1	729	1640.928038108808	2
1	730	1644.70065534236	1
1	731	1647.684248392643	0
1	734	1672.708889509399	0
1	735	1675.427130759024	0
1	745	1683.53909461402	0
1	746	1684.299056010146	0
1	748	1684.610946595907	0
1	752	1685.324302382972	1
1	753	1688.771185030923	1
1	754	1689.535111039352	0
1	756	1690.607090687069	0
1	758	1690.716656719464	1
1	763	1697.993057681977	1
1	764	1698.878974035239	0
1	773	1722.801084257979	0
1	774	1725.657941760231	0
1	782	1752.565669775121	0
1	783	1753.294540704619	0
1	785	1757.548582860074	0
1	786	1763.765410385782	0
1	805	1795.945836784854	0
1	806	1800.449538887007	0
1	811	1803.075119845715	0
1	812	1809.077104748967	0
1	834	1863.031907122048	0
1	835	1863.541081402984	0
1	839	1873.807397067592	0
1	840	1874.675104411321	0
1	842	1876.768904317585	0
1	845	1877.533323963329	0
1	855	1890.39997952919	0
1	856	1890.469340332851	0
1	859	1891.62937734553	0
1	860	1892.772000140238	0
1	864	1895.714537944116	0
1	870	1904.656803873486	1
1	871	1905.44681050785	1
1	872	1905.800655244359	0
1	877	1907.741361857288	0
1	879	1907.770545241994	1
1	881	1910.078089205621	2
1	884	1911.739543350279	2
1	885	1915.457132355576	1
1	886	1915.870127010538	0
1	894	1928.628792155236	0
1	895	1930.678453148245	0
1	903	1940.266183214219	0
1	904	1944.131927185789	0
1	919	1969.677378120698	0
1	922	1974.215624465632	0
1	940	2005.109057834261	0
1	941	2006.568552960579	0
1	956	2037.716048677079	0
1	963	2061.783316158289	0
1	974	2096.363142973599	0
1	976	2103.40630497504	1
1	981	2114.928378491931	1
1	983	2118.70735399252	1
1	984	2121.853437901312	1
1	985	2123.403910190268	0
1	994	2130.419533422778	0
1	995	2132.512908520402	0
1	1004	2149.699629152779	0
1	1007	2154.454457085293	0
1	1016	2180.406746134353	0
1	1021	2183.416353855055	0
1	1025	2189.056782590741	0
1	1026	2190.315529352579	0
1	1034	2208.817946604845	0
1	1035	2210.724878136214	0
1	1040	2249.007462530087	0
1	1041	2249.80504130774	0
1	1047	2267.540485069693	0
1	1050	2268.444214661687	0
1	1058	2284.914111308136	0
1	1059	2287.897985810345	0
1	1073	2303.01610025261	0
1	1074	2304.446702641795	0
1	1097	2370.815889430469	0
1	1099	2386.415765345996	1
1	1100	2388.635265031394	1
1	1101	2388.641189533844	0
1	1121	2426.057704019991	0
1	1123	2426.901955418237	1
1	1127	2436.157063888962	2
1	1132	2442.761979467421	2
1	1133	2445.206971110931	1
1	1134	2445.861730741563	0
1	1146	2467.123966566147	0
1	1149	2468.214657451065	0
1	1151	2473.867866227238	0
1	1152	2476.138244020592	0
1	1167	2489.726720628059	0
1	1168	2492.138571458029	0
2	157	353.344738418983	20
2	158	355.290835608685	21
2	165	362.789320280922	22
2	174	371.566415482964	23
2	175	371.832594974144	24
2	187	386.537618898158	25
2	202	401.910088266849	26
2	215	413.163559285727	27
2	220	427.189917497707	28
2	221	427.922357441697	29
2	222	435.680222571414	30
2	228	458.250785452565	31
2	234	468.869554149841	32
2	237	473.956035000615	33
2	243	489.345794061866	34
2	250	506.660182670723	35
2	255	520.577502646217	36
2	264	548.73981259588	37
2	269	557.378756655542	38
2	270	560.225395712413	39
2	276	577.9018900646	40
2	279	584.758140273916	41
2	282	589.162810097485	42
2	304	645.449045145658	43
2	307	647.69619737293	44
2	338	734.78433097299	45
2	349	759.20056697042	46
2	372	812.353647148666	47
2	392	890.393903172406	48
2	399	900.20419523379	49
2	404	909.257044634215	50
2	409	922.317788523386	51
2	410	922.692474020673	52
2	411	922.883592904869	53
2	421	934.247753038994	54
2	434	957.470126032248	55
2	460	1004.898537500106	56
2	461	1006.959790968176	57
2	468	1031.475641295442	58
2	471	1037.996181834585	59
2	476	1055.837965313033	60
2	482	1065.605076243449	61
2	489	1084.115779879249	62
2	496	1085.400072391735	63
2	504	1093.657489625602	64
2	561	1202.830598561256	65
2	562	1209.393343372029	66
2	567	1255.620065117901	67
2	582	1282.710348141849	68
2	593	1323.626969401313	69
2	598	1327.882677775781	70
2	599	1329.60097826366	71
2	602	1335.868657271501	72
2	605	1340.140585036792	73
2	614	1348.822357874246	74
2	615	1349.844675503416	75
2	616	1349.879942636139	76
2	620	1355.182682924241	77
2	625	1368.099233449117	78
2	628	1376.197251490721	79
2	635	1391.59031065529	80
2	653	1456.437199779314	81
2	657	1466.283210225794	82
2	662	1480.279280130568	83
2	671	1531.110978975295	84
2	676	1534.280663548479	85
2	687	1559.659255987225	86
2	690	1565.59643086944	87
2	700	1580.142015066642	88
2	728	1637.763289228829	89
2	729	1640.928038108808	90
2	730	1644.70065534236	91
2	731	1647.684248392643	92
2	735	1675.427130759024	93
2	746	1684.299056010146	94
2	753	1688.771185030923	95
2	754	1689.535111039352	96
2	763	1697.993057681977	97
2	764	1698.878974035239	98
2	774	1725.657941760231	99
2	783	1753.294540704619	100
2	786	1763.765410385782	101
2	806	1800.449538887007	102
2	812	1809.077104748967	103
2	835	1863.541081402984	104
2	840	1874.675104411321	105
2	845	1877.533323963329	106
2	856	1890.469340332851	107
2	860	1892.772000140238	108
2	871	1905.44681050785	109
2	872	1905.800655244359	110
2	884	1911.739543350279	111
2	885	1915.457132355576	112
2	886	1915.870127010538	113
2	895	1930.678453148245	114
2	904	1944.131927185789	115
2	922	1974.215624465632	116
2	941	2006.568552960579	117
2	963	2061.783316158289	118
2	981	2114.928378491931	119
2	984	2121.853437901312	120
2	985	2123.403910190268	121
2	995	2132.512908520402	122
2	1007	2154.454457085293	123
2	1021	2183.416353855055	124
2	1026	2190.315529352579	125
2	1035	2210.724878136214	126
2	1041	2249.80504130774	127
2	1050	2268.444214661687	128
2	1059	2287.897985810345	129
2	1074	2304.446702641795	130
2	1100	2388.635265031394	131
2	1101	2388.641189533844	132
2	1132	2442.761979467421	133
2	1133	2445.206971110931	134
2	1134	2445.861730741563	135
2	1149	2468.214657451065	136
2	1152	2476.138244020592	137
2	1168	2492.138571458029	138
3	157	353.344738418983	12.197796663528
3	158	355.290835608685	5.119324397292
3	165	362.789320280922	3.612317960101
3	174	371.566415482964	6.305468046094
3	175	371.832594974144	3.734405212109
3	187	386.537618898158	0.542562962299
3	202	401.910088266849	0.750708121348
3	215	413.163559285727	4.582587272635
3	220	427.189917497707	15.206883594157
3	221	427.922357441697	15.04555413767
3	222	435.680222571414	13.534149856126
3	228	458.250785452565	11.475758257674
3	234	468.869554149841	0.419410054121
3	237	473.956035000615	1.411862971194
3	243	489.345794061866	2.269617849145
3	250	506.660182670723	15.351918839787
3	255	520.577502646217	6.157057592336
3	264	548.73981259588	7.762702112556
3	269	557.378756655542	5.55907467197
3	270	560.225395712413	5.71344682591
3	276	577.9018900646	1.949464452285
3	279	584.758140273916	1.469342872141
3	282	589.162810097485	0.444709735902
3	304	645.449045145658	2.323119768801
3	307	647.69619737293	2.109200751065
3	338	734.78433097299	4.212960763694
3	349	759.20056697042	24.850393899766
3	372	812.353647148666	1.695307098249
3	392	890.393903172406	5.486175924543
3	399	900.20419523379	12.482993521079
3	404	909.257044634215	20.842521748067
3	409	922.317788523386	33.805156575811
3	410	922.692474020673	32.077725422969
3	411	922.883592904869	1.24627334046
3	421	934.247753038994	1.19694239793
3	434	957.470126032248	1.958419857565
3	460	1004.898537500106	10.008039642409
3	461	1006.959790968176	3.628089120951
3	468	1031.475641295442	6.762859909692
3	471	1037.996181834585	4.932340918853
3	476	1055.837965313033	4.027426152047
3	482	1065.605076243449	0.392419037084
3	489	1084.115779879249	18.36105021592
3	496	1085.400072391735	4.583744179291
3	504	1093.657489625602	0.567276621623
3	561	1202.830598561256	12.672802314921
3	562	1209.393343372029	14.375336504603
3	567	1255.620065117901	1.462981785634
3	582	1282.710348141849	1.828337623657
3	593	1323.626969401313	10.475065511511
3	598	1327.882677775781	6.438282184524
3	599	1329.60097826366	4.015081317379
3	602	1335.868657271501	0.446559255715
3	605	1340.140585036792	1.347413251088
3	614	1348.822357874246	4.87665981957
3	615	1349.844675503416	5.239027222859
3	616	1349.879942636139	1.642759027969
3	620	1355.182682924241	0.737959539015
3	625	1368.099233449117	4.317157446697
3	628	1376.197251490721	3.299476148666
3	635	1391.59031065529	10.850166529377
3	653	1456.437199779314	6.559506923363
3	657	1466.283210225794	2.422816321806
3	662	1480.279280130568	7.310814900714
3	671	1531.110978975295	11.912782353661
3	676	1534.280663548479	1.853834843339
3	687	1559.659255987225	9.493843087272
3	690	1565.59643086944	11.013161545061
3	700	1580.142015066642	6.639473894564
3	728	1637.763289228829	14.973602790064
3	729	1640.928038108808	14.848586093496
3	730	1644.70065534236	13.815792648033
3	731	1647.684248392643	12.158003000046
3	735	1675.427130759024	2.718241249625
3	746	1684.299056010146	0.759961396126
3	753	1688.771185030923	4.160238435016
3	754	1689.535111039352	4.21080865638
3	763	1697.993057681977	7.385966994908
3	764	1698.878974035239	8.162317315775
3	774	1725.657941760231	2.856857502252
3	783	1753.294540704619	0.728870929498
3	786	1763.765410385782	6.216827525708
3	806	1800.449538887007	4.503702102153
3	812	1809.077104748967	6.001984903252
3	835	1863.541081402984	0.509174280936
3	840	1874.675104411321	0.867707343729
3	845	1877.533323963329	0.764419645744
3	856	1890.469340332851	0.069360803661
3	860	1892.772000140238	1.142622794708
3	871	1905.44681050785	9.732272563734
3	872	1905.800655244359	1.143851370873
3	884	1911.739543350279	3.998181492991
3	885	1915.457132355576	7.686587113582
3	886	1915.870127010538	5.792037804917
3	895	1930.678453148245	2.049660993009
3	904	1944.131927185789	3.86574397157
3	922	1974.215624465632	4.538246344934
3	941	2006.568552960579	1.459495126318
3	963	2061.783316158289	24.06726748121
3	981	2114.928378491931	18.565235518332
3	984	2121.853437901312	18.447132926272
3	985	2123.403910190268	4.696556197748
3	995	2132.512908520402	2.093375097624
3	1007	2154.454457085293	4.754827932514
3	1021	2183.416353855055	3.009607720702
3	1026	2190.315529352579	1.258746761838
3	1035	2210.724878136214	1.906931531369
3	1041	2249.80504130774	0.797578777653
3	1050	2268.444214661687	0.903729591994
3	1059	2287.897985810345	2.983874502209
3	1074	2304.446702641795	1.430602389185
3	1100	2388.635265031394	17.819375600925
3	1101	2388.641189533844	2.225424187848
3	1132	2442.761979467421	16.70427544743
3	1133	2445.206971110931	18.305015692694
3	1134	2445.861730741563	9.704666852601
3	1149	2468.214657451065	1.090690884918
3	1152	2476.138244020592	2.270377793354
3	1168	2492.138571458029	2.41185082997
4	157	353.344738418983	3.17322720759
4	162	359.177002320821	0
4	169	365.26094743687	0
4	174	371.566415482964	3.468225720929
4	186	385.995055935859	0
4	201	401.159380145501	0
4	210	408.580972013092	0
4	215	413.163559285727	1.180525382177
4	220	427.189917497707	14.31311419368
4	221	427.922357441697	5.776284726409
4	227	446.775027194891	0
4	233	468.45014409572	0
4	236	472.544172029421	0
4	242	487.076176212721	0
4	245	491.308263830936	0
4	254	514.420445053881	0
4	263	540.977110483324	0
4	266	551.819681983572	0
4	269	557.378756655542	2.866807769039
4	275	575.952425612315	0
4	278	583.288797401775	0
4	281	588.718100361583	0
4	303	643.125925376857	0
4	306	645.586996621865	0
4	335	730.571370209296	0
4	338	734.78433097299	0.434157902336
4	371	810.658340050417	0
4	385	884.907727247863	0
4	392	890.393903172406	2.672701459695
4	399	900.20419523379	11.789672347642
4	404	909.257044634215	20.74441268664
4	409	922.317788523386	31.703039925682
4	410	922.692474020673	1.055154456264
4	418	933.050810641064	0
4	433	955.511706174683	0
4	455	994.890497857697	0
4	460	1004.898537500106	1.566835652881
4	467	1024.71278138575	0
4	470	1033.063840915732	0
4	473	1051.810539160986	0
4	481	1065.212657206365	0
4	484	1065.754729663329	0
4	489	1084.115779879249	3.299451666805
4	503	1093.090213003979	0
4	554	1190.157796246335	0
4	561	1202.830598561256	7.81259169383
4	566	1254.157083332267	0
4	581	1280.882010518192	0
4	584	1313.151903889802	0
4	593	1323.626969401313	2.182573810056
4	598	1327.882677775781	2.2967808295
4	601	1335.422098015786	0
4	604	1338.793171785704	0
4	609	1343.945698054676	0
4	614	1348.822357874246	4.216709593689
4	615	1349.844675503416	1.607491895246
4	619	1354.444723385226	0
4	624	1363.78207600242	0
4	627	1372.897775342055	0
4	630	1380.740144125913	0
4	652	1449.877692855951	0
4	656	1463.860393903988	0
4	661	1472.968465229854	0
4	668	1519.198196621634	0
4	673	1532.42682870514	0
4	682	1550.165412899953	0
4	687	1559.659255987225	5.075986662846
4	699	1573.502541172078	0
4	719	1622.789686438765	0
4	728	1637.763289228829	11.683837213517
4	729	1640.928038108808	10.043175414481
4	730	1644.70065534236	9.174409949763
4	734	1672.708889509399	0
4	745	1683.53909461402	0
4	748	1684.610946595907	0
4	753	1688.771185030923	3.446882647951
4	756	1690.607090687069	0
4	763	1697.993057681977	7.276400962513
4	773	1722.801084257979	0
4	782	1752.565669775121	0
4	785	1757.548582860074	0
4	805	1795.945836784854	0
4	811	1803.075119845715	0
4	834	1863.031907122048	0
4	839	1873.807397067592	0
4	842	1876.768904317585	0
4	855	1890.39997952919	0
4	859	1891.62937734553	0
4	864	1895.714537944116	0
4	871	1905.44681050785	0.790006634364
4	877	1907.741361857288	0
4	884	1911.739543350279	3.968998108285
4	885	1915.457132355576	5.379043149955
4	894	1928.628792155236	0
4	903	1940.266183214219	0
4	919	1969.677378120698	0
4	940	2005.109057834261	0
4	956	2037.716048677079	0
4	974	2096.363142973599	0
4	981	2114.928378491931	11.522073516891
4	984	2121.853437901312	3.146083908792
4	994	2130.419533422778	0
4	1004	2149.699629152779	0
4	1016	2180.406746134353	0
4	1025	2189.056782590741	0
4	1034	2208.817946604845	0
4	1040	2249.007462530087	0
4	1047	2267.540485069693	0
4	1058	2284.914111308136	0
4	1073	2303.01610025261	0
4	1097	2370.815889430469	0
4	1100	2388.635265031394	2.219499685398
4	1121	2426.057704019991	0
4	1132	2442.761979467421	15.860024049184
4	1133	2445.206971110931	9.049907221969
4	1146	2467.123966566147	0
4	1151	2473.867866227238	0
4	1167	2489.726720628059	0
5	158	355.290835608685	33.847327781891
5	159	356.883766301504	32.023516470041
5	160	357.309594191989	17.501780017175
5	165	362.789320280922	21.642378525467
5	166	363.547426918961	4.37042459814
5	167	364.220630029833	2.632815562882
5	175	371.832594974144	6.571647537274
5	176	377.5511099373	7.033747319736
5	179	381.15031939228	0
5	182	384.892199712954	1.892092947331
5	187	386.537618898158	1.331887038569
5	194	393.155707139152	7.160651203293
5	195	393.616168237272	6.384494410314
5	196	396.043357469223	4.575712448571
5	199	400.955091926241	9.164764268485
5	202	401.910088266849	1.669813590384
5	205	404.430249595356	3.270869449855
5	206	407.242908411456	4.39387641878
5	222	435.680222571414	27.402683885053
5	223	438.255593804071	29.674621790979
5	224	438.304601481778	22.478722425079
5	230	468.003348668458	0
5	239	479.777162500302	0
5	250	506.660182670723	9.017149799626
5	251	509.914200838908	8.846727416348
5	257	529.720340730688	0
5	260	531.613964552998	0.949420807599
5	272	564.630861679177	0
5	284	607.060157196228	0
5	287	609.325034851688	0.507934849465
5	290	623.652681534036	0
5	293	626.268215411257	0
5	296	634.226339513972	0
5	299	641.269760757948	0
5	304	645.449045145658	2.456403632561
5	307	647.69619737293	4.570271996073
5	310	650.949607784533	5.362611162668
5	311	653.691445767256	4.440185502717
5	314	663.131940718352	0
5	319	680.721677722977	10.348073095334
5	322	682.354465406633	4.542884110179
5	323	685.382345185432	4.057197337277
5	326	697.713954861291	0
5	329	705.670589228675	0
5	332	718.278332535994	0
5	349	759.20056697042	19.829774672438
5	350	760.285472724212	20.75445969214
5	351	760.781183110948	18.895369816727
5	352	766.136577961215	17.052054133885
5	355	771.049991443943	15.342690353708
5	358	771.826511696044	4.93913998048
5	359	773.961633972532	2.251701296252
5	362	783.247208959	0
5	365	793.563616539954	0
5	368	800.22497064418	0
5	374	814.985995901723	0
5	377	876.737061601873	0
5	380	880.263351200228	0
5	383	884.715060646702	0
5	411	922.883592904869	37.975865657006
5	414	925.13879319493	32.080797474238
5	415	925.184177465027	27.562611631601
5	416	931.739498330938	27.052230650503
5	421	934.247753038994	28.099563596868
5	422	935.108004224814	15.64657945162
5	425	940.295983745715	16.827059239874
5	426	942.798150867737	9.747340226673
5	427	943.841224380842	10.46918898408
5	428	947.214502607663	11.975372056626
5	431	948.061920264453	0.700742798432
5	434	957.470126032248	1.958419857565
5	437	965.852476898078	0.139081996072
5	440	969.144301495477	0
5	443	978.446267412114	0
5	446	979.290949837497	0
5	449	985.367248631966	0
5	452	991.916379502635	0
5	461	1006.959790968176	2.923481575682
5	464	1008.14852332297	0.835228468079
5	476	1055.837965313033	0.584742476422
5	479	1064.332896723178	0
5	482	1065.605076243449	0.392419037084
5	496	1085.400072391735	19.645342728406
5	499	1087.010649881891	12.551915719822
5	504	1093.657489625602	8.922398861712
5	505	1094.592590665792	9.672580051571
5	506	1097.756741511205	12.412564784628
5	507	1098.01557503912	11.168272460314
5	520	1111.696610775662	20.703338240626
5	521	1113.606278281671	20.516065277692
5	524	1118.006292520072	16.647173632761
5	527	1127.110397286957	24.383525596764
5	528	1128.003842514279	25.229982863415
5	531	1129.987920396137	27.179217328471
5	532	1136.024063768522	32.465371191521
5	533	1137.928277591444	32.429749947904
5	534	1142.283195008142	28.384618866203
5	535	1146.500517240153	28.282344337756
5	538	1150.268669907061	20.982426471052
5	539	1158.028177559299	8.697510046922
5	542	1168.132939327389	0
5	545	1177.257572825815	0
5	548	1180.200759868871	0
5	551	1183.244769298557	2.881236344314
5	562	1209.393343372029	15.696910956244
5	563	1210.104675145712	12.068312236216
5	569	1256.80320130424	0
5	572	1262.57149398774	0
5	575	1264.418412961061	1.600580065148
5	578	1264.960707543753	0.516913786441
5	599	1329.60097826366	12.773109065072
5	602	1335.868657271501	19.031690446329
5	605	1340.140585036792	22.248939823067
5	616	1349.879942636139	23.915190878936
5	617	1353.621482000239	18.199383984453
5	620	1355.182682924241	16.389511138537
5	621	1356.686017402365	14.789697698343
5	622	1358.120989299308	14.175291244632
5	625	1368.099233449117	13.654510063891
5	628	1376.197251490721	12.415175488301
5	635	1391.59031065529	18.692535313235
5	636	1391.802927277749	11.062783151836
5	637	1394.001819805914	3.288153881315
5	638	1398.136104871705	6.644958895532
5	641	1432.109599366781	0
5	644	1435.424498503776	0
5	649	1436.920073721648	1.468619957193
5	650	1437.036507416094	0.689105852244
5	653	1456.437199779314	6.559506923363
5	659	1470.537153083715	0
5	662	1480.279280130568	7.310814900714
5	665	1494.538245268396	0
5	671	1531.110978975295	10.688403260275
5	676	1534.280663548479	1.853834843339
5	679	1541.181982712225	7.941414565129
5	680	1545.663087857065	8.270411006131
5	690	1565.59643086944	15.431017969487
5	693	1568.178045876999	15.432248255323
5	694	1570.44815031252	5.538729695534
5	697	1573.491374169865	6.793919438048
5	700	1580.142015066642	9.002440151855
5	701	1581.343642491966	7.841101319888
5	704	1591.272968515485	0
5	707	1595.182544280602	0
5	710	1601.334439504084	4.557298585517
5	713	1617.910615571711	0
5	716	1622.429547964932	0
5	731	1647.684248392643	18.244581179614
5	737	1676.568257126997	0
5	740	1680.26691701325	0
5	743	1681.642870943451	0.007502866913
5	746	1684.299056010146	0.759961396126
5	754	1689.535111039352	4.924164443445
5	764	1698.878974035239	13.636913348639
5	765	1703.976006163257	13.368915476188
5	768	1705.44187177636	12.227785909209
5	769	1705.529635744534	11.679297158987
5	770	1711.764573342333	6.398666766856
5	776	1727.738594423032	0
5	779	1737.523578243873	0
5	788	1776.48107159176	0
5	791	1781.898375840307	0
5	796	1784.822908706161	1.571528189897
5	799	1791.453529584756	8.04496487758
5	802	1794.625540228726	6.749258055554
5	803	1795.242444537486	2.675527368506
5	806	1800.449538887007	4.503702102153
5	809	1802.089588050119	0
5	812	1809.077104748967	6.001984903252
5	815	1812.408404696471	0
5	818	1820.014028729581	0
5	821	1822.789408211222	2.192565388703
5	824	1824.037007746774	0
5	827	1843.87114111351	0
5	830	1853.396838359014	0
5	835	1863.541081402984	5.065568103732
5	836	1863.545115185668	0.51320806362
5	845	1877.533323963329	0.64638106946
5	848	1886.688223523336	0.624604112601
5	851	1888.644437598973	0
5	856	1890.469340332851	1.618744249034
5	857	1890.953237979422	0.553258450232
5	860	1892.772000140238	1.142622794708
5	872	1905.800655244359	12.148794404799
5	873	1906.414031072938	10.699493128822
5	886	1915.870127010538	13.668216809483
5	887	1918.099152029694	13.504301031531
5	892	1928.005324642787	20.818904208078
5	895	1930.678453148245	22.937091290957
5	904	1944.131927185789	32.851422295632
5	905	1949.174681300192	30.719059926535
5	906	1954.249881535906	31.619144813521
5	907	1954.279605950969	25.650813795733
5	910	1959.371241822407	28.364109157205
5	913	1963.216840966518	30.483235745177
5	914	1964.315019958471	24.433035352976
5	915	1965.548894486752	25.282711272533
5	922	1974.215624465632	19.878149394508
5	923	1975.702722842875	14.298586537827
5	924	1980.19583749908	12.368965241354
5	927	1984.459858950976	14.782480830278
5	928	1987.313954768202	13.336185122683
5	929	1988.153089548056	7.354288686036
5	932	1988.730995738332	0.084936427498
5	935	1993.884183864896	3.594663886015
5	938	2002.277619181859	3.394995147108
5	941	2006.568552960579	1.459495126318
5	944	2010.24701442697	0
5	947	2017.409576004706	6.802981455355
5	950	2028.407657464782	0
5	953	2030.619084909051	0
5	963	2061.783316158289	14.898780403107
5	966	2064.477796496833	14.543040629081
5	967	2067.586968662452	14.513098457626
5	970	2069.632874934349	6.09663456267
5	971	2073.144141115698	4.964749311014
5	985	2123.403910190268	17.159231287508
5	990	2127.110948713839	15.438936254359
5	991	2128.831248796594	4.554671878119
5	992	2130.297070313394	4.290783614114
5	995	2132.512908520402	2.093375097624
5	998	2138.023306971221	0.295818427819
5	1001	2145.873879621881	0.777984940438
5	1007	2154.454457085293	2.867135794475
5	1010	2157.587890184407	0
5	1013	2167.761515143486	0
5	1021	2183.416353855055	1.577685966805
5	1022	2183.520700862699	0.521770083473
5	1028	2191.379152475978	0
5	1031	2207.518507673308	0
5	1037	2218.373340417633	0
5	1043	2262.688833919648	0
5	1050	2268.444214661687	1.672936701133
5	1051	2269.001068854014	1.460583784321
5	1052	2272.997485673019	4.856253702459
5	1055	2276.453901430727	2.223919512601
5	1061	2295.928009914854	0
5	1064	2299.367600235415	0
5	1067	2300.503154335507	0
5	1074	2304.446702641795	2.721943054724
5	1075	2306.357959403598	4.404802337244
5	1078	2315.453658630922	12.437558378312
5	1081	2319.977949523181	5.475555141308
5	1082	2320.882027613495	5.198438925147
5	1085	2339.842619891371	0
5	1090	2346.11606782471	3.458570517636
5	1091	2349.328709132828	4.504840732126
5	1094	2364.105097919066	0
5	1103	2391.771816139766	0
5	1114	2409.558517941185	17.680186915135
5	1119	2423.375360062688	25.730620255332
5	1134	2445.861730741563	46.886164512735
5	1135	2450.243411892826	50.875315824172
5	1136	2452.734084159702	49.928869681821
5	1137	2455.102708253995	45.428938865261
5	1140	2458.673398235801	41.237736442503
5	1141	2459.690144922121	33.63244090213
5	1142	2465.524961731863	29.417022546445
5	1149	2468.214657451065	30.89437575856
5	1152	2476.138244020592	35.83825927241
5	1153	2478.585271636506	22.882755554947
5	1154	2479.800708843442	14.021410486167
5	1155	2479.933000240092	12.809033673945
5	1158	2484.143568916072	16.108520721756
5	1159	2484.523004889186	10.655138661948
5	1162	2487.544751594193	7.248487668393
5	1165	2489.598946472407	3.464953340341
5	1168	2492.138571458029	3.161552533185
6	159	356.883766301504	30
6	160	357.309594191989	31
6	166	363.547426918961	32
6	167	364.220630029833	33
6	176	377.5511099373	34
6	177	378.350213377096	35
6	182	384.892199712954	36
6	194	393.155707139152	37
6	195	393.616168237272	38
6	196	396.043357469223	39
6	199	400.955091926241	40
6	205	404.430249595356	41
6	206	407.242908411456	42
6	223	438.255593804071	43
6	224	438.304601481778	44
6	225	439.60184825055	45
6	231	468.254860346675	46
6	240	484.311879390345	47
6	251	509.914200838908	48
6	252	510.977667647789	49
6	260	531.613964552998	50
6	261	536.137540183881	51
6	273	564.635639689844	52
6	287	609.325034851688	53
6	288	612.645349113982	54
6	291	625.614592995165	55
6	294	626.39241743404	56
6	297	635.860897299504	57
6	310	650.949607784533	58
6	311	653.691445767256	59
6	312	656.342197339834	60
6	319	680.721677722977	61
6	322	682.354465406633	62
6	323	685.382345185432	63
6	324	689.894191659063	64
6	327	702.277147721076	65
6	330	706.216259204136	66
6	333	720.262965622408	67
6	350	760.285472724212	68
6	351	760.781183110948	69
6	352	766.136577961215	70
6	355	771.049991443943	71
6	358	771.826511696044	72
6	359	773.961633972532	73
6	360	776.547240009628	74
6	363	785.682676004051	75
6	366	796.015837609769	76
6	369	801.838554877297	77
6	375	815.679459363533	78
6	378	877.130668503514	79
6	381	880.413645800403	80
6	414	925.13879319493	81
6	415	925.184177465027	82
6	416	931.739498330938	83
6	422	935.108004224814	84
6	425	940.295983745715	85
6	426	942.798150867737	86
6	427	943.841224380842	87
6	428	947.214502607663	88
6	431	948.061920264453	89
6	437	965.852476898078	90
6	438	966.168137472858	91
6	441	973.254711729209	92
6	444	978.576309405368	93
6	447	979.53979825584	94
6	450	986.028896593699	95
6	453	994.674973500882	96
6	464	1008.14852332297	97
6	465	1011.732528162055	98
6	477	1056.125555520086	99
6	499	1087.010649881891	100
6	505	1094.592590665792	101
6	506	1097.756741511205	102
6	507	1098.01557503912	103
6	520	1111.696610775662	104
6	521	1113.606278281671	105
6	524	1118.006292520072	106
6	527	1127.110397286957	107
6	528	1128.003842514279	108
6	531	1129.987920396137	109
6	532	1136.024063768522	110
6	533	1137.928277591444	111
6	534	1142.283195008142	112
6	535	1146.500517240153	113
6	538	1150.268669907061	114
6	539	1158.028177559299	115
6	540	1160.803748386942	116
6	543	1170.474068790744	117
6	546	1178.859571241216	118
6	551	1183.244769298557	119
6	552	1185.701410140295	120
6	563	1210.104675145712	121
6	564	1218.697607728684	122
6	570	1260.043350889132	123
6	575	1264.418412961061	124
6	578	1264.960707543753	125
6	579	1267.293580705808	126
6	617	1353.621482000239	127
6	621	1356.686017402365	128
6	622	1358.120989299308	129
6	636	1391.802927277749	130
6	637	1394.001819805914	131
6	638	1398.136104871705	132
6	639	1404.008302195062	133
6	642	1433.979345265451	134
6	649	1436.920073721648	135
6	650	1437.036507416094	136
6	654	1458.894903658445	137
6	663	1483.124748977225	138
6	666	1495.859368671614	139
6	679	1541.181982712225	140
6	680	1545.663087857065	141
6	693	1568.178045876999	142
6	694	1570.44815031252	143
6	697	1573.491374169865	144
6	701	1581.343642491966	145
6	702	1583.407089650271	146
6	705	1594.752682464639	147
6	710	1601.334439504084	148
6	711	1604.916287489319	149
6	714	1621.002745608505	150
6	717	1622.669326026799	151
6	732	1648.037987050283	152
6	738	1678.75296143984	153
6	743	1681.642870943451	154
6	765	1703.976006163257	155
6	768	1705.44187177636	156
6	769	1705.529635744534	157
6	770	1711.764573342333	158
6	771	1716.504338670736	159
6	777	1729.230723975648	160
6	780	1738.725215722988	161
6	789	1778.903646938835	162
6	796	1784.822908706161	163
6	799	1791.453529584756	164
6	802	1794.625540228726	165
6	803	1795.242444537486	166
6	807	1801.555687050816	167
6	813	1810.88916051727	168
6	816	1814.467887177328	169
6	821	1822.789408211222	170
6	822	1823.06489841323	171
6	825	1824.165471416233	172
6	828	1844.9119732691	173
6	836	1863.545115185668	174
6	837	1863.738328651782	175
6	848	1886.688223523336	176
6	849	1887.556236399561	177
6	857	1890.953237979422	178
6	873	1906.414031072938	179
6	887	1918.099152029694	180
6	892	1928.005324642787	181
6	905	1949.174681300192	182
6	906	1954.249881535906	183
6	907	1954.279605950969	184
6	910	1959.371241822407	185
6	913	1963.216840966518	186
6	914	1964.315019958471	187
6	915	1965.548894486752	188
6	923	1975.702722842875	189
6	924	1980.19583749908	190
6	927	1984.459858950976	191
6	928	1987.313954768202	192
6	929	1988.153089548056	193
6	932	1988.730995738332	194
6	935	1993.884183864896	195
6	938	2002.277619181859	196
6	942	2007.581105386459	197
6	947	2017.409576004706	198
6	948	2021.13299851793	199
6	951	2028.65332728273	200
6	954	2035.314930957818	201
6	966	2064.477796496833	202
6	967	2067.586968662452	203
6	970	2069.632874934349	204
6	971	2073.144141115698	205
6	972	2081.925224773551	206
6	990	2127.110948713839	207
6	991	2128.831248796594	208
6	992	2130.297070313394	209
6	998	2138.023306971221	210
6	1001	2145.873879621881	211
6	1002	2147.030682925339	212
6	1008	2154.732481877069	213
6	1011	2162.127119705514	214
6	1014	2175.236346443607	215
6	1022	2183.520700862699	216
6	1023	2186.857554537247	217
6	1029	2193.439437377378	218
6	1032	2208.554680200985	219
6	1038	2228.970274378172	220
6	1051	2269.001068854014	221
6	1052	2272.997485673019	222
6	1055	2276.453901430727	223
6	1056	2280.50821388475	224
6	1062	2296.20876456258	225
6	1065	2299.627943481263	226
6	1075	2306.357959403598	227
6	1078	2315.453658630922	228
6	1081	2319.977949523181	229
6	1082	2320.882027613495	230
6	1083	2323.062093237667	231
6	1090	2346.11606782471	232
6	1091	2349.328709132828	233
6	1092	2352.560464662603	234
6	1095	2367.989943967439	235
6	1114	2409.558517941185	236
6	1119	2423.375360062688	237
6	1135	2450.243411892826	238
6	1136	2452.734084159702	239
6	1137	2455.102708253995	240
6	1140	2458.673398235801	241
6	1141	2459.690144922121	242
6	1142	2465.524961731863	243
6	1153	2478.585271636506	244
6	1154	2479.800708843442	245
6	1155	2479.933000240092	246
6	1158	2484.143568916072	247
6	1159	2484.523004889186	248
6	1162	2487.544751594193	249
6	1165	2489.598946472407	250
7	159	356.883766301504	3
7	160	357.309594191989	2
7	164	361.587814466951	2
7	166	363.547426918961	2
7	167	364.220630029833	1
7	173	370.517362617564	1
7	176	377.5511099373	1
7	177	378.350213377096	0
7	179	381.15031939228	0
7	181	383.000106765623	1
7	182	384.892199712954	1
7	184	385.205731859589	1
7	189	387.231673826958	2
7	191	391.467645020652	3
7	193	391.790327657756	4
7	194	393.155707139152	4
7	195	393.616168237272	3
7	196	396.043357469223	2
7	198	400.240274676465	2
7	199	400.955091926241	2
7	204	402.849031992676	2
7	205	404.430249595356	2
7	206	407.242908411456	1
7	208	408.277538686361	1
7	217	415.825879056699	2
7	223	438.255593804071	2
7	224	438.304601481778	1
7	225	439.60184825055	0
7	230	468.003348668458	0
7	231	468.254860346675	0
7	239	479.777162500302	0
7	240	484.311879390345	0
7	247	497.643032871097	0
7	249	501.06747342256	1
7	251	509.914200838908	1
7	252	510.977667647789	0
7	257	529.720340730688	0
7	259	530.664543745399	1
7	260	531.613964552998	1
7	261	536.137540183881	0
7	272	564.630861679177	0
7	273	564.635639689844	0
7	284	607.060157196228	0
7	286	608.817100002223	1
7	287	609.325034851688	1
7	288	612.645349113982	0
7	290	623.652681534036	0
7	291	625.614592995165	0
7	293	626.268215411257	0
7	294	626.39241743404	0
7	296	634.226339513972	0
7	297	635.860897299504	0
7	299	641.269760757948	0
7	301	642.992641513097	1
7	309	649.251260264539	2
7	310	650.949607784533	2
7	311	653.691445767256	1
7	312	656.342197339834	0
7	314	663.131940718352	0
7	316	670.373604627643	1
7	318	677.811581296454	2
7	319	680.721677722977	2
7	321	681.325147848155	2
7	322	682.354465406633	2
7	323	685.382345185432	1
7	324	689.894191659063	0
7	326	697.713954861291	0
7	327	702.277147721076	0
7	329	705.670589228675	0
7	330	706.216259204136	0
7	332	718.278332535994	0
7	333	720.262965622408	0
7	340	739.370792297982	0
7	342	739.531013032072	1
7	344	741.885813294221	2
7	346	749.08452382733	3
7	348	755.707301090235	4
7	350	760.285472724212	4
7	351	760.781183110948	3
7	352	766.136577961215	2
7	354	766.887371715564	2
7	355	771.049991443943	2
7	357	771.70993267628	2
7	358	771.826511696044	2
7	359	773.961633972532	1
7	360	776.547240009628	0
7	362	783.247208959	0
7	363	785.682676004051	0
7	365	793.563616539954	0
7	366	796.015837609769	0
7	368	800.22497064418	0
7	369	801.838554877297	0
7	374	814.985995901723	0
7	375	815.679459363533	0
7	377	876.737061601873	0
7	378	877.130668503514	0
7	380	880.263351200228	0
7	381	880.413645800403	0
7	383	884.715060646702	0
7	396	893.057995720692	1
7	398	897.621565833426	2
7	401	904.687267680435	3
7	403	906.148189442126	4
7	406	919.461424773194	5
7	413	923.468924505841	6
7	414	925.13879319493	6
7	415	925.184177465027	5
7	416	931.739498330938	4
7	420	933.372035396762	4
7	422	935.108004224814	4
7	424	935.239130551037	4
7	425	940.295983745715	4
7	426	942.798150867737	3
7	427	943.841224380842	2
7	428	947.214502607663	1
7	430	947.361177466021	1
7	431	948.061920264453	1
7	436	965.713394902006	1
7	437	965.852476898078	1
7	438	966.168137472858	0
7	440	969.144301495477	0
7	441	973.254711729209	0
7	443	978.446267412114	0
7	444	978.576309405368	0
7	446	979.290949837497	0
7	447	979.53979825584	0
7	449	985.367248631966	0
7	450	986.028896593699	0
7	452	991.916379502635	0
7	453	994.674973500882	0
7	459	1004.036309392494	0
7	463	1007.313294854891	1
7	464	1008.14852332297	1
7	465	1011.732528162055	0
7	475	1055.253222836611	0
7	477	1056.125555520086	0
7	479	1064.332896723178	0
7	486	1074.458734162069	1
7	491	1084.73509076389	2
7	493	1084.920010614221	3
7	495	1085.344176726577	4
7	498	1086.847302578806	5
7	499	1087.010649881891	5
7	501	1090.993272535036	5
7	505	1094.592590665792	5
7	506	1097.756741511205	4
7	507	1098.01557503912	3
7	509	1101.359118887311	3
7	511	1102.726871690193	4
7	513	1102.773859650864	5
7	515	1102.808703067666	6
7	517	1103.558692577001	7
7	519	1105.49852764354	8
7	520	1111.696610775662	8
7	521	1113.606278281671	7
7	523	1113.898576141939	7
7	524	1118.006292520072	7
7	526	1118.218172902397	7
7	527	1127.110397286957	7
7	528	1128.003842514279	6
7	530	1129.286243436009	6
7	531	1129.987920396137	6
7	532	1136.024063768522	5
7	533	1137.928277591444	4
7	534	1142.283195008142	3
7	535	1146.500517240153	2
7	537	1149.330667512377	2
7	538	1150.268669907061	2
7	539	1158.028177559299	1
7	540	1160.803748386942	0
7	542	1168.132939327389	0
7	543	1170.474068790744	0
7	545	1177.257572825815	0
7	546	1178.859571241216	0
7	548	1180.200759868871	0
7	550	1180.363532954243	1
7	551	1183.244769298557	1
7	552	1185.701410140295	0
7	556	1193.696432415785	0
7	560	1198.036362909496	1
7	563	1210.104675145712	1
7	564	1218.697607728684	0
7	569	1256.80320130424	0
7	570	1260.043350889132	0
7	572	1262.57149398774	0
7	574	1262.817832895913	1
7	575	1264.418412961061	1
7	577	1264.443793757312	1
7	578	1264.960707543753	1
7	579	1267.293580705808	0
7	586	1316.827869198588	0
7	588	1316.836966825172	1
7	590	1317.891645213725	2
7	597	1325.964751757203	3
7	607	1341.896319704022	4
7	617	1353.621482000239	4
7	621	1356.686017402365	3
7	622	1358.120989299308	2
7	632	1390.713665924599	2
7	634	1391.491145976173	3
7	636	1391.802927277749	3
7	637	1394.001819805914	2
7	638	1398.136104871705	1
7	639	1404.008302195062	0
7	641	1432.109599366781	0
7	642	1433.979345265451	0
7	644	1435.424498503776	0
7	646	1435.451453764455	1
7	648	1436.34740156385	2
7	649	1436.920073721648	2
7	650	1437.036507416094	1
7	654	1458.894903658445	0
7	659	1470.537153083715	0
7	663	1483.124748977225	0
7	665	1494.538245268396	0
7	666	1495.859368671614	0
7	670	1520.42257571502	0
7	675	1533.240568147096	1
7	678	1537.392676850934	2
7	679	1541.181982712225	2
7	680	1545.663087857065	1
7	684	1552.745797621676	1
7	689	1564.909420616986	2
7	692	1566.697454731817	3
7	693	1568.178045876999	3
7	694	1570.44815031252	2
7	696	1571.139574914787	2
7	697	1573.491374169865	2
7	701	1581.343642491966	1
7	702	1583.407089650271	0
7	704	1591.272968515485	0
7	705	1594.752682464639	0
7	707	1595.182544280602	0
7	709	1596.777140918567	1
7	710	1601.334439504084	1
7	711	1604.916287489319	0
7	713	1617.910615571711	0
7	714	1621.002745608505	0
7	716	1622.429547964932	0
7	717	1622.669326026799	0
7	723	1629.439667213029	0
7	732	1648.037987050283	0
7	737	1676.568257126997	0
7	738	1678.75296143984	0
7	740	1680.26691701325	0
7	742	1681.635368076538	1
7	743	1681.642870943451	1
7	750	1685.2420606866	1
7	760	1693.214085867151	2
7	762	1693.850338585547	3
7	765	1703.976006163257	3
7	767	1705.365906575477	3
7	768	1705.44187177636	3
7	769	1705.529635744534	2
7	770	1711.764573342333	1
7	771	1716.504338670736	0
7	776	1727.738594423032	0
7	777	1729.230723975648	0
7	779	1737.523578243873	0
7	780	1738.725215722988	0
7	788	1776.48107159176	0
7	789	1778.903646938835	0
7	791	1781.898375840307	0
7	793	1783.251380516264	1
7	795	1783.408564707176	2
7	796	1784.822908706161	2
7	798	1787.876282173172	2
7	799	1791.453529584756	2
7	801	1792.56691716898	2
7	802	1794.625540228726	2
7	803	1795.242444537486	1
7	807	1801.555687050816	0
7	809	1802.089588050119	0
7	813	1810.88916051727	0
7	815	1812.408404696471	0
7	816	1814.467887177328	0
7	818	1820.014028729581	0
7	820	1820.596842822519	1
7	821	1822.789408211222	1
7	822	1823.06489841323	0
7	824	1824.037007746774	0
7	825	1824.165471416233	0
7	827	1843.87114111351	0
7	828	1844.9119732691	0
7	830	1853.396838359014	0
7	832	1858.475513299252	1
7	836	1863.545115185668	1
7	837	1863.738328651782	0
7	844	1876.886942893869	0
7	847	1886.063619410735	1
7	848	1886.688223523336	1
7	849	1887.556236399561	0
7	851	1888.644437598973	0
7	853	1888.850596083817	1
7	857	1890.953237979422	1
7	862	1893.65186083956	1
7	866	1902.201910201055	2
7	868	1904.594850998163	3
7	873	1906.414031072938	3
7	875	1907.186420434709	3
7	883	1911.280504890157	4
7	887	1918.099152029694	4
7	889	1918.455621373657	4
7	891	1922.630736722385	5
7	892	1928.005324642787	5
7	897	1931.007132665202	5
7	899	1932.733605221341	6
7	901	1939.881984605495	7
7	905	1949.174681300192	7
7	906	1954.249881535906	6
7	907	1954.279605950969	5
7	909	1954.337475071124	5
7	910	1959.371241822407	5
7	912	1961.404136305048	5
7	913	1963.216840966518	5
7	914	1964.315019958471	4
7	915	1965.548894486752	3
7	917	1967.826872257726	3
7	921	1973.977769645519	4
7	923	1975.702722842875	4
7	924	1980.19583749908	3
7	926	1980.79880086202	3
7	927	1984.459858950976	3
7	928	1987.313954768202	2
7	929	1988.153089548056	1
7	931	1988.646059310834	1
7	932	1988.730995738332	1
7	934	1990.289519978881	1
7	935	1993.884183864896	1
7	937	1998.882624034751	1
7	938	2002.277619181859	1
7	942	2007.581105386459	0
7	944	2010.24701442697	0
7	946	2010.606594549351	1
7	947	2017.409576004706	1
7	948	2021.13299851793	0
7	950	2028.407657464782	0
7	951	2028.65332728273	0
7	953	2030.619084909051	0
7	954	2035.314930957818	0
7	958	2046.884535755182	0
7	960	2049.934755867752	1
7	962	2053.073870204826	2
7	965	2063.536240371679	3
7	966	2064.477796496833	3
7	967	2067.586968662452	2
7	969	2068.179391804684	2
7	970	2069.632874934349	2
7	971	2073.144141115698	1
7	972	2081.925224773551	0
7	978	2106.24467890276	0
7	980	2111.67201245948	1
7	987	2124.276576918475	2
7	989	2126.00628669928	3
7	990	2127.110948713839	3
7	991	2128.831248796594	2
7	992	2130.297070313394	1
7	997	2137.727488543402	1
7	998	2138.023306971221	1
7	1000	2145.095894681443	1
7	1001	2145.873879621881	1
7	1002	2147.030682925339	0
7	1006	2151.587321290818	0
7	1008	2154.732481877069	0
7	1010	2157.587890184407	0
7	1011	2162.127119705514	0
7	1013	2167.761515143486	0
7	1014	2175.236346443607	0
7	1018	2181.83866788825	0
7	1020	2182.998930779226	1
7	1022	2183.520700862699	1
7	1023	2186.857554537247	0
7	1028	2191.379152475978	0
7	1029	2193.439437377378	0
7	1031	2207.518507673308	0
7	1032	2208.554680200985	0
7	1037	2218.373340417633	0
7	1038	2228.970274378172	0
7	1043	2262.688833919648	0
7	1045	2266.771277960554	1
7	1049	2268.14123197056	2
7	1051	2269.001068854014	2
7	1052	2272.997485673019	1
7	1054	2274.229981918126	1
7	1055	2276.453901430727	1
7	1056	2280.50821388475	0
7	1061	2295.928009914854	0
7	1062	2296.20876456258	0
7	1064	2299.367600235415	0
7	1065	2299.627943481263	0
7	1067	2300.503154335507	0
7	1069	2301.724759587071	1
7	1071	2301.953157066354	2
7	1075	2306.357959403598	2
7	1077	2314.502394381873	2
7	1078	2315.453658630922	2
7	1080	2315.683588688348	2
7	1081	2319.977949523181	2
7	1082	2320.882027613495	1
7	1083	2323.062093237667	0
7	1085	2339.842619891371	0
7	1087	2342.657497307074	1
7	1089	2344.823868400702	2
7	1090	2346.11606782471	2
7	1091	2349.328709132828	1
7	1092	2352.560464662603	0
7	1094	2364.105097919066	0
7	1095	2367.989943967439	0
7	1103	2391.771816139766	0
7	1105	2391.87833102605	1
7	1107	2397.644739807356	2
7	1109	2398.975566228828	3
7	1111	2399.368096068654	4
7	1113	2402.805214477881	5
7	1114	2409.558517941185	5
7	1116	2409.673769388734	5
7	1118	2417.435661793298	6
7	1119	2423.375360062688	6
7	1125	2436.107939185418	6
7	1129	2437.320281692505	7
7	1131	2440.299984748182	8
7	1135	2450.243411892826	8
7	1136	2452.734084159702	7
7	1137	2455.102708253995	6
7	1139	2455.702516081559	6
7	1140	2458.673398235801	6
7	1141	2459.690144922121	5
7	1142	2465.524961731863	4
7	1144	2465.779298357275	4
7	1148	2468.035048194316	5
7	1153	2478.585271636506	5
7	1154	2479.800708843442	4
7	1155	2479.933000240092	3
7	1157	2480.2962639258	3
7	1158	2484.143568916072	3
7	1159	2484.523004889186	2
7	1161	2486.133993132066	2
7	1162	2487.544751594193	2
7	1164	2488.977018924844	2
7	1165	2489.598946472407	2
8	159	356.883766301504	35.44025847471
8	160	357.309594191989	32.449344360526
8	166	363.547426918961	22.400485163506
8	167	364.220630029833	5.043627709012
8	176	377.5511099373	12.29016250043
8	177	378.350213377096	7.832850759532
8	182	384.892199712954	3.741880320674
8	194	393.155707139152	7.949975279563
8	195	393.616168237272	7.621112301413
8	196	396.043357469223	8.811683642265
8	199	400.955091926241	9.487446905589
8	205	404.430249595356	4.189974918891
8	206	407.242908411456	6.083528265955
8	223	438.255593804071	29.97805511771
8	224	438.304601481778	29.723629468686
8	225	439.60184825055	23.775969193851
8	231	468.254860346675	0.251511678217
8	240	484.311879390345	4.534716890043
8	251	509.914200838908	12.271167967811
8	252	510.977667647789	9.910194225229
8	260	531.613964552998	1.89362382231
8	261	536.137540183881	5.472996438482
8	273	564.635639689844	0.004778010667
8	287	609.325034851688	2.26487765546
8	288	612.645349113982	3.828249111759
8	291	625.614592995165	1.961911461129
8	294	626.39241743404	0.124202022783
8	297	635.860897299504	1.634557785532
8	310	650.949607784533	7.823682407676
8	311	653.691445767256	8.104449145391
8	312	656.342197339834	7.090937075295
8	319	680.721677722977	17.589737004625
8	322	682.354465406633	11.98086077899
8	323	685.382345185432	7.570763888978
8	324	689.894191659063	8.569043810908
8	327	702.277147721076	4.563192859785
8	330	706.216259204136	0.545669975461
8	333	720.262965622408	1.984633086414
8	350	760.285472724212	20.91468042623
8	351	760.781183110948	21.250170078876
8	352	766.136577961215	24.250764666994
8	355	771.049991443943	21.965467616613
8	358	771.826511696044	16.119210605809
8	359	773.961633972532	7.074262256968
8	360	776.547240009628	4.837307333348
8	363	785.682676004051	2.435467045051
8	366	796.015837609769	2.452221069815
8	369	801.838554877297	1.613584233117
8	375	815.679459363533	0.69346346181
8	378	877.130668503514	0.393606901641
8	381	880.413645800403	0.150294600175
8	414	925.13879319493	40.231065947067
8	415	925.184177465027	32.126181744335
8	416	931.739498330938	34.117932497512
8	422	935.108004224814	28.959814782688
8	425	940.295983745715	20.834558972521
8	426	942.798150867737	19.329226361896
8	427	943.841224380842	10.790413739778
8	428	947.214502607663	13.842467210901
8	431	948.061920264453	12.822789713416
8	437	965.852476898078	10.340770723395
8	438	966.168137472858	0.454742570852
8	441	973.254711729209	4.110410233732
8	444	978.576309405368	0.130041993254
8	447	979.53979825584	0.248848418343
8	450	986.028896593699	0.661647961733
8	453	994.674973500882	2.758593998247
8	464	1008.14852332297	4.112213930476
8	465	1011.732528162055	4.419233307164
8	477	1056.125555520086	0.872332683475
8	499	1087.010649881891	21.255920218562
8	505	1094.592590665792	9.857499901902
8	506	1097.756741511205	12.836730896984
8	507	1098.01557503912	12.671398312543
8	520	1111.696610775662	24.849308196856
8	521	1113.606278281671	22.613005746635
8	524	1118.006292520072	24.916079516093
8	527	1127.110397286957	25.751278399646
8	528	1128.003842514279	25.276970824086
8	531	1129.987920396137	27.214060745273
8	532	1136.024063768522	33.215360700856
8	533	1137.928277591444	34.369585014443
8	534	1142.283195008142	36.784667364602
8	535	1146.500517240153	32.601941098214
8	538	1150.268669907061	32.050497004664
8	539	1158.028177559299	28.74193412329
8	540	1160.803748386942	11.473080874565
8	543	1170.474068790744	2.341129463355
8	546	1178.859571241216	1.601998415401
8	551	1183.244769298557	3.044009429686
8	552	1185.701410140295	5.337877186052
8	563	1210.104675145712	16.408242729927
8	564	1218.697607728684	20.661244819188
8	570	1260.043350889132	3.240149584892
8	575	1264.418412961061	1.846918973321
8	578	1264.960707543753	2.14287464784
8	579	1267.293580705808	2.849786948496
8	617	1353.621482000239	27.656730243036
8	621	1356.686017402365	17.892845616661
8	622	1358.120989299308	16.224669595286
8	636	1391.802927277749	18.905151935694
8	637	1394.001819805914	13.261675680001
8	638	1398.136104871705	7.422438947106
8	639	1404.008302195062	12.517156218889
8	642	1433.979345265451	1.86974589867
8	649	1436.920073721648	1.495575217872
8	650	1437.036507416094	1.585053651639
8	654	1458.894903658445	9.017210802494
8	663	1483.124748977225	10.156283747371
8	666	1495.859368671614	1.321123403218
8	679	1541.181982712225	8.755154007085
8	680	1545.663087857065	12.422519709969
8	693	1568.178045876999	18.012632977046
8	694	1570.44815031252	17.702352690844
8	697	1573.491374169865	8.581953552879
8	701	1581.343642491966	10.204067577179
8	702	1583.407089650271	9.904548478193
8	705	1594.752682464639	3.479713949154
8	710	1601.334439504084	6.151895223482
8	711	1604.916287489319	8.139146570752
8	714	1621.002745608505	3.092130036794
8	717	1622.669326026799	0.239778061867
8	732	1648.037987050283	18.598319837254
8	738	1678.75296143984	2.184704312843
8	743	1681.642870943451	1.375953930201
8	765	1703.976006163257	18.733945476657
8	768	1705.44187177636	14.834781089291
8	769	1705.529635744534	12.315549877383
8	770	1711.764573342333	17.914234756786
8	771	1716.504338670736	11.138432095259
8	777	1729.230723975648	1.492129552616
8	780	1738.725215722988	1.201637479115
8	789	1778.903646938835	2.422575347075
8	796	1784.822908706161	2.924532865854
8	799	1791.453529584756	8.202149068492
8	802	1794.625540228726	11.21697552155
8	803	1795.242444537486	7.366162364314
8	807	1801.555687050816	5.609850265962
8	813	1810.88916051727	7.814040671555
8	816	1814.467887177328	2.059482480857
8	821	1822.789408211222	2.775379481641
8	822	1823.06489841323	2.468055590711
8	825	1824.165471416233	0.128463669459
8	828	1844.9119732691	1.04083215559
8	836	1863.545115185668	5.069601886416
8	837	1863.738328651782	0.706421529734
8	848	1886.688223523336	9.801280629467
8	849	1887.556236399561	1.492616988826
8	857	1890.953237979422	2.102641895605
8	873	1906.414031072938	12.762170233378
8	887	1918.099152029694	15.897241828639
8	892	1928.005324642787	23.410473644624
8	905	1949.174681300192	37.894176410035
8	906	1954.249881535906	35.794260162249
8	907	1954.279605950969	31.648869228584
8	910	1959.371241822407	30.742449667171
8	913	1963.216840966518	32.209708301316
8	914	1964.315019958471	31.58141473713
8	915	1965.548894486752	25.666909881257
8	923	1975.702722842875	21.365247771751
8	924	1980.19583749908	18.791701194032
8	927	1984.459858950976	16.63298669325
8	928	1987.313954768202	17.636576647504
8	929	1988.153089548056	14.175319902537
8	932	1988.730995738332	7.932194876312
8	935	1993.884183864896	5.238124554062
8	938	2002.277619181859	11.988099202978
8	942	2007.581105386459	2.472047552198
8	947	2017.409576004706	7.162561577736
8	948	2021.13299851793	10.526403968579
8	951	2028.65332728273	0.245669817948
8	954	2035.314930957818	4.695846048767
8	966	2064.477796496833	17.593260741651
8	967	2067.586968662452	17.6522127947
8	970	2069.632874934349	16.559004729523
8	971	2073.144141115698	9.607900744019
8	972	2081.925224773551	13.745832968867
8	990	2127.110948713839	20.866269811079
8	991	2128.831248796594	17.159236337114
8	992	2130.297070313394	6.020493394919
8	998	2138.023306971221	7.603773548443
8	1001	2145.873879621881	8.146391078479
8	1002	2147.030682925339	1.934788243896
8	1008	2154.732481877069	3.145160586251
8	1011	2162.127119705514	4.539229521107
8	1014	2175.236346443607	7.474831300121
8	1022	2183.520700862699	1.682032974449
8	1023	2186.857554537247	3.858623758021
8	1029	2193.439437377378	2.0602849014
8	1032	2208.554680200985	1.036172527677
8	1038	2228.970274378172	10.596933960539
8	1051	2269.001068854014	2.22979089346
8	1052	2272.997485673019	5.457000603326
8	1055	2276.453901430727	8.312669460167
8	1056	2280.50821388475	6.278231966624
8	1062	2296.20876456258	0.280754647726
8	1065	2299.627943481263	0.260343245848
8	1075	2306.357959403598	4.633199816527
8	1078	2315.453658630922	13.500501564568
8	1081	2319.977949523181	16.961849270571
8	1082	2320.882027613495	6.379633231622
8	1083	2323.062093237667	7.378504549319
8	1090	2346.11606782471	6.273447933339
8	1091	2349.328709132828	6.671211825754
8	1092	2352.560464662603	7.736596261901
8	1095	2367.989943967439	3.884846048373
8	1114	2409.558517941185	17.786701801419
8	1119	2423.375360062688	31.497029036638
8	1135	2450.243411892826	51.267845663998
8	1136	2452.734084159702	53.365988091048
8	1137	2455.102708253995	52.297493776114
8	1140	2458.673398235801	48.999628847067
8	1141	2459.690144922121	42.254483128823
8	1142	2465.524961731863	39.467257711872
8	1153	2478.585271636506	38.285286888324
8	1154	2479.800708843442	24.098192761883
8	1155	2479.933000240092	14.153701882817
8	1158	2484.143568916072	17.019602349925
8	1159	2484.523004889186	16.48795669487
8	1162	2487.544751594193	13.676885366955
8	1165	2489.598946472407	9.302682546607
9	162	359.177002320821	7
9	169	365.26094743687	8
9	186	385.995055935859	9
9	201	401.159380145501	10
9	210	408.580972013092	11
9	303	643.125925376857	12
9	306	645.586996621865	13
9	385	884.907727247863	14
9	418	933.050810641064	15
9	433	955.511706174683	16
9	481	1065.212657206365	17
9	484	1065.754729663329	18
9	503	1093.090213003979	19
9	601	1335.422098015786	20
9	604	1338.793171785704	21
9	609	1343.945698054676	22
9	619	1354.444723385226	23
9	624	1363.78207600242	24
9	627	1372.897775342055	25
9	630	1380.740144125913	26
9	652	1449.877692855951	27
9	661	1472.968465229854	28
9	673	1532.42682870514	29
9	682	1550.165412899953	30
9	699	1573.502541172078	31
9	745	1683.53909461402	32
9	748	1684.610946595907	33
9	756	1690.607090687069	34
9	805	1795.945836784854	35
9	811	1803.075119845715	36
9	834	1863.031907122048	37
9	855	1890.39997952919	38
9	859	1891.62937734553	39
9	864	1895.714537944116	40
9	877	1907.741361857288	41
9	894	1928.628792155236	42
9	903	1940.266183214219	43
9	919	1969.677378120698	44
9	940	2005.109057834261	45
9	994	2130.419533422778	46
9	1047	2267.540485069693	47
9	1073	2303.01610025261	48
9	1121	2426.057704019991	49
9	1146	2467.123966566147	50
9	1151	2473.867866227238	51
9	1167	2489.726720628059	52
10	164	361.587814466951	3
10	173	370.517362617564	2
10	179	381.15031939228	1
10	181	383.000106765623	2
10	184	385.205731859589	2
10	189	387.231673826958	3
10	191	391.467645020652	4
10	193	391.790327657756	5
10	198	400.240274676465	3
10	204	402.849031992676	3
10	208	408.277538686361	2
10	217	415.825879056699	3
10	230	468.003348668458	1
10	239	479.777162500302	1
10	247	497.643032871097	1
10	249	501.06747342256	2
10	257	529.720340730688	1
10	259	530.664543745399	2
10	272	564.630861679177	1
10	284	607.060157196228	1
10	286	608.817100002223	2
10	290	623.652681534036	1
10	293	626.268215411257	1
10	296	634.226339513972	1
10	299	641.269760757948	1
10	301	642.992641513097	2
10	309	649.251260264539	3
10	314	663.131940718352	1
10	316	670.373604627643	2
10	318	677.811581296454	3
10	321	681.325147848155	3
10	326	697.713954861291	1
10	329	705.670589228675	1
10	332	718.278332535994	1
10	340	739.370792297982	1
10	342	739.531013032072	2
10	344	741.885813294221	3
10	346	749.08452382733	4
10	348	755.707301090235	5
10	354	766.887371715564	3
10	357	771.70993267628	3
10	362	783.247208959	1
10	365	793.563616539954	1
10	368	800.22497064418	1
10	374	814.985995901723	1
10	377	876.737061601873	1
10	380	880.263351200228	1
10	383	884.715060646702	1
10	396	893.057995720692	2
10	398	897.621565833426	3
10	401	904.687267680435	4
10	403	906.148189442126	5
10	406	919.461424773194	6
10	413	923.468924505841	7
10	420	933.372035396762	5
10	424	935.239130551037	5
10	430	947.361177466021	2
10	436	965.713394902006	2
10	440	969.144301495477	1
10	443	978.446267412114	1
10	446	979.290949837497	1
10	449	985.367248631966	1
10	452	991.916379502635	1
10	459	1004.036309392494	1
10	463	1007.313294854891	2
10	475	1055.253222836611	1
10	479	1064.332896723178	1
10	486	1074.458734162069	2
10	491	1084.73509076389	3
10	493	1084.920010614221	4
10	495	1085.344176726577	5
10	498	1086.847302578806	6
10	501	1090.993272535036	6
10	509	1101.359118887311	4
10	511	1102.726871690193	5
10	513	1102.773859650864	6
10	515	1102.808703067666	7
10	517	1103.558692577001	8
10	519	1105.49852764354	9
10	523	1113.898576141939	8
10	526	1118.218172902397	8
10	530	1129.286243436009	7
10	537	1149.330667512377	3
10	542	1168.132939327389	1
10	545	1177.257572825815	1
10	548	1180.200759868871	1
10	550	1180.363532954243	2
10	556	1193.696432415785	1
10	560	1198.036362909496	2
10	569	1256.80320130424	1
10	572	1262.57149398774	1
10	574	1262.817832895913	2
10	577	1264.443793757312	2
10	586	1316.827869198588	1
10	588	1316.836966825172	2
10	590	1317.891645213725	3
10	597	1325.964751757203	4
10	607	1341.896319704022	5
10	632	1390.713665924599	3
10	634	1391.491145976173	4
10	641	1432.109599366781	1
10	644	1435.424498503776	1
10	646	1435.451453764455	2
10	648	1436.34740156385	3
10	659	1470.537153083715	1
10	665	1494.538245268396	1
10	670	1520.42257571502	1
10	675	1533.240568147096	2
10	678	1537.392676850934	3
10	684	1552.745797621676	2
10	689	1564.909420616986	3
10	692	1566.697454731817	4
10	696	1571.139574914787	3
10	704	1591.272968515485	1
10	707	1595.182544280602	1
10	709	1596.777140918567	2
10	713	1617.910615571711	1
10	716	1622.429547964932	1
10	723	1629.439667213029	1
10	737	1676.568257126997	1
10	740	1680.26691701325	1
10	742	1681.635368076538	2
10	750	1685.2420606866	2
10	760	1693.214085867151	3
10	762	1693.850338585547	4
10	767	1705.365906575477	4
10	776	1727.738594423032	1
10	779	1737.523578243873	1
10	788	1776.48107159176	1
10	791	1781.898375840307	1
10	793	1783.251380516264	2
10	795	1783.408564707176	3
10	798	1787.876282173172	3
10	801	1792.56691716898	3
10	809	1802.089588050119	1
10	815	1812.408404696471	1
10	818	1820.014028729581	1
10	820	1820.596842822519	2
10	824	1824.037007746774	1
10	827	1843.87114111351	1
10	830	1853.396838359014	1
10	832	1858.475513299252	2
10	844	1876.886942893869	1
10	847	1886.063619410735	2
10	851	1888.644437598973	1
10	853	1888.850596083817	2
10	862	1893.65186083956	2
10	866	1902.201910201055	3
10	868	1904.594850998163	4
10	875	1907.186420434709	4
10	883	1911.280504890157	5
10	889	1918.455621373657	5
10	891	1922.630736722385	6
10	897	1931.007132665202	6
10	899	1932.733605221341	7
10	901	1939.881984605495	8
10	909	1954.337475071124	6
10	912	1961.404136305048	6
10	917	1967.826872257726	4
10	921	1973.977769645519	5
10	926	1980.79880086202	4
10	931	1988.646059310834	2
10	934	1990.289519978881	2
10	937	1998.882624034751	2
10	944	2010.24701442697	1
10	946	2010.606594549351	2
10	950	2028.407657464782	1
10	953	2030.619084909051	1
10	958	2046.884535755182	1
10	960	2049.934755867752	2
10	962	2053.073870204826	3
10	965	2063.536240371679	4
10	969	2068.179391804684	3
10	978	2106.24467890276	1
10	980	2111.67201245948	2
10	987	2124.276576918475	3
10	989	2126.00628669928	4
10	997	2137.727488543402	2
10	1000	2145.095894681443	2
10	1006	2151.587321290818	1
10	1010	2157.587890184407	1
10	1013	2167.761515143486	1
10	1018	2181.83866788825	1
10	1020	2182.998930779226	2
10	1028	2191.379152475978	1
10	1031	2207.518507673308	1
10	1037	2218.373340417633	1
10	1043	2262.688833919648	1
10	1045	2266.771277960554	2
10	1049	2268.14123197056	3
10	1054	2274.229981918126	2
10	1061	2295.928009914854	1
10	1064	2299.367600235415	1
10	1067	2300.503154335507	1
10	1069	2301.724759587071	2
10	1071	2301.953157066354	3
10	1077	2314.502394381873	3
10	1080	2315.683588688348	3
10	1085	2339.842619891371	1
10	1087	2342.657497307074	2
10	1089	2344.823868400702	3
10	1094	2364.105097919066	1
10	1103	2391.771816139766	1
10	1105	2391.87833102605	2
10	1107	2397.644739807356	3
10	1109	2398.975566228828	4
10	1111	2399.368096068654	5
10	1113	2402.805214477881	6
10	1116	2409.673769388734	6
10	1118	2417.435661793298	7
10	1125	2436.107939185418	7
10	1129	2437.320281692505	8
10	1131	2440.299984748182	9
10	1139	2455.702516081559	7
10	1144	2465.779298357275	5
10	1148	2468.035048194316	6
10	1157	2480.2962639258	4
10	1161	2486.133993132066	3
10	1164	2488.977018924844	3
11	1169	2500	0.1
12	1169	2500	0.0552

