version 2
run experiments_medium_game_mode1-1736-20230311-09:46:20-17379
attr configname experiments_medium_game_mode1
attr datetime 20230311-09:46:20
attr experiment experiments_medium_game_mode1
attr inifile omnetpp.ini
attr iterationvars "$0=7.5, $1=6, $2=100"
attr iterationvarsf 7.5,6,100-
attr measurement "$0=7.5, $1=6, $2=100"
attr network Network
attr processid 17379
attr repetition 26
attr replication #26
attr resultdir results
attr runnumber 1736
attr seedset 26
param *.boss.arrival_mean 20
param *.boss.service_mean 7.5
param *.minion.arrival_mean 10
param *.minion.service_mean 6
param *.player.recover_rate_x 100
param **.minion.arrival_distribution 0
param **.minion.service_distribution 0
param **.boss.arrival_distribution 0
param **.boss.service_distribution 0

vector 0 Network.player minion_jobs_number_stat:vector ETV
attr source signal_minion_jobs_number
vector 1 Network.player minion_jobs_queue_number_stat:vector ETV
attr source signal_minion_jobs_queue_number
vector 2 Network.player minion_defeated_stat:vector ETV
attr source signal_minion_defeated
vector 3 Network.player minion_response_time_stat:vector ETV
attr source signal_minion_response_time
vector 4 Network.player minion_waiting_time_stat:vector ETV
attr source signal_minion_waiting_time
vector 5 Network.player boss_jobs_number_stat:vector ETV
attr source signal_boss_jobs_number
vector 6 Network.player boss_jobs_queue_number_stat:vector ETV
attr source signal_boss_jobs_queue_number
vector 7 Network.player minion_recovered_stat:vector ETV
attr source signal_minion_recovered
vector 8 Network.player boss_waiting_time_stat:vector ETV
attr source signal_boss_waiting_time
vector 9 Network.player boss_defeated_stat:vector ETV
attr source signal_boss_defeated
vector 10 Network.player boss_response_time_stat:vector ETV
attr source signal_boss_response_time
vector 11 Network.player minion_throughput:vector ETV
attr source signal_minion_throughput
vector 12 Network.player boss_throughput:vector ETV
attr source signal_boss_throughput
0	128	353.474320604805	4
0	136	362.221650059944	2
0	140	388.918922681755	1
0	142	391.684997140054	2
0	144	393.513447054423	3
0	147	396.818932124983	3
0	151	411.073237962121	2
0	155	418.275100492741	1
0	157	419.589888907062	2
0	159	420.361511980791	3
0	161	431.413467444418	4
0	163	433.346302192891	5
0	170	445.432556060841	6
0	173	446.898056891252	7
0	178	457.624761079718	5
0	181	462.992411790454	5
0	189	477.732048514976	3
0	191	479.565660162456	4
0	200	506.907177080105	1
0	202	508.184710933496	2
0	204	513.794651262729	3
0	207	522.6230811356	3
0	209	525.703729907631	4
0	211	526.760700204932	5
0	213	529.153394214765	6
0	218	536.576731663828	7
0	222	538.986210414381	8
0	224	542.139596743865	9
0	227	549.542459884891	10
0	229	551.855074966976	11
0	231	552.96415021486	12
0	234	555.292798021475	12
0	236	555.530199892277	13
0	239	557.386578317167	13
0	242	558.581549090794	13
0	245	564.674090514164	13
0	247	566.996941240385	14
0	249	567.198732359307	15
0	251	567.806075160641	16
0	262	599.368227092208	13
0	267	609.617173713877	14
0	269	618.765200043476	15
0	271	628.111450699737	16
0	279	643.978860644792	17
0	288	670.76103880654	15
0	292	673.781192419499	14
0	294	677.024116712335	15
0	298	680.55874114572	16
0	303	690.106648260074	17
0	305	695.833009998525	18
0	309	706.460375203675	18
0	312	710.189187192976	18
0	314	714.031277994825	19
0	324	746.56073465194	15
0	326	747.335346081218	16
0	328	752.507465201618	17
0	331	764.711850508577	17
0	340	779.392366829766	17
0	352	798.727175529999	16
0	360	805.745986193468	17
0	363	809.376814129608	18
0	365	814.345620529679	19
0	367	816.943428381458	20
0	370	820.20186011876	21
0	372	823.652287563037	22
0	374	823.852341833642	23
0	377	838.965598310374	24
0	382	849.665848546355	25
0	384	855.20014544701	26
0	392	874.938272861615	27
0	394	875.642170742283	28
0	396	878.916392601563	29
0	398	880.194743129377	30
0	408	908.302664689417	26
0	410	912.880118731235	27
0	412	914.154013521909	28
0	414	918.221453502094	29
0	416	920.466740367527	30
0	419	921.269617257342	31
0	422	928.270388860147	31
0	426	940.769429665337	30
0	429	946.937388544451	30
0	431	948.378059082212	31
0	437	961.276425471982	28
0	439	968.857171976466	29
0	448	985.637922849169	26
0	456	990.293399767415	24
0	458	994.830844296818	25
0	463	1006.809630873742	25
0	465	1008.576925158246	26
0	471	1025.702611347249	27
0	473	1025.859092540039	28
0	477	1032.037129145877	29
0	485	1039.660424487586	28
0	488	1044.334527619919	28
0	498	1069.794077147459	26
0	505	1092.429440543177	23
0	508	1099.606014265835	23
0	513	1106.988560342246	21
0	515	1108.012979850404	22
0	529	1136.140998633732	20
0	538	1157.550368266195	19
0	540	1157.611214525958	20
0	543	1162.88480480778	21
0	547	1166.784023230992	20
0	557	1201.198363559256	16
0	559	1233.994475151404	17
0	561	1234.638255782988	18
0	564	1245.207501304281	18
0	566	1252.287471471351	19
0	568	1252.958309372731	20
0	570	1255.544300550687	21
0	572	1257.702205050436	22
0	576	1273.575107147716	21
0	578	1282.000157476293	22
0	586	1308.042757533478	20
0	590	1322.442427890273	19
0	597	1354.450041299215	15
0	601	1359.808667138904	14
0	603	1365.567060418044	15
0	611	1379.527834508314	10
0	616	1388.343387569061	8
0	619	1391.530722183322	8
0	621	1395.987648763864	9
0	629	1405.73259010185	9
0	632	1407.59546398581	10
0	637	1421.052419772988	8
0	648	1465.665298626496	9
0	656	1483.14063802135	10
0	660	1486.981162243963	11
0	663	1490.211591955959	12
0	665	1492.475700231023	13
0	668	1493.600893495466	14
0	670	1496.620248682547	15
0	672	1499.251009617682	16
0	674	1501.190745310615	17
0	678	1503.555027487292	18
0	680	1503.84271439289	19
0	682	1507.41017972299	20
0	688	1530.291608934717	21
0	690	1530.384925280363	22
0	695	1537.457528739665	23
0	701	1553.162040759077	24
0	707	1570.137080280809	25
0	709	1573.274776966163	26
0	711	1580.777479436213	27
0	727	1617.45004086707	28
0	729	1618.19945656825	29
0	735	1639.564752723533	30
0	740	1659.579680344184	31
0	742	1661.084268464403	32
0	745	1661.820909129658	32
0	747	1664.226597667918	33
0	751	1670.65600116995	32
0	759	1692.733021911401	30
0	761	1693.122160938568	31
0	764	1696.792034829513	31
0	767	1706.576033597084	31
0	775	1737.584751462818	32
0	788	1762.88645240741	30
0	790	1764.52628129551	31
0	792	1771.345773685681	32
0	797	1782.840199138905	33
0	799	1787.099373712175	34
0	801	1790.474069399335	35
0	805	1798.639424257225	36
0	810	1811.071683779677	37
0	812	1815.698051184562	38
0	815	1818.193629922128	39
0	818	1819.927956121786	40
0	824	1841.53335381805	39
0	826	1848.825722193123	40
0	828	1851.803641447519	41
0	835	1871.596090993364	38
0	837	1873.039811236144	39
0	842	1888.636690117927	37
0	844	1889.72021430197	38
0	853	1908.068432641432	38
0	857	1917.112298752113	39
0	867	1928.548868381647	40
0	869	1943.202172054068	41
0	871	1943.853450068646	42
0	874	1947.491857768771	43
0	876	1952.257540051665	44
0	878	1953.894543985779	45
0	885	1967.391884018465	44
0	887	1968.953078841886	45
0	891	1975.753052079742	46
0	895	1980.675212583733	47
0	897	1984.434920620764	48
0	899	1988.17588147654	49
0	905	1997.039189549181	50
0	909	2006.675050578551	51
0	912	2013.603734137001	52
0	914	2013.712213650688	53
0	918	2016.571851117598	54
0	920	2017.433573627472	55
0	922	2021.377678270243	56
0	929	2031.751956071526	57
0	932	2052.242150349561	58
0	937	2060.513224836688	58
0	939	2061.071047269637	59
0	942	2085.179997703273	60
0	944	2087.200259857916	61
0	955	2124.846046838009	58
0	961	2147.294971925394	59
0	972	2181.080498134622	57
0	974	2182.839138302258	58
0	977	2191.644797750578	58
0	985	2213.834378504324	56
0	988	2216.879486632086	56
0	992	2221.076484284912	57
0	996	2225.648999783634	57
0	999	2236.923596929798	57
0	1001	2243.644770406919	58
0	1007	2265.943846688117	55
0	1011	2278.84125004028	56
0	1028	2325.20156429716	52
0	1032	2335.233532933645	51
0	1036	2345.440787043552	50
0	1042	2357.58083537246	50
0	1044	2362.672863402485	51
0	1049	2380.495826501538	49
0	1051	2387.22080609807	50
0	1057	2408.542308582601	47
0	1059	2410.226325649505	48
0	1065	2413.640233561452	48
0	1068	2421.961824707125	48
0	1073	2439.826725366544	46
0	1079	2448.966925486014	43
0	1083	2457.299839417518	44
0	1085	2461.289238194113	45
0	1092	2473.170198392813	46
0	1095	2481.059061575314	47
1	128	353.474320604805	3
1	129	353.727058868405	3
1	130	358.199815137765	2
1	131	358.754117232136	1
1	136	362.221650059944	1
1	137	370.809504352447	1
1	138	372.862735074399	0
1	140	388.918922681755	0
1	142	391.684997140054	1
1	144	393.513447054423	2
1	145	395.875416577011	2
1	147	396.818932124983	2
1	148	401.120682286996	2
1	149	407.101899561077	1
1	151	411.073237962121	1
1	152	412.00909296671	1
1	153	414.785012877853	0
1	155	418.275100492741	0
1	157	419.589888907062	1
1	159	420.361511980791	2
1	161	431.413467444418	3
1	163	433.346302192891	4
1	170	445.432556060841	5
1	173	446.898056891252	6
1	174	450.857458583929	6
1	175	452.254026107758	5
1	176	453.394904870091	4
1	178	457.624761079718	4
1	179	458.429297821466	4
1	181	462.992411790454	4
1	182	465.211730912357	4
1	183	466.300413085166	3
1	187	474.439755828315	2
1	189	477.732048514976	2
1	191	479.565660162456	3
1	192	479.891415316864	3
1	193	482.266188223396	2
1	194	484.632029726199	1
1	195	486.481353310831	0
1	200	506.907177080105	0
1	202	508.184710933496	1
1	204	513.794651262729	2
1	205	520.569501697564	2
1	207	522.6230811356	2
1	209	525.703729907631	3
1	211	526.760700204932	4
1	213	529.153394214765	5
1	218	536.576731663828	6
1	222	538.986210414381	7
1	224	542.139596743865	8
1	227	549.542459884891	9
1	229	551.855074966976	10
1	231	552.96415021486	11
1	232	554.820781787111	11
1	234	555.292798021475	11
1	236	555.530199892277	12
1	237	556.478230948062	12
1	239	557.386578317167	12
1	240	558.304329244615	12
1	242	558.581549090794	12
1	243	560.689343032926	12
1	245	564.674090514164	12
1	247	566.996941240385	13
1	249	567.198732359307	14
1	251	567.806075160641	15
1	252	576.750042595427	15
1	256	587.820984637131	14
1	257	593.154911881067	13
1	258	596.680972808016	12
1	262	599.368227092208	12
1	267	609.617173713877	13
1	269	618.765200043476	14
1	271	628.111450699737	15
1	279	643.978860644792	16
1	284	651.569566067703	16
1	285	656.920823086831	15
1	286	663.014970990821	14
1	288	670.76103880654	14
1	289	672.60886179415	14
1	290	673.550543791884	13
1	292	673.781192419499	13
1	294	677.024116712335	14
1	298	680.55874114572	15
1	303	690.106648260074	16
1	305	695.833009998525	17
1	307	699.133966499006	17
1	309	706.460375203675	17
1	310	707.934730268576	17
1	312	710.189187192976	17
1	314	714.031277994825	18
1	315	715.935496115254	18
1	319	737.926859083103	17
1	320	738.171669816766	16
1	321	742.466793901991	15
1	322	746.368910722314	14
1	324	746.56073465194	14
1	326	747.335346081218	15
1	328	752.507465201618	16
1	329	759.693927351599	16
1	331	764.711850508577	16
1	338	776.684676813458	16
1	340	779.392366829766	16
1	341	781.296490676061	16
1	345	791.819244759043	15
1	352	798.727175529999	15
1	360	805.745986193468	16
1	363	809.376814129608	17
1	365	814.345620529679	18
1	367	816.943428381458	19
1	370	820.20186011876	20
1	372	823.652287563037	21
1	374	823.852341833642	22
1	377	838.965598310374	23
1	382	849.665848546355	24
1	384	855.20014544701	25
1	392	874.938272861615	26
1	394	875.642170742283	27
1	396	878.916392601563	28
1	398	880.194743129377	29
1	400	883.309532154353	29
1	401	887.910126632458	28
1	402	889.039325051857	27
1	403	892.63432384051	26
1	404	893.855993751503	25
1	408	908.302664689417	25
1	410	912.880118731235	26
1	412	914.154013521909	27
1	414	918.221453502094	28
1	416	920.466740367527	29
1	419	921.269617257342	30
1	420	921.509286575278	30
1	422	928.270388860147	30
1	423	929.90354530652	30
1	424	930.663738058724	29
1	426	940.769429665337	29
1	427	944.700511690703	29
1	429	946.937388544451	29
1	431	948.378059082212	30
1	432	949.490866857581	30
1	433	952.842857415183	29
1	434	957.921464889474	28
1	435	959.081644372008	27
1	437	961.276425471982	27
1	439	968.857171976466	28
1	440	969.527483159537	28
1	441	973.405037441336	27
1	442	974.431337645873	26
1	446	981.529437477729	25
1	448	985.637922849169	25
1	449	986.064165565797	25
1	450	986.64280890882	24
1	451	987.837930461223	23
1	456	990.293399767415	23
1	458	994.830844296818	24
1	459	1006.536526946146	24
1	463	1006.809630873742	24
1	465	1008.576925158246	25
1	471	1025.702611347249	26
1	473	1025.859092540039	27
1	477	1032.037129145877	28
1	479	1037.433558017698	28
1	480	1038.037622744154	27
1	485	1039.660424487586	27
1	486	1042.24143859102	27
1	488	1044.334527619919	27
1	492	1057.521298599556	27
1	493	1063.438355963162	26
1	494	1067.685637338021	25
1	498	1069.794077147459	25
1	500	1079.373293008126	25
1	501	1083.21943994407	24
1	502	1087.141789648959	23
1	503	1089.110117864925	22
1	505	1092.429440543177	22
1	506	1098.705260215917	22
1	508	1099.606014265835	22
1	509	1100.418550442459	22
1	510	1105.180925891773	21
1	511	1105.79814939017	20
1	513	1106.988560342246	20
1	515	1108.012979850404	21
1	516	1112.740200055101	21
1	520	1119.107336896355	20
1	524	1129.291116110808	19
1	529	1136.140998633732	19
1	530	1140.337777229833	19
1	531	1140.789480602046	18
1	538	1157.550368266195	18
1	540	1157.611214525958	19
1	543	1162.88480480778	20
1	544	1163.16735336065	20
1	545	1165.368432557569	19
1	547	1166.784023230992	19
1	548	1170.72415206216	19
1	549	1175.876228911531	18
1	553	1190.557302757124	17
1	554	1199.318643021983	16
1	555	1200.943966492816	15
1	557	1201.198363559256	15
1	559	1233.994475151404	16
1	561	1234.638255782988	17
1	562	1243.963641409113	17
1	564	1245.207501304281	17
1	566	1252.287471471351	18
1	568	1252.958309372731	19
1	570	1255.544300550687	20
1	572	1257.702205050436	21
1	573	1261.6544579576	21
1	574	1269.924948886612	20
1	576	1273.575107147716	20
1	578	1282.000157476293	21
1	582	1295.435582410467	21
1	583	1299.673223629791	20
1	584	1304.66076964785	19
1	586	1308.042757533478	19
1	587	1309.301312177846	19
1	588	1316.187835345833	18
1	590	1322.442427890273	18
1	591	1336.197305588238	18
1	592	1345.404496222311	17
1	593	1348.707080891258	16
1	594	1351.185472015789	15
1	595	1351.304237016852	14
1	597	1354.450041299215	14
1	598	1354.853816815193	14
1	599	1355.895191719122	13
1	601	1359.808667138904	13
1	603	1365.567060418044	14
1	604	1366.026855532399	14
1	605	1366.055214304933	13
1	606	1366.660751010664	12
1	607	1370.498389978791	11
1	608	1371.125042128801	10
1	609	1378.09639560116	9
1	611	1379.527834508314	9
1	612	1379.68573568868	9
1	613	1382.222773622891	8
1	614	1385.021981784537	7
1	616	1388.343387569061	7
1	617	1389.568872082818	7
1	619	1391.530722183322	7
1	621	1395.987648763864	8
1	625	1400.106197373452	8
1	629	1405.73259010185	8
1	632	1407.59546398581	9
1	633	1412.250633861655	9
1	634	1414.494033289736	8
1	635	1417.002225735008	7
1	637	1421.052419772988	7
1	648	1465.665298626496	8
1	656	1483.14063802135	9
1	660	1486.981162243963	10
1	663	1490.211591955959	11
1	665	1492.475700231023	12
1	668	1493.600893495466	13
1	670	1496.620248682547	14
1	672	1499.251009617682	15
1	674	1501.190745310615	16
1	678	1503.555027487292	17
1	680	1503.84271439289	18
1	682	1507.41017972299	19
1	688	1530.291608934717	20
1	690	1530.384925280363	21
1	695	1537.457528739665	22
1	701	1553.162040759077	23
1	707	1570.137080280809	24
1	709	1573.274776966163	25
1	711	1580.777479436213	26
1	727	1617.45004086707	27
1	729	1618.19945656825	28
1	735	1639.564752723533	29
1	740	1659.579680344184	30
1	742	1661.084268464403	31
1	743	1661.818243839956	31
1	745	1661.820909129658	31
1	747	1664.226597667918	32
1	748	1666.016250155361	32
1	749	1667.810975974818	31
1	751	1670.65600116995	31
1	752	1671.389731613719	31
1	756	1680.174225729876	30
1	757	1690.673515831178	29
1	759	1692.733021911401	29
1	761	1693.122160938568	30
1	762	1695.650941466854	30
1	764	1696.792034829513	30
1	765	1697.926751142917	30
1	767	1706.576033597084	30
1	775	1737.584751462818	31
1	776	1739.289795933851	31
1	777	1739.47776786406	30
1	778	1744.252246019279	29
1	788	1762.88645240741	29
1	790	1764.52628129551	30
1	792	1771.345773685681	31
1	797	1782.840199138905	32
1	799	1787.099373712175	33
1	801	1790.474069399335	34
1	805	1798.639424257225	35
1	810	1811.071683779677	36
1	812	1815.698051184562	37
1	815	1818.193629922128	38
1	818	1819.927956121786	39
1	819	1823.251895773226	39
1	820	1830.908167788026	38
1	824	1841.53335381805	38
1	826	1848.825722193123	39
1	828	1851.803641447519	40
1	830	1864.340847923344	40
1	831	1868.243169477552	39
1	832	1868.356791097572	38
1	833	1870.453516240327	37
1	835	1871.596090993364	37
1	837	1873.039811236144	38
1	838	1880.036550728869	38
1	839	1885.776586072725	37
1	840	1885.826049450072	36
1	842	1888.636690117927	36
1	844	1889.72021430197	37
1	845	1890.17720679381	37
1	853	1908.068432641432	37
1	857	1917.112298752113	38
1	867	1928.548868381647	39
1	869	1943.202172054068	40
1	871	1943.853450068646	41
1	874	1947.491857768771	42
1	876	1952.257540051665	43
1	878	1953.894543985779	44
1	880	1960.24322095916	44
1	881	1965.002016943176	43
1	885	1967.391884018465	43
1	887	1968.953078841886	44
1	891	1975.753052079742	45
1	895	1980.675212583733	46
1	897	1984.434920620764	47
1	899	1988.17588147654	48
1	905	1997.039189549181	49
1	909	2006.675050578551	50
1	912	2013.603734137001	51
1	914	2013.712213650688	52
1	918	2016.571851117598	53
1	920	2017.433573627472	54
1	922	2021.377678270243	55
1	929	2031.751956071526	56
1	932	2052.242150349561	57
1	933	2054.094474216506	57
1	937	2060.513224836688	57
1	939	2061.071047269637	58
1	942	2085.179997703273	59
1	944	2087.200259857916	60
1	945	2091.051053502894	60
1	946	2092.662958386266	59
1	947	2092.935037423747	58
1	948	2112.471322589289	57
1	955	2124.846046838009	57
1	961	2147.294971925394	58
1	968	2173.907685273322	58
1	969	2177.788933940886	57
1	970	2178.648875898462	56
1	972	2181.080498134622	56
1	974	2182.839138302258	57
1	975	2185.140981417363	57
1	977	2191.644797750578	57
1	981	2197.145451611706	57
1	982	2201.008232509084	56
1	983	2213.198820227937	55
1	985	2213.834378504324	55
1	986	2214.375966236023	55
1	988	2216.879486632086	55
1	992	2221.076484284912	56
1	994	2225.010771167751	56
1	996	2225.648999783634	56
1	997	2235.906438341489	56
1	999	2236.923596929798	56
1	1001	2243.644770406919	57
1	1002	2244.171228795352	57
1	1003	2259.880359867911	56
1	1004	2265.318819961106	55
1	1005	2265.599874614781	54
1	1007	2265.943846688117	54
1	1011	2278.84125004028	55
1	1013	2287.434689640717	55
1	1014	2290.819085292442	54
1	1015	2296.326392514136	53
1	1019	2310.483231277623	52
1	1023	2318.889983116539	51
1	1028	2325.20156429716	51
1	1029	2333.738179882335	51
1	1030	2334.476182101582	50
1	1032	2335.233532933645	50
1	1033	2335.921286268045	50
1	1034	2337.195262062482	49
1	1036	2345.440787043552	49
1	1037	2350.425371585856	49
1	1042	2357.58083537246	49
1	1044	2362.672863402485	50
1	1045	2370.192619518044	50
1	1046	2370.691866370301	49
1	1047	2375.045206061001	48
1	1049	2380.495826501538	48
1	1051	2387.22080609807	49
1	1052	2396.115066895523	49
1	1053	2404.725914009839	48
1	1054	2405.422752587933	47
1	1055	2408.058936654954	46
1	1057	2408.542308582601	46
1	1059	2410.226325649505	47
1	1063	2412.024000082394	47
1	1065	2413.640233561452	47
1	1066	2414.595831092994	47
1	1068	2421.961824707125	47
1	1069	2425.108143528753	47
1	1070	2433.945447032575	46
1	1071	2438.51617734268	45
1	1073	2439.826725366544	45
1	1074	2440.305051267729	45
1	1075	2442.296421017216	44
1	1076	2444.037414601709	43
1	1077	2446.776129634461	42
1	1079	2448.966925486014	42
1	1083	2457.299839417518	43
1	1085	2461.289238194113	44
1	1092	2473.170198392813	45
1	1095	2481.059061575314	46
1	1097	2487.594816753209	46
1	1098	2490.452307437665	45
1	1099	2491.267846681414	44
1	1100	2492.435767657919	43
2	129	353.727058868405	30
2	130	358.199815137765	31
2	131	358.754117232136	32
2	137	370.809504352447	33
2	138	372.862735074399	34
2	145	395.875416577011	35
2	148	401.120682286996	36
2	149	407.101899561077	37
2	152	412.00909296671	38
2	153	414.785012877853	39
2	174	450.857458583929	40
2	175	452.254026107758	41
2	176	453.394904870091	42
2	179	458.429297821466	43
2	182	465.211730912357	44
2	183	466.300413085166	45
2	187	474.439755828315	46
2	192	479.891415316864	47
2	193	482.266188223396	48
2	194	484.632029726199	49
2	195	486.481353310831	50
2	205	520.569501697564	51
2	232	554.820781787111	52
2	237	556.478230948062	53
2	240	558.304329244615	54
2	243	560.689343032926	55
2	252	576.750042595427	56
2	256	587.820984637131	57
2	257	593.154911881067	58
2	258	596.680972808016	59
2	284	651.569566067703	60
2	285	656.920823086831	61
2	286	663.014970990821	62
2	289	672.60886179415	63
2	290	673.550543791884	64
2	307	699.133966499006	65
2	310	707.934730268576	66
2	315	715.935496115254	67
2	319	737.926859083103	68
2	320	738.171669816766	69
2	321	742.466793901991	70
2	322	746.368910722314	71
2	329	759.693927351599	72
2	338	776.684676813458	73
2	341	781.296490676061	74
2	345	791.819244759043	75
2	400	883.309532154353	76
2	401	887.910126632458	77
2	402	889.039325051857	78
2	403	892.63432384051	79
2	404	893.855993751503	80
2	420	921.509286575278	81
2	423	929.90354530652	82
2	424	930.663738058724	83
2	427	944.700511690703	84
2	432	949.490866857581	85
2	433	952.842857415183	86
2	434	957.921464889474	87
2	435	959.081644372008	88
2	440	969.527483159537	89
2	441	973.405037441336	90
2	442	974.431337645873	91
2	446	981.529437477729	92
2	449	986.064165565797	93
2	450	986.64280890882	94
2	451	987.837930461223	95
2	459	1006.536526946146	96
2	479	1037.433558017698	97
2	480	1038.037622744154	98
2	486	1042.24143859102	99
2	492	1057.521298599556	100
2	493	1063.438355963162	101
2	494	1067.685637338021	102
2	500	1079.373293008126	103
2	501	1083.21943994407	104
2	502	1087.141789648959	105
2	503	1089.110117864925	106
2	506	1098.705260215917	107
2	509	1100.418550442459	108
2	510	1105.180925891773	109
2	511	1105.79814939017	110
2	516	1112.740200055101	111
2	520	1119.107336896355	112
2	524	1129.291116110808	113
2	530	1140.337777229833	114
2	531	1140.789480602046	115
2	544	1163.16735336065	116
2	545	1165.368432557569	117
2	548	1170.72415206216	118
2	549	1175.876228911531	119
2	553	1190.557302757124	120
2	554	1199.318643021983	121
2	555	1200.943966492816	122
2	562	1243.963641409113	123
2	573	1261.6544579576	124
2	574	1269.924948886612	125
2	582	1295.435582410467	126
2	583	1299.673223629791	127
2	584	1304.66076964785	128
2	587	1309.301312177846	129
2	588	1316.187835345833	130
2	591	1336.197305588238	131
2	592	1345.404496222311	132
2	593	1348.707080891258	133
2	594	1351.185472015789	134
2	595	1351.304237016852	135
2	598	1354.853816815193	136
2	599	1355.895191719122	137
2	604	1366.026855532399	138
2	605	1366.055214304933	139
2	606	1366.660751010664	140
2	607	1370.498389978791	141
2	608	1371.125042128801	142
2	609	1378.09639560116	143
2	612	1379.68573568868	144
2	613	1382.222773622891	145
2	614	1385.021981784537	146
2	617	1389.568872082818	147
2	625	1400.106197373452	148
2	633	1412.250633861655	149
2	634	1414.494033289736	150
2	635	1417.002225735008	151
2	743	1661.818243839956	152
2	748	1666.016250155361	153
2	749	1667.810975974818	154
2	752	1671.389731613719	155
2	756	1680.174225729876	156
2	757	1690.673515831178	157
2	762	1695.650941466854	158
2	765	1697.926751142917	159
2	776	1739.289795933851	160
2	777	1739.47776786406	161
2	778	1744.252246019279	162
2	819	1823.251895773226	163
2	820	1830.908167788026	164
2	830	1864.340847923344	165
2	831	1868.243169477552	166
2	832	1868.356791097572	167
2	833	1870.453516240327	168
2	838	1880.036550728869	169
2	839	1885.776586072725	170
2	840	1885.826049450072	171
2	845	1890.17720679381	172
2	880	1960.24322095916	173
2	881	1965.002016943176	174
2	933	2054.094474216506	175
2	945	2091.051053502894	176
2	946	2092.662958386266	177
2	947	2092.935037423747	178
2	948	2112.471322589289	179
2	968	2173.907685273322	180
2	969	2177.788933940886	181
2	970	2178.648875898462	182
2	975	2185.140981417363	183
2	981	2197.145451611706	184
2	982	2201.008232509084	185
2	983	2213.198820227937	186
2	986	2214.375966236023	187
2	994	2225.010771167751	188
2	997	2235.906438341489	189
2	1002	2244.171228795352	190
2	1003	2259.880359867911	191
2	1004	2265.318819961106	192
2	1005	2265.599874614781	193
2	1013	2287.434689640717	194
2	1014	2290.819085292442	195
2	1015	2296.326392514136	196
2	1019	2310.483231277623	197
2	1023	2318.889983116539	198
2	1029	2333.738179882335	199
2	1030	2334.476182101582	200
2	1033	2335.921286268045	201
2	1034	2337.195262062482	202
2	1037	2350.425371585856	203
2	1045	2370.192619518044	204
2	1046	2370.691866370301	205
2	1047	2375.045206061001	206
2	1052	2396.115066895523	207
2	1053	2404.725914009839	208
2	1054	2405.422752587933	209
2	1055	2408.058936654954	210
2	1063	2412.024000082394	211
2	1066	2414.595831092994	212
2	1069	2425.108143528753	213
2	1070	2433.945447032575	214
2	1071	2438.51617734268	215
2	1074	2440.305051267729	216
2	1075	2442.296421017216	217
2	1076	2444.037414601709	218
2	1077	2446.776129634461	219
2	1097	2487.594816753209	220
2	1098	2490.452307437665	221
2	1099	2491.267846681414	222
2	1100	2492.435767657919	223
3	129	353.727058868405	21.508995020264
3	130	358.199815137765	23.280924164059
3	131	358.754117232136	10.69357705504
3	137	370.809504352447	9.944968524236
3	138	372.862735074399	10.641085014455
3	145	395.875416577011	6.956493895256
3	148	401.120682286996	9.435685146942
3	149	407.101899561077	13.588452506654
3	152	412.00909296671	15.190160841727
3	153	414.785012877853	3.711774915732
3	174	450.857458583929	31.267569676867
3	175	452.254026107758	31.892514126967
3	176	453.394904870091	21.981437425673
3	179	458.429297821466	25.082995628575
3	182	465.211730912357	31.019238918724
3	183	466.300413085166	20.867857024325
3	187	474.439755828315	16.814994748597
3	192	479.891415316864	16.89900352641
3	193	482.266188223396	8.84806256283
3	194	484.632029726199	6.899981211223
3	195	486.481353310831	6.915693148375
3	205	520.569501697564	13.662324617459
3	232	554.820781787111	32.197700651511
3	237	556.478230948062	30.774501040431
3	240	558.304329244615	31.543629039683
3	243	560.689343032926	31.535948818161
3	252	576.750042595427	43.087051875131
3	256	587.820984637131	50.190085783425
3	257	593.154911881067	54.168701466686
3	258	596.680972808016	54.541376064151
3	284	651.569566067703	94.182987750536
3	285	656.920823086831	98.339273996037
3	286	663.014970990821	98.340880476657
3	289	672.60886179415	105.61192055377
3	290	673.550543791884	106.35181143258
3	307	699.133966499006	122.24844633372
3	310	707.934730268576	108.64986048539
3	315	715.935496115254	116.56726902305
3	319	737.926859083103	128.30968536923
3	320	738.171669816766	119.40646977329
3	321	742.466793901991	114.35534320225
3	322	746.368910722314	111.48098020977
3	329	759.693927351599	120.04004636339
3	338	776.684676813458	127.26751658143
3	341	781.296490676061	110.53545186952
3	345	791.819244759043	114.79512804671
3	400	883.309532154353	173.12034496138
3	401	887.910126632458	173.87884863763
3	402	889.039325051857	159.35507388712
3	403	892.63432384051	146.07358918857
3	404	893.855993751503	146.52064767029
3	420	921.509286575278	156.7974360667
3	423	929.90354530652	164.45052253263
3	424	930.663738058724	151.27137122896
3	427	944.700511690703	155.72720532031
3	432	949.490866857581	157.56037845435
3	433	952.842857415183	157.68722448879
3	434	957.921464889474	159.19428935947
3	435	959.081644372008	153.33565817854
3	440	969.527483159537	160.15066902993
3	441	973.405037441336	159.05941691166
3	442	974.431337645873	157.48790926442
3	446	981.529437477729	157.87714991469
3	449	986.064165565797	162.21182373215
3	450	986.64280890882	147.67721059845
3	451	987.837930461223	138.3729498786
3	459	1006.536526946146	151.33638149914
3	479	1037.433558017698	162.49528515608
3	480	1038.037622744154	162.39545200187
3	486	1042.24143859102	162.04669546164
3	492	1057.521298599556	149.21863391014
3	493	1063.438355963162	150.55823723193
3	494	1067.685637338021	153.53162381611
3	500	1079.373293008126	158.9065526406
3	501	1083.21943994407	161.94982268673
3	502	1087.141789648959	158.87140078881
3	503	1089.110117864925	148.34068819959
3	506	1098.705260215917	151.76787167147
3	509	1100.418550442459	152.04049136025
3	510	1105.180925891773	143.90450041979
3	511	1105.79814939017	136.9409774137
3	516	1112.740200055101	137.96453004246
3	520	1119.107336896355	131.07005152497
3	524	1129.291116110808	134.46027181399
3	530	1140.337777229833	133.52814635609
3	531	1140.789480602046	132.2125554438
3	544	1163.16735336065	135.78641266467
3	545	1165.368432557569	133.33130341169
3	548	1170.72415206216	132.48831459282
3	549	1175.876228911531	136.21580442395
3	553	1190.557302757124	138.70264816052
3	554	1199.318643021983	130.86131866294
3	555	1200.943966492816	131.14988934536
3	562	1243.963641409113	151.53420086594
3	573	1261.6544579576	162.04844369176
3	574	1269.924948886612	162.93638854437
3	582	1295.435582410467	180.32100138806
3	583	1299.673223629791	174.62299946493
3	584	1304.66076964785	173.07231289133
3	587	1309.301312177846	173.16031354411
3	588	1316.187835345833	170.190545153
3	591	1336.197305588238	180.54144017126
3	592	1345.404496222311	187.85412795612
3	593	1348.707080891258	191.0958663653
3	594	1351.185472015789	188.30066720801
3	595	1351.304237016852	184.52021378586
3	598	1354.853816815193	175.3736582916
3	599	1355.895191719122	154.69682815987
3	604	1366.026855532399	132.03238038099
3	605	1366.055214304933	131.41695852194
3	606	1366.660751010664	121.45324970638
3	607	1370.498389978791	118.21091850744
3	608	1371.125042128801	118.16673275607
3	609	1378.09639560116	122.55209505047
3	612	1379.68573568868	121.98353063824
3	613	1382.222773622891	108.64766647518
3	614	1385.021981784537	103.02182430824
3	617	1389.568872082818	101.8992530818
3	625	1400.106197373452	77.663769483179
3	633	1412.250633861655	52.441966722751
3	634	1414.494033289736	48.926972871692
3	635	1417.002225735008	37.474391226694
3	743	1661.818243839956	265.83059507609
3	748	1666.016250155361	268.81243539279
3	749	1667.810975974818	264.3391885539
3	752	1671.389731613719	265.65714151187
3	756	1680.174225729876	259.12180595689
3	757	1690.673515831178	268.4988481
3	762	1695.650941466854	229.98564284036
3	765	1697.926751142917	214.78611312157
3	776	1739.289795933851	249.07820397789
3	777	1739.47776786406	247.00206763304
3	778	1744.252246019279	250.65135252381
3	819	1823.251895773226	324.00088615554
3	820	1830.908167788026	329.71742247741
3	830	1864.340847923344	360.49813353045
3	831	1868.243169477552	360.83298975456
3	832	1868.356791097572	338.06518216285
3	833	1870.453516240327	340.06859095996
3	838	1880.036550728869	342.5790219892
3	839	1885.776586072725	332.61454531365
3	840	1885.826049450072	315.68896916926
3	845	1890.17720679381	316.90242982765
3	880	1960.24322095916	342.04376439091
3	881	1965.002016943176	325.43726421964
3	933	2054.094474216506	394.51479387232
3	945	2091.051053502894	429.23014437324
3	946	2092.662958386266	428.43636071835
3	947	2092.935037423747	422.2790362538
3	948	2112.471322589289	439.82533869115
3	968	2173.907685273322	477.11565044381
3	969	2177.788933940886	471.2129003438
3	970	2178.648875898462	453.47530634894
3	975	2185.140981417363	447.55622995455
3	981	2197.145451611706	434.2589992043
3	982	2201.008232509084	436.48195121357
3	983	2213.198820227937	441.85304654226
3	986	2214.375966236023	431.53576709712
3	994	2225.010771167751	434.53670176842
3	997	2235.906438341489	437.26701408426
3	1002	2244.171228795352	433.09954501568
3	1003	2259.880359867911	444.18230868335
3	1004	2265.318819961106	447.12519003898
3	1005	2265.599874614781	445.671918493
3	1013	2287.434689640717	445.90133582267
3	1014	2290.819085292442	441.99336309932
3	1015	2296.326392514136	444.52275106662
3	1019	2310.483231277623	437.44342004148
3	1023	2318.889983116539	429.16976881457
3	1029	2333.738179882335	425.6697472409
3	1030	2334.476182101582	417.36388334947
3	1033	2335.921286268045	415.86187185817
3	1034	2337.195262062482	408.64639368083
3	1037	2350.425371585856	407.22319953179
3	1045	2370.192619518044	422.70076174927
3	1046	2370.691866370301	418.43432631864
3	1047	2375.045206061001	421.15066207522
3	1052	2396.115066895523	430.64204247973
3	1053	2404.725914009839	437.33402999137
3	1054	2405.422752587933	436.46967374605
3	1055	2408.058936654954	432.30588457521
3	1063	2412.024000082394	427.58907946163
3	1066	2414.595831092994	426.41994961645
3	1069	2425.108143528753	428.06895397957
3	1070	2433.945447032575	427.27039645402
3	1071	2438.51617734268	424.91244320568
3	1074	2440.305051267729	426.59283761704
3	1075	2442.296421017216	425.72456989962
3	1076	2444.037414601709	426.60384097424
3	1077	2446.776129634461	425.39845136422
3	1097	2487.594816753209	430.74221191664
3	1098	2490.452307437665	429.93908260098
3	1099	2491.267846681414	430.19679941178
3	1100	2492.435767657919	407.25576995465
4	129	353.727058868405	18.808167894699
4	130	358.199815137765	10.139274960669
4	131	358.754117232136	5.279796627331
4	134	360.99526626209	0.130730433879
4	137	370.809504352447	8.587854292503
4	140	388.918922681755	0
4	145	395.875416577011	4.190419436957
4	148	401.120682286996	7.607235232573
4	149	407.101899561077	10.282967436094
4	152	412.00909296671	0.935855004589
4	155	418.275100492741	0
4	171	446.248830685556	26.658941778494
4	174	450.857458583929	30.495946603138
4	175	452.254026107758	20.84055866334
4	176	453.394904870091	20.0486026772
4	179	458.429297821466	24.236805827833
4	182	465.211730912357	19.779174851516
4	183	466.300413085166	19.402356193914
4	186	473.737387102519	16.112626022801
4	187	474.439755828315	11.447344037861
4	192	479.891415316864	6.473289656298
4	193	482.266188223396	4.53413970842
4	194	484.632029726199	5.066369563743
4	200	506.907177080105	0
4	205	520.569501697564	12.384790764068
4	216	535.800038212238	22.005386949509
4	225	546.473203800397	23.850122664797
4	232	554.820781787111	29.11705187948
4	237	556.478230948062	29.71753074313
4	240	558.304329244615	29.15093502985
4	243	560.689343032926	27.02635231263
4	252	576.750042595427	40.173310931599
4	255	583.753442016302	46.122543162596
4	256	587.820984637131	48.83477422275
4	257	593.154911881067	51.015315137202
4	258	596.680972808016	47.138512923125
4	263	605.215258691564	53.360183724588
4	272	634.516832353974	81.552682139114
4	275	638.39550991065	83.102711889175
4	280	648.735453680245	93.205253787968
4	283	649.841727562633	92.455149245466
4	284	651.569566067703	92.988016976909
4	285	656.920823086831	92.246732572667
4	286	663.014970990821	96.018029750436
4	289	672.60886179415	105.41012943484
4	290	673.550543791884	105.74446863124
4	306	698.696545720226	121.81102555494
4	307	699.133966499006	99.849096715824
4	310	707.934730268576	108.56650317637
4	315	715.935496115254	107.96472446082
4	318	731.335531587745	121.71835787387
4	319	737.926859083103	119.16165903963
4	320	738.171669816766	110.06021911703
4	321	742.466793901991	107.57886338945
4	322	746.368910722314	106.71502973411
4	329	759.693927351599	115.71506670681
4	337	771.624137255877	122.20697702385
4	338	776.684676813458	105.92363800692
4	341	781.296490676061	107.51529825656
4	344	790.677930386287	113.65381367395
4	345	791.819244759043	112.07909110124
4	348	793.692639882115	113.13389873639
4	378	843.33424413381	153.22759587374
4	385	859.345337114346	163.51232711582
4	388	864.818201486838	158.35782628316
4	399	882.2357604596	172.04657326662
4	400	883.309532154353	169.27825415953
4	401	887.910126632458	158.22587546772
4	402	889.039325051857	142.47859039992
4	403	892.63432384051	145.29897775929
4	404	893.855993751503	141.34852854989
4	417	920.934451535035	156.22260102646
4	420	921.509286575278	156.05626380139
4	423	929.90354530652	150.51117847675
4	424	930.663738058724	141.69043168833
4	427	944.700511690703	152.77002328747
4	432	949.490866857581	154.33523393119
4	433	952.842857415183	154.11568188518
4	434	957.921464889474	152.17547869601
4	435	959.081644372008	149.7048302424
4	440	969.527483159537	155.18186262986
4	441	973.405037441336	156.46160905988
4	442	974.431337645873	154.22947752711
4	445	975.079843266477	151.42755570344
4	446	981.529437477729	157.67709564409
4	449	986.064165565797	147.09856725542
4	450	986.64280890882	137.1778283262
4	451	987.837930461223	138.17208191487
4	454	988.740264235458	133.54011878845
4	459	1006.536526946146	142.78442261824
4	469	1019.737448007155	147.46664163894
4	478	1035.113756557761	160.17548369615
4	479	1037.433558017698	161.79138727541
4	480	1038.037622744154	159.12123014259
4	483	1038.874940193249	158.68019706387
4	486	1042.24143859102	140.82945853895
4	491	1052.637354398125	144.33468970871
4	492	1057.521298599556	144.64117986832
4	493	1063.438355963162	149.28434244125
4	494	1067.685637338021	149.46418383593
4	499	1073.085575127159	152.61883475963
4	500	1079.373293008126	158.10367575078
4	501	1083.21943994407	154.94905108392
4	502	1087.141789648959	146.37235998362
4	503	1089.110117864925	142.17272932047
4	506	1098.705260215917	150.3272011337
4	509	1100.418550442459	139.14212497048
4	510	1105.180925891773	136.32375391531
4	511	1105.79814939017	131.02247937753
4	516	1112.740200055101	127.10227720593
4	519	1118.072379484393	130.035094113
4	520	1119.107336896355	128.81393712894
4	523	1128.696394658773	133.86555036196
4	524	1129.291116110808	122.69791611602
4	527	1135.868576311563	129.05894543782
4	530	1140.337777229833	131.76085207159
4	531	1140.789480602046	115.0868692548
4	534	1151.027800073635	125.1687075336
4	541	1158.309320267296	130.92837957132
4	544	1163.16735336065	131.13022421477
4	545	1165.368432557569	127.13259508823
4	548	1170.72415206216	131.06372757457
4	549	1175.876228911531	131.54170129161
4	552	1184.297435923599	132.44278132699
4	553	1190.557302757124	122.09997839808
4	554	1199.318643021983	129.52456587452
4	555	1200.943966492816	108.51452594964
4	562	1243.963641409113	144.35762714328
4	573	1261.6544579576	154.66589761535
4	574	1269.924948886612	161.91196903621
4	581	1290.586520482747	175.47193946034
4	582	1295.435582410467	170.3853582456
4	583	1299.673223629791	168.08476687327
4	584	1304.66076964785	168.51977101412
4	587	1309.301312177846	163.30402198502
4	588	1316.187835345833	160.53196992886
4	591	1336.197305588238	178.64693732204
4	592	1345.404496222311	187.79328169635
4	593	1348.707080891258	185.82227608348
4	594	1351.185472015789	184.4014487848
4	595	1351.304237016852	171.82407849326
4	598	1354.853816815193	153.65545325594
4	599	1355.895191719122	121.90071656772
4	604	1366.026855532399	131.38859974941
4	605	1366.055214304933	120.84771300065
4	606	1366.660751010664	114.37327953931
4	607	1370.498389978791	117.54008060606
4	608	1371.125042128801	115.58074157811
4	609	1378.09639560116	120.39419055072
4	612	1379.68573568868	106.11062854096
4	613	1382.222773622891	100.2226161466
4	614	1385.021981784537	97.352362783522
4	617	1389.568872082818	81.52611454934
4	624	1399.441574986073	76.9991470958
4	625	1400.106197373452	45.656156074237
4	630	1406.402079391956	46.593412253052
4	633	1412.250633861655	46.683573443611
4	634	1414.494033289736	34.966198781422
4	635	1417.002225735008	28.658838165947
4	733	1637.492420418683	245.96169823536
4	738	1652.972585725019	256.98493696115
4	743	1661.818243839956	264.61442907738
4	748	1666.016250155361	262.54446273445
4	749	1667.810975974818	262.07838587297
4	752	1671.389731613719	263.79426762791
4	755	1676.703641288935	255.65122151595
4	756	1680.174225729876	257.9995579987
4	757	1690.673515831178	225.00821720468
4	762	1695.650941466854	212.5103034455
4	765	1697.926751142917	210.94558889895
4	773	1735.53880445356	245.3272124976
4	776	1739.289795933851	246.81409570283
4	777	1739.47776786406	245.87687436859
4	778	1744.252246019279	247.63199733673
4	816	1819.408437429934	320.15742781225
4	819	1823.251895773226	322.06115046261
4	820	1830.908167788026	327.35314030073
4	829	1860.818240736203	356.97552634331
4	830	1864.340847923344	356.93066820035
4	831	1868.243169477552	337.95156054284
4	832	1868.356791097572	337.97186581721
4	833	1870.453516240327	332.99598750066
4	838	1880.036550728869	326.87450996979
4	839	1885.776586072725	315.63950579192
4	840	1885.826049450072	312.55127248391
4	845	1890.17720679381	309.3997273576
4	858	1918.698832771156	301.24879190409
4	879	1955.373104815903	337.17364824765
4	880	1960.24322095916	320.67846823563
4	881	1965.002016943176	318.94942309461
4	930	2043.666289844931	384.08660950075
4	933	2054.094474216506	393.0102057521
4	940	2077.999691293616	416.17878216396
4	945	2091.051053502894	426.82445583498
4	946	2092.662958386266	422.00695721632
4	947	2092.935037423747	420.28905352561
4	948	2112.471322589289	419.73830067789
4	959	2131.673464358382	438.55130341981
4	967	2170.02244627384	473.23041144433
4	968	2173.907685273322	467.33165167624
4	969	2177.788933940886	452.61536439137
4	970	2178.648875898462	441.06412443564
4	975	2185.140981417363	438.24626278333
4	980	2194.387000880287	431.50054847288
4	981	2197.145451611706	432.6191703162
4	982	2201.008232509084	429.6624588234
4	983	2213.198820227937	430.35862108903
4	986	2214.375966236023	427.27659252385
4	993	2224.636169903205	434.16210050387
4	994	2225.010771167751	426.37134691053
4	997	2235.906438341489	424.83475456181
4	1002	2244.171228795352	428.47317761079
4	1003	2259.880359867911	441.68672994578
4	1004	2265.318819961106	445.39086383932
4	1005	2265.599874614781	425.37140270573
4	1012	2281.873413522041	440.34005970399
4	1013	2287.434689640717	438.60896744759
4	1014	2290.819085292442	439.01544384492
4	1015	2296.326392514136	424.73030152077
4	1018	2301.969997039124	428.93018580298
4	1019	2310.483231277623	421.8465411597
4	1022	2317.494621010917	427.77440670895
4	1023	2318.889983116539	422.50211183806
4	1026	2324.651636824447	416.58320418301
4	1029	2333.738179882335	416.62588113022
4	1030	2334.476182101582	414.41676769171
4	1033	2335.921286268045	407.3724178864
4	1034	2337.195262062482	393.99309000841
4	1037	2350.425371585856	406.57192151721
4	1040	2353.36413652631	405.87227875754
4	1045	2370.192619518044	417.93507946638
4	1046	2370.691866370301	416.79732238452
4	1047	2375.045206061001	409.57218164521
4	1052	2396.115066895523	428.72318287706
4	1053	2404.725914009839	435.77283516795
4	1054	2405.422752587933	429.66970050819
4	1055	2408.058936654954	427.38372407122
4	1062	2411.553588596472	427.11866797571
4	1063	2412.024000082394	423.84811860585
4	1066	2414.595831092994	417.55664154381
4	1069	2425.108143528753	418.4330929502
4	1070	2433.945447032575	420.34171289557
4	1071	2438.51617734268	424.80396369199
4	1074	2440.305051267729	423.73320015013
4	1075	2442.296421017216	424.86284738974
4	1076	2444.037414601709	422.65973633147
4	1077	2446.776129634461	415.02417356294
4	1086	2461.39604986989	409.15389952033
4	1096	2485.880635703584	429.02803086701
4	1097	2487.594816753209	427.08159191652
4	1098	2490.452307437665	429.38126016803
4	1099	2491.267846681414	406.08784897814
4	1100	2492.435767657919	405.2355078
4	1103	2498.161523997102	379.08374410313
5	133	360.864535828211	1
5	165	434.192491993633	1
5	167	434.455210291892	2
5	185	473.418125660566	1
5	197	494.985859456131	1
5	215	533.662990720296	1
5	220	537.630898853706	1
5	254	576.885520165288	1
5	260	599.284869783182	1
5	265	607.970771654433	1
5	274	634.887930512541	1
5	277	639.653880988209	1
5	282	649.417160232028	1
5	296	679.740153657803	1
5	300	683.74995469966	2
5	317	729.684251164739	1
5	333	765.453022773889	1
5	335	766.43135895336	2
5	343	788.973306370394	1
5	347	791.930488403228	1
5	350	795.155632926391	1
5	354	799.035351057598	2
5	356	800.178837360028	3
5	358	800.927631421423	4
5	380	849.464980582621	1
5	387	863.752104327907	1
5	390	872.270806368218	1
5	406	901.411980052073	1
5	444	974.77567001264	1
5	453	988.037285371389	1
5	461	1006.593199994784	1
5	467	1011.297870756273	2
5	475	1027.380940695977	1
5	482	1038.235837469343	1
5	490	1051.854654596607	1
5	496	1068.457324359042	1
5	518	1115.114581022403	1
5	522	1125.050224164863	1
5	526	1131.588456756517	1
5	533	1145.997290192829	1
5	536	1155.655865416976	1
5	551	1179.480158523593	1
5	580	1287.669619001015	1
5	623	1397.203814762574	1
5	627	1403.471787420916	1
5	639	1422.174667731178	1
5	641	1425.541955577038	2
5	643	1459.809802668981	3
5	646	1463.472783701677	3
5	651	1468.258265090104	3
5	654	1477.030327765908	3
5	658	1483.733119445775	4
5	676	1502.192571971784	3
5	685	1513.824900073327	3
5	693	1535.615523159129	2
5	697	1544.835433568439	3
5	699	1552.405657681915	4
5	704	1554.423249520396	4
5	713	1584.168946148526	4
5	716	1590.380435773746	4
5	718	1596.202799076679	5
5	721	1601.028906960768	5
5	725	1612.419185454763	4
5	737	1646.052593848569	1
5	754	1672.645983898138	1
5	769	1725.173569549517	1
5	771	1734.285532893839	2
5	780	1746.894718634036	1
5	782	1752.682965373174	2
5	784	1753.420297938543	3
5	786	1756.356175216809	4
5	794	1776.492643095432	5
5	807	1805.713256286704	3
5	822	1840.228471909046	1
5	847	1896.387871278477	1
5	849	1902.845844547256	2
5	851	1905.171414237391	3
5	860	1920.059414409871	1
5	862	1923.446138582809	2
5	865	1927.44617853084	2
5	883	1965.473024415792	1
5	889	1974.610237799757	2
5	893	1978.257315432963	3
5	901	1992.92582265826	4
5	903	1995.832788322231	5
5	916	2013.962719486096	3
5	924	2021.902296801776	4
5	935	2056.852604836569	1
5	950	2119.077779893969	1
5	952	2119.880416731758	2
5	957	2127.915740897932	2
5	963	2148.080455696903	1
5	965	2150.521770546261	2
5	979	2193.689164674927	1
5	990	2219.878277341564	1
5	1009	2272.375387945966	1
5	1017	2299.072206357407	1
5	1021	2314.179784942103	1
5	1025	2323.85327808203	1
5	1039	2352.473961820584	1
5	1061	2410.291790491198	1
5	1081	2457.099948359269	1
5	1088	2464.026288258992	1
5	1090	2465.224727782946	2
5	1102	2497.285207450237	1
6	133	360.864535828211	0
6	134	360.99526626209	0
6	165	434.192491993633	0
6	167	434.455210291892	1
6	168	437.368082119675	1
6	171	446.248830685556	0
6	185	473.418125660566	0
6	186	473.737387102519	0
6	197	494.985859456131	0
6	198	498.372062713089	0
6	215	533.662990720296	0
6	216	535.800038212238	0
6	220	537.630898853706	0
6	225	546.473203800397	0
6	254	576.885520165288	0
6	255	583.753442016302	0
6	260	599.284869783182	0
6	263	605.215258691564	0
6	265	607.970771654433	0
6	272	634.516832353974	0
6	274	634.887930512541	0
6	275	638.39550991065	0
6	277	639.653880988209	0
6	280	648.735453680245	0
6	282	649.417160232028	0
6	283	649.841727562633	0
6	296	679.740153657803	0
6	300	683.74995469966	1
6	301	689.286028322773	1
6	306	698.696545720226	0
6	317	729.684251164739	0
6	318	731.335531587745	0
6	333	765.453022773889	0
6	335	766.43135895336	1
6	336	766.488247174704	1
6	337	771.624137255877	0
6	343	788.973306370394	0
6	344	790.677930386287	0
6	347	791.930488403228	0
6	348	793.692639882115	0
6	350	795.155632926391	0
6	354	799.035351057598	1
6	356	800.178837360028	2
6	358	800.927631421423	3
6	361	805.850893600877	3
6	368	817.544256606902	2
6	375	830.540098774623	1
6	378	843.33424413381	0
6	380	849.464980582621	0
6	385	859.345337114346	0
6	387	863.752104327907	0
6	388	864.818201486838	0
6	390	872.270806368218	0
6	399	882.2357604596	0
6	406	901.411980052073	0
6	417	920.934451535035	0
6	444	974.77567001264	0
6	445	975.079843266477	0
6	453	988.037285371389	0
6	454	988.740264235458	0
6	461	1006.593199994784	0
6	467	1011.297870756273	1
6	468	1013.759998231638	1
6	469	1019.737448007155	0
6	475	1027.380940695977	0
6	478	1035.113756557761	0
6	482	1038.235837469343	0
6	483	1038.874940193249	0
6	490	1051.854654596607	0
6	491	1052.637354398125	0
6	496	1068.457324359042	0
6	499	1073.085575127159	0
6	518	1115.114581022403	0
6	519	1118.072379484393	0
6	522	1125.050224164863	0
6	523	1128.696394658773	0
6	526	1131.588456756517	0
6	527	1135.868576311563	0
6	533	1145.997290192829	0
6	534	1151.027800073635	0
6	536	1155.655865416976	0
6	541	1158.309320267296	0
6	551	1179.480158523593	0
6	552	1184.297435923599	0
6	580	1287.669619001015	0
6	581	1290.586520482747	0
6	623	1397.203814762574	0
6	624	1399.441574986073	0
6	627	1403.471787420916	0
6	630	1406.402079391956	0
6	639	1422.174667731178	0
6	641	1425.541955577038	1
6	643	1459.809802668981	2
6	644	1463.315790888808	2
6	646	1463.472783701677	2
6	649	1465.773819438067	2
6	651	1468.258265090104	2
6	652	1469.41366492339	2
6	654	1477.030327765908	2
6	658	1483.733119445775	3
6	661	1488.592452046785	3
6	666	1492.81562950529	2
6	676	1502.192571971784	2
6	683	1511.591994125874	2
6	685	1513.824900073327	2
6	686	1530.212652692391	2
6	691	1533.865267544143	1
6	693	1535.615523159129	1
6	697	1544.835433568439	2
6	699	1552.405657681915	3
6	702	1554.158316114136	3
6	704	1554.423249520396	3
6	705	1559.234531142747	3
6	713	1584.168946148526	3
6	714	1584.45260502869	3
6	716	1590.380435773746	3
6	718	1596.202799076679	4
6	719	1596.302700969786	4
6	721	1601.028906960768	4
6	722	1601.889944243354	4
6	723	1602.475542348373	3
6	725	1612.419185454763	3
6	730	1619.592496801493	3
6	731	1624.198294637078	2
6	732	1629.871184429563	1
6	733	1637.492420418683	0
6	737	1646.052593848569	0
6	738	1652.972585725019	0
6	754	1672.645983898138	0
6	755	1676.703641288935	0
6	769	1725.173569549517	0
6	771	1734.285532893839	1
6	772	1734.482097192335	1
6	773	1735.53880445356	0
6	780	1746.894718634036	0
6	782	1752.682965373174	1
6	784	1753.420297938543	2
6	786	1756.356175216809	3
6	794	1776.492643095432	4
6	795	1779.450191011407	4
6	802	1793.550840149479	3
6	803	1796.524548516574	2
6	807	1805.713256286704	2
6	808	1807.156430862105	2
6	813	1815.880780785348	1
6	816	1819.408437429934	0
6	822	1840.228471909046	0
6	829	1860.818240736203	0
6	847	1896.387871278477	0
6	849	1902.845844547256	1
6	851	1905.171414237391	2
6	854	1909.427760934306	2
6	855	1909.78904728061	1
6	858	1918.698832771156	0
6	860	1920.059414409871	0
6	862	1923.446138582809	1
6	863	1925.964251806711	1
6	865	1927.44617853084	1
6	872	1946.388336033991	1
6	879	1955.373104815903	0
6	883	1965.473024415792	0
6	889	1974.610237799757	1
6	893	1978.257315432963	2
6	901	1992.92582265826	3
6	903	1995.832788322231	4
6	906	1999.629204087073	4
6	907	2002.009279952398	3
6	910	2008.613004341834	2
6	916	2013.962719486096	2
6	924	2021.902296801776	3
6	925	2025.904624729586	3
6	926	2026.219584771624	2
6	927	2029.571090317763	1
6	930	2043.666289844931	0
6	935	2056.852604836569	0
6	940	2077.999691293616	0
6	950	2119.077779893969	0
6	952	2119.880416731758	1
6	953	2122.180149309408	1
6	957	2127.915740897932	1
6	958	2129.407201680771	1
6	959	2131.673464358382	0
6	963	2148.080455696903	0
6	965	2150.521770546261	1
6	966	2156.501049846157	1
6	967	2170.02244627384	0
6	979	2193.689164674927	0
6	980	2194.387000880287	0
6	990	2219.878277341564	0
6	993	2224.636169903205	0
6	1009	2272.375387945966	0
6	1012	2281.873413522041	0
6	1017	2299.072206357407	0
6	1018	2301.969997039124	0
6	1021	2314.179784942103	0
6	1022	2317.494621010917	0
6	1025	2323.85327808203	0
6	1026	2324.651636824447	0
6	1039	2352.473961820584	0
6	1040	2353.36413652631	0
6	1061	2410.291790491198	0
6	1062	2411.553588596472	0
6	1081	2457.099948359269	0
6	1086	2461.39604986989	0
6	1088	2464.026288258992	0
6	1090	2465.224727782946	1
6	1093	2473.962590751661	1
6	1096	2485.880635703584	0
6	1102	2497.285207450237	0
6	1103	2498.161523997102	0
7	133	360.864535828211	8
7	165	434.192491993633	9
7	185	473.418125660566	10
7	215	533.662990720296	11
7	220	537.630898853706	12
7	254	576.885520165288	13
7	260	599.284869783182	14
7	265	607.970771654433	15
7	274	634.887930512541	16
7	277	639.653880988209	17
7	282	649.417160232028	18
7	296	679.740153657803	19
7	317	729.684251164739	20
7	333	765.453022773889	21
7	343	788.973306370394	22
7	347	791.930488403228	23
7	350	795.155632926391	24
7	380	849.464980582621	25
7	387	863.752104327907	26
7	390	872.270806368218	27
7	406	901.411980052073	28
7	444	974.77567001264	29
7	453	988.037285371389	30
7	461	1006.593199994784	31
7	475	1027.380940695977	32
7	482	1038.235837469343	33
7	490	1051.854654596607	34
7	496	1068.457324359042	35
7	518	1115.114581022403	36
7	522	1125.050224164863	37
7	526	1131.588456756517	38
7	533	1145.997290192829	39
7	536	1155.655865416976	40
7	551	1179.480158523593	41
7	580	1287.669619001015	42
7	623	1397.203814762574	43
7	627	1403.471787420916	44
7	639	1422.174667731178	45
7	737	1646.052593848569	46
7	754	1672.645983898138	47
7	769	1725.173569549517	48
7	780	1746.894718634036	49
7	822	1840.228471909046	50
7	847	1896.387871278477	51
7	860	1920.059414409871	52
7	883	1965.473024415792	53
7	935	2056.852604836569	54
7	950	2119.077779893969	55
7	963	2148.080455696903	56
7	979	2193.689164674927	57
7	990	2219.878277341564	58
7	1009	2272.375387945966	59
7	1017	2299.072206357407	60
7	1021	2314.179784942103	61
7	1025	2323.85327808203	62
7	1039	2352.473961820584	63
7	1061	2410.291790491198	64
7	1081	2457.099948359269	65
7	1088	2464.026288258992	66
7	1102	2497.285207450237	67
8	133	360.864535828211	0
8	165	434.192491993633	0
8	168	437.368082119675	2.912871827783
8	185	473.418125660566	0
8	197	494.985859456131	0
8	215	533.662990720296	0
8	220	537.630898853706	0
8	254	576.885520165288	0
8	260	599.284869783182	0
8	265	607.970771654433	0
8	274	634.887930512541	0
8	277	639.653880988209	0
8	282	649.417160232028	0
8	296	679.740153657803	0
8	301	689.286028322773	5.536073623113
8	317	729.684251164739	0
8	333	765.453022773889	0
8	336	766.488247174704	0.056888221344
8	343	788.973306370394	0
8	347	791.930488403228	0
8	350	795.155632926391	0
8	361	805.850893600877	6.815542543279
8	368	817.544256606902	17.365419246874
8	375	830.540098774623	29.6124673532
8	380	849.464980582621	0
8	387	863.752104327907	0
8	390	872.270806368218	0
8	406	901.411980052073	0
8	444	974.77567001264	0
8	453	988.037285371389	0
8	461	1006.593199994784	0
8	468	1013.759998231638	2.462127475365
8	475	1027.380940695977	0
8	482	1038.235837469343	0
8	490	1051.854654596607	0
8	496	1068.457324359042	0
8	518	1115.114581022403	0
8	522	1125.050224164863	0
8	526	1131.588456756517	0
8	533	1145.997290192829	0
8	536	1155.655865416976	0
8	551	1179.480158523593	0
8	580	1287.669619001015	0
8	623	1397.203814762574	0
8	627	1403.471787420916	0
8	639	1422.174667731178	0
8	644	1463.315790888808	37.77383531177
8	649	1465.773819438067	5.964016769086
8	652	1469.41366492339	5.940881221713
8	661	1488.592452046785	20.334186956681
8	666	1492.81562950529	15.785301739382
8	683	1511.591994125874	27.858874680099
8	686	1530.212652692391	28.020080720607
8	691	1533.865267544143	20.040367470816
8	702	1554.158316114136	18.542792955007
8	705	1559.234531142747	14.399097574308
8	714	1584.45260502869	32.046947346775
8	719	1596.302700969786	41.87945144939
8	722	1601.889944243354	17.720998094828
8	723	1602.475542348373	12.095106574627
8	730	1619.592496801493	23.389697724814
8	731	1624.198294637078	23.16938767631
8	732	1629.871184429563	17.4519989748
8	737	1646.052593848569	0
8	754	1672.645983898138	0
8	769	1725.173569549517	0
8	772	1734.482097192335	0.196564298496
8	780	1746.894718634036	0
8	795	1779.450191011407	26.767225638233
8	802	1793.550840149479	40.130542210936
8	803	1796.524548516574	40.168373299765
8	808	1807.156430862105	30.663787766673
8	813	1815.880780785348	10.167524498644
8	822	1840.228471909046	0
8	847	1896.387871278477	0
8	854	1909.427760934306	6.58191638705
8	855	1909.78904728061	4.617633043219
8	860	1920.059414409871	0
8	863	1925.964251806711	2.518113223902
8	872	1946.388336033991	18.942157503151
8	883	1965.473024415792	0
8	906	1999.629204087073	25.018966287316
8	907	2002.009279952398	23.751964519435
8	910	2008.613004341834	15.687181683574
8	925	2025.904624729586	30.071836407355
8	926	2026.219584771624	12.256865285528
8	927	2029.571090317763	7.668793515987
8	935	2056.852604836569	0
8	950	2119.077779893969	0
8	953	2122.180149309408	2.29973257765
8	958	2129.407201680771	1.491460782839
8	963	2148.080455696903	0
8	966	2156.501049846157	5.979279299896
8	979	2193.689164674927	0
8	990	2219.878277341564	0
8	1009	2272.375387945966	0
8	1017	2299.072206357407	0
8	1021	2314.179784942103	0
8	1025	2323.85327808203	0
8	1039	2352.473961820584	0
8	1061	2410.291790491198	0
8	1081	2457.099948359269	0
8	1088	2464.026288258992	0
8	1093	2473.962590751661	8.737862968715
8	1102	2497.285207450237	0
9	134	360.99526626209	12
9	168	437.368082119675	13
9	171	446.248830685556	14
9	186	473.737387102519	15
9	198	498.372062713089	16
9	216	535.800038212238	17
9	225	546.473203800397	18
9	255	583.753442016302	19
9	263	605.215258691564	20
9	272	634.516832353974	21
9	275	638.39550991065	22
9	280	648.735453680245	23
9	283	649.841727562633	24
9	301	689.286028322773	25
9	306	698.696545720226	26
9	318	731.335531587745	27
9	336	766.488247174704	28
9	337	771.624137255877	29
9	344	790.677930386287	30
9	348	793.692639882115	31
9	361	805.850893600877	32
9	368	817.544256606902	33
9	375	830.540098774623	34
9	378	843.33424413381	35
9	385	859.345337114346	36
9	388	864.818201486838	37
9	399	882.2357604596	38
9	417	920.934451535035	39
9	445	975.079843266477	40
9	454	988.740264235458	41
9	468	1013.759998231638	42
9	469	1019.737448007155	43
9	478	1035.113756557761	44
9	483	1038.874940193249	45
9	491	1052.637354398125	46
9	499	1073.085575127159	47
9	519	1118.072379484393	48
9	523	1128.696394658773	49
9	527	1135.868576311563	50
9	534	1151.027800073635	51
9	541	1158.309320267296	52
9	552	1184.297435923599	53
9	581	1290.586520482747	54
9	624	1399.441574986073	55
9	630	1406.402079391956	56
9	644	1463.315790888808	57
9	649	1465.773819438067	58
9	652	1469.41366492339	59
9	661	1488.592452046785	60
9	666	1492.81562950529	61
9	683	1511.591994125874	62
9	686	1530.212652692391	63
9	691	1533.865267544143	64
9	702	1554.158316114136	65
9	705	1559.234531142747	66
9	714	1584.45260502869	67
9	719	1596.302700969786	68
9	722	1601.889944243354	69
9	723	1602.475542348373	70
9	730	1619.592496801493	71
9	731	1624.198294637078	72
9	732	1629.871184429563	73
9	733	1637.492420418683	74
9	738	1652.972585725019	75
9	755	1676.703641288935	76
9	772	1734.482097192335	77
9	773	1735.53880445356	78
9	795	1779.450191011407	79
9	802	1793.550840149479	80
9	803	1796.524548516574	81
9	808	1807.156430862105	82
9	813	1815.880780785348	83
9	816	1819.408437429934	84
9	829	1860.818240736203	85
9	854	1909.427760934306	86
9	855	1909.78904728061	87
9	858	1918.698832771156	88
9	863	1925.964251806711	89
9	872	1946.388336033991	90
9	879	1955.373104815903	91
9	906	1999.629204087073	92
9	907	2002.009279952398	93
9	910	2008.613004341834	94
9	925	2025.904624729586	95
9	926	2026.219584771624	96
9	927	2029.571090317763	97
9	930	2043.666289844931	98
9	940	2077.999691293616	99
9	953	2122.180149309408	100
9	958	2129.407201680771	101
9	959	2131.673464358382	102
9	966	2156.501049846157	103
9	967	2170.02244627384	104
9	980	2194.387000880287	105
9	993	2224.636169903205	106
9	1012	2281.873413522041	107
9	1018	2301.969997039124	108
9	1022	2317.494621010917	109
9	1026	2324.651636824447	110
9	1040	2353.36413652631	111
9	1062	2411.553588596472	112
9	1086	2461.39604986989	113
9	1093	2473.962590751661	114
9	1096	2485.880635703584	115
9	1103	2498.161523997102	116
10	134	360.99526626209	0.130730433879
10	168	437.368082119675	3.175590126042
10	171	446.248830685556	11.793620393664
10	186	473.737387102519	0.319261441953
10	198	498.372062713089	3.386203256958
10	216	535.800038212238	2.137047491942
10	225	546.473203800397	8.842304946691
10	255	583.753442016302	6.867921851014
10	263	605.215258691564	5.930388908382
10	272	634.516832353974	26.546060699541
10	275	638.39550991065	3.507579398109
10	280	648.735453680245	9.081572692036
10	283	649.841727562633	0.424567330605
10	301	689.286028322773	9.54587466497
10	306	698.696545720226	14.946591020566
10	318	731.335531587745	1.651280423006
10	336	766.488247174704	1.035224400815
10	337	771.624137255877	5.192778302517
10	344	790.677930386287	1.704624015893
10	348	793.692639882115	1.762151478887
10	361	805.850893600877	10.695260674486
10	368	817.544256606902	18.508905549304
10	375	830.540098774623	30.361261414595
10	378	843.33424413381	42.406612712387
10	385	859.345337114346	9.880356531725
10	388	864.818201486838	1.066097158931
10	399	882.2357604596	9.964954091382
10	417	920.934451535035	19.522471482962
10	445	975.079843266477	0.304173253837
10	454	988.740264235458	0.702978864069
10	468	1013.759998231638	7.166798236854
10	469	1019.737448007155	8.439577250882
10	478	1035.113756557761	7.732815861784
10	483	1038.874940193249	0.639102723906
10	491	1052.637354398125	0.782699801518
10	499	1073.085575127159	4.628250768117
10	519	1118.072379484393	2.95779846199
10	523	1128.696394658773	3.64617049391
10	527	1135.868576311563	4.280119555046
10	534	1151.027800073635	5.030509880806
10	541	1158.309320267296	2.65345485032
10	552	1184.297435923599	4.817277400006
10	581	1290.586520482747	2.916901481732
10	624	1399.441574986073	2.237760223499
10	630	1406.402079391956	2.93029197104
10	644	1463.315790888808	41.14112315763
10	649	1465.773819438067	40.231863861029
10	652	1469.41366492339	9.603862254409
10	661	1488.592452046785	25.119668345108
10	666	1492.81562950529	24.557364415186
10	683	1511.591994125874	34.561666359966
10	686	1530.212652692391	46.479533246616
10	691	1533.865267544143	31.672695572359
10	702	1554.158316114136	40.333416040809
10	705	1559.234531142747	23.619007983618
10	714	1584.45260502869	39.617171460251
10	719	1596.302700969786	43.897043287871
10	722	1601.889944243354	47.466694722958
10	723	1602.475542348373	18.306596199847
10	730	1619.592496801493	29.212061027747
10	731	1624.198294637078	27.995495560399
10	732	1629.871184429563	28.842277468795
10	733	1637.492420418683	25.07323496392
10	738	1652.972585725019	6.91999187645
10	755	1676.703641288935	4.057657390797
10	772	1734.482097192335	9.308527642818
10	773	1735.53880445356	1.253271559721
10	795	1779.450191011407	32.555472377371
10	802	1793.550840149479	40.867874776305
10	803	1796.524548516574	43.104250578031
10	808	1807.156430862105	50.800255645296
10	813	1815.880780785348	39.388137689916
10	816	1819.408437429934	13.69518114323
10	829	1860.818240736203	20.589768827157
10	854	1909.427760934306	13.039889655829
10	855	1909.78904728061	6.943202733354
10	858	1918.698832771156	13.527418533765
10	863	1925.964251806711	5.90483739684
10	872	1946.388336033991	22.942197451182
10	879	1955.373104815903	27.926926285063
10	906	1999.629204087073	34.156179671281
10	907	2002.009279952398	27.399042152641
10	910	2008.613004341834	30.355688908871
10	925	2025.904624729586	32.978802071326
10	926	2026.219584771624	30.386796449393
10	927	2029.571090317763	15.608370831667
10	930	2043.666289844931	21.763993043155
10	940	2077.999691293616	21.147086457047
10	953	2122.180149309408	3.102369415439
10	958	2129.407201680771	9.526784949013
10	959	2131.673464358382	3.75772346045
10	966	2156.501049846157	8.420594149254
10	967	2170.02244627384	19.500675727579
10	980	2194.387000880287	0.69783620536
10	993	2224.636169903205	4.757892561641
10	1012	2281.873413522041	9.498025576075
10	1018	2301.969997039124	2.897790681717
10	1022	2317.494621010917	3.314836068814
10	1026	2324.651636824447	0.798358742417
10	1040	2353.36413652631	0.890174705726
10	1062	2411.553588596472	1.261798105274
10	1086	2461.39604986989	4.296101510621
10	1093	2473.962590751661	9.936302492669
10	1096	2485.880635703584	20.655907920638
10	1103	2498.161523997102	0.876316546865
11	1104	2500	0.0892
12	1104	2500	0.0464

