version 2
run experiments_medium_game_mode1-1053-20230311-09:43:38-13956
attr configname experiments_medium_game_mode1
attr datetime 20230311-09:43:38
attr experiment experiments_medium_game_mode1
attr inifile omnetpp.ini
attr iterationvars "$0=6.5, $1=5, $2=100"
attr iterationvarsf 6.5,5,100-
attr measurement "$0=6.5, $1=5, $2=100"
attr network Network
attr processid 13956
attr repetition 3
attr replication #3
attr resultdir results
attr runnumber 1053
attr seedset 3
param *.boss.arrival_mean 20
param *.boss.service_mean 6.5
param *.minion.arrival_mean 10
param *.minion.service_mean 5
param *.player.recover_rate_x 100
param **.minion.arrival_distribution 0
param **.minion.service_distribution 0
param **.boss.arrival_distribution 0
param **.boss.service_distribution 0

vector 0 Network.player boss_defeated_stat:vector ETV
attr source signal_boss_defeated
vector 1 Network.player boss_jobs_queue_number_stat:vector ETV
attr source signal_boss_jobs_queue_number
vector 2 Network.player boss_response_time_stat:vector ETV
attr source signal_boss_response_time
vector 3 Network.player minion_jobs_number_stat:vector ETV
attr source signal_minion_jobs_number
vector 4 Network.player minion_jobs_queue_number_stat:vector ETV
attr source signal_minion_jobs_queue_number
vector 5 Network.player minion_waiting_time_stat:vector ETV
attr source signal_minion_waiting_time
vector 6 Network.player minion_defeated_stat:vector ETV
attr source signal_minion_defeated
vector 7 Network.player minion_response_time_stat:vector ETV
attr source signal_minion_response_time
vector 8 Network.player boss_jobs_number_stat:vector ETV
attr source signal_boss_jobs_number
vector 9 Network.player minion_recovered_stat:vector ETV
attr source signal_minion_recovered
vector 10 Network.player boss_waiting_time_stat:vector ETV
attr source signal_boss_waiting_time
vector 11 Network.player minion_throughput:vector ETV
attr source signal_minion_throughput
vector 12 Network.player boss_throughput:vector ETV
attr source signal_boss_throughput
0	159	361.195902021312	20
0	174	396.886936755524	21
0	175	397.101665789208	22
0	178	406.344152868729	23
0	182	414.569089808401	24
0	191	433.742478062024	25
0	215	498.543963978429	26
0	224	511.594606160073	27
0	237	538.656451095875	28
0	244	549.352051591863	29
0	245	552.919625744556	30
0	246	554.456352606729	31
0	249	566.111014019662	32
0	262	590.861825451736	33
0	272	606.100006866747	34
0	277	607.831537773002	35
0	315	712.175541556846	36
0	318	730.671786194026	37
0	324	736.354981981309	38
0	331	765.807081731922	39
0	363	841.798664799362	40
0	379	922.197615843223	41
0	386	933.468863451406	42
0	389	936.500912251907	43
0	390	938.450672000144	44
0	393	947.740763039195	45
0	394	948.335246454658	46
0	395	952.504706532458	47
0	415	1012.338480894336	48
0	418	1017.894046080508	49
0	430	1030.624274626011	50
0	438	1053.360310577255	51
0	439	1055.042466561105	52
0	445	1061.444560251327	53
0	450	1067.415112842335	54
0	469	1088.661140120729	55
0	472	1093.516316923217	56
0	477	1095.764330189018	57
0	488	1123.128869395286	58
0	494	1132.920345080876	59
0	503	1141.39057139398	60
0	524	1177.644280712018	61
0	568	1259.410679535928	62
0	569	1264.426333440626	63
0	570	1270.273573285833	64
0	586	1293.463049747374	65
0	591	1304.648575737828	66
0	592	1307.593555621522	67
0	610	1349.875722954647	68
0	619	1369.861537889318	69
0	639	1412.288982740775	70
0	647	1440.338595437782	71
0	654	1451.730334503103	72
0	657	1455.270857392725	73
0	665	1477.407234086467	74
0	696	1568.129605730834	75
0	708	1590.761169909	76
0	715	1603.448447051271	77
0	743	1683.141306191972	78
0	747	1689.807613869253	79
0	756	1719.74201884328	80
0	757	1720.281640679435	81
0	762	1727.645785148444	82
0	773	1746.0282368387	83
0	791	1788.033472898866	84
0	794	1788.825155217367	85
0	808	1803.077297275414	86
0	811	1810.810141293955	87
0	812	1811.974448645548	88
0	813	1812.166800098544	89
0	848	1922.218213421388	90
0	888	2057.00795585495	91
0	907	2083.801551725536	92
0	908	2084.726466701822	93
0	918	2118.601730336486	94
0	921	2121.279259911768	95
0	930	2144.660834229266	96
0	948	2175.935958537087	97
0	953	2178.271670256907	98
0	985	2238.600779362909	99
0	999	2261.332285851402	100
0	1016	2288.716623259516	101
0	1017	2291.417485597371	102
0	1020	2294.018319414662	103
0	1021	2295.589438780122	104
0	1022	2297.002804442403	105
0	1029	2306.456852012425	106
0	1040	2313.945887524828	107
0	1041	2317.995926490343	108
0	1086	2423.832277259087	109
0	1107	2462.936287583907	110
0	1114	2472.518528980841	111
0	1115	2475.203120997708	112
0	1120	2485.403270240541	113
1	159	361.195902021312	0
1	169	380.659473743649	0
1	173	395.971694417465	1
1	174	396.886936755524	1
1	175	397.101665789208	0
1	177	404.35044228479	0
1	178	406.344152868729	0
1	181	410.037356174797	0
1	182	414.569089808401	0
1	184	425.519679098172	0
1	191	433.742478062024	0
1	210	493.340900375065	0
1	212	493.458722537011	1
1	214	496.742594609582	2
1	215	498.543963978429	2
1	224	511.594606160073	1
1	226	519.107824800269	1
1	230	524.050395342014	2
1	232	528.76545634016	3
1	236	535.742612840699	4
1	237	538.656451095875	4
1	244	549.352051591863	3
1	245	552.919625744556	2
1	246	554.456352606729	1
1	249	566.111014019662	0
1	261	589.672238161967	0
1	262	590.861825451736	0
1	271	598.144708626378	0
1	272	606.100006866747	0
1	276	607.520627601297	0
1	277	607.831537773002	0
1	314	702.49001005566	0
1	315	712.175541556846	0
1	317	730.410353463151	0
1	318	730.671786194026	0
1	323	735.549137058382	0
1	324	736.354981981309	0
1	330	764.354773011734	0
1	331	765.807081731922	0
1	362	838.86047744023	0
1	363	841.798664799362	0
1	368	879.741882111558	0
1	370	882.113317559985	1
1	372	884.446492488943	2
1	374	888.24560307094	3
1	376	895.381730109802	4
1	379	922.197615843223	4
1	381	927.517978306195	4
1	386	933.468863451406	4
1	389	936.500912251907	3
1	390	938.450672000144	2
1	392	940.401529101434	2
1	393	947.740763039195	2
1	394	948.335246454658	1
1	395	952.504706532458	0
1	412	990.909014986853	0
1	415	1012.338480894336	0
1	417	1013.261047276616	0
1	418	1017.894046080508	0
1	425	1028.545887104851	0
1	430	1030.624274626011	0
1	435	1034.503025313914	0
1	437	1036.534772003394	1
1	438	1053.360310577255	1
1	439	1055.042466561105	0
1	442	1060.691130510771	0
1	445	1061.444560251327	0
1	447	1063.19383248497	0
1	450	1067.415112842335	0
1	468	1084.594332712561	0
1	469	1088.661140120729	0
1	471	1090.754167319039	0
1	472	1093.516316923217	0
1	474	1094.772215871149	0
1	477	1095.764330189018	0
1	485	1120.122180825996	0
1	488	1123.128869395286	0
1	491	1127.896198946203	0
1	493	1131.632484755457	1
1	494	1132.920345080876	1
1	503	1141.39057139398	0
1	523	1175.335185131008	0
1	524	1177.644280712018	0
1	563	1256.60543472736	0
1	565	1258.346007673972	1
1	567	1258.889412571991	2
1	568	1259.410679535928	2
1	569	1264.426333440626	1
1	570	1270.273573285833	0
1	581	1286.342301461403	0
1	583	1286.57494181929	1
1	585	1287.862513521532	2
1	586	1293.463049747374	2
1	591	1304.648575737828	1
1	592	1307.593555621522	0
1	609	1337.223720075614	0
1	610	1349.875722954647	0
1	616	1363.520401318974	0
1	619	1369.861537889318	0
1	636	1406.512882744487	0
1	639	1412.288982740775	0
1	644	1433.648475926042	0
1	646	1435.347326120521	1
1	647	1440.338595437782	1
1	651	1445.829455077947	1
1	654	1451.730334503103	1
1	657	1455.270857392725	0
1	662	1469.693661528508	0
1	665	1477.407234086467	0
1	695	1564.774017558306	0
1	696	1568.129605730834	0
1	705	1588.196429206383	0
1	708	1590.761169909	0
1	714	1600.231040489507	0
1	715	1603.448447051271	0
1	740	1682.208424127058	0
1	743	1683.141306191972	0
1	746	1686.419845939918	0
1	747	1689.807613869253	0
1	749	1707.679710106683	0
1	755	1716.345476470025	1
1	756	1719.74201884328	1
1	757	1720.281640679435	0
1	759	1720.55581185757	0
1	762	1727.645785148444	0
1	772	1745.64792178764	0
1	773	1746.0282368387	0
1	786	1779.449199170603	0
1	791	1788.033472898866	0
1	793	1788.294956596051	0
1	794	1788.825155217367	0
1	801	1797.29918631301	0
1	805	1798.359156213276	1
1	807	1799.172771781991	2
1	808	1803.077297275414	2
1	810	1806.766350733902	2
1	811	1810.810141293955	2
1	812	1811.974448645548	1
1	813	1812.166800098544	0
1	845	1917.923427135827	0
1	848	1922.218213421388	0
1	887	2052.509094390919	0
1	888	2057.00795585495	0
1	904	2075.308674587472	0
1	906	2082.099549429316	1
1	907	2083.801551725536	1
1	908	2084.726466701822	0
1	915	2108.685862315649	0
1	918	2118.601730336486	0
1	920	2121.076209533676	0
1	921	2121.279259911768	0
1	929	2142.723683495446	0
1	930	2144.660834229266	0
1	947	2169.304437475917	0
1	948	2175.935958537087	0
1	952	2177.228225124877	0
1	953	2178.271670256907	0
1	982	2234.76196218177	0
1	985	2238.600779362909	0
1	998	2260.983183628547	0
1	999	2261.332285851402	0
1	1003	2264.84038493309	0
1	1007	2268.90144810621	1
1	1009	2273.677289607649	2
1	1013	2285.719432706355	3
1	1015	2288.561711981572	4
1	1016	2288.716623259516	4
1	1017	2291.417485597371	3
1	1019	2293.558850252091	3
1	1020	2294.018319414662	3
1	1021	2295.589438780122	2
1	1022	2297.002804442403	1
1	1026	2298.239937262922	1
1	1029	2306.456852012425	1
1	1037	2312.094400186417	1
1	1040	2313.945887524828	1
1	1041	2317.995926490343	0
1	1085	2421.021190455418	0
1	1086	2423.832277259087	0
1	1096	2446.030079873069	0
1	1100	2451.694476261001	1
1	1104	2455.678417661446	2
1	1106	2458.010288498061	3
1	1107	2462.936287583907	3
1	1114	2472.518528980841	2
1	1115	2475.203120997708	1
1	1120	2485.403270240541	0
2	159	361.195902021312	13.384057012715
2	174	396.886936755524	16.227463011875
2	175	397.101665789208	1.129971371743
2	178	406.344152868729	1.993710583939
2	182	414.569089808401	4.531733633604
2	191	433.742478062024	8.222798963852
2	215	498.543963978429	5.203063603364
2	224	511.594606160073	18.135883623062
2	237	538.656451095875	41.913856486293
2	244	549.352051591863	30.244226791594
2	245	552.919625744556	28.869230402542
2	246	554.456352606729	25.690896266569
2	249	566.111014019662	30.368401178963
2	262	590.861825451736	1.189587289769
2	272	606.100006866747	7.955298240369
2	277	607.831537773002	0.310910171705
2	315	712.175541556846	9.685531501186
2	318	730.671786194026	0.261432730875
2	324	736.354981981309	0.805844922927
2	331	765.807081731922	1.452308720188
2	363	841.798664799362	2.938187359132
2	379	922.197615843223	42.455733731665
2	386	933.468863451406	51.355545891421
2	389	936.500912251907	52.054419762964
2	390	938.450672000144	50.205068929204
2	393	947.740763039195	52.359032929393
2	394	948.335246454658	20.817268148463
2	395	952.504706532458	12.103177431024
2	415	1012.338480894336	21.429465907483
2	418	1017.894046080508	4.632998803892
2	430	1030.624274626011	2.07838752116
2	438	1053.360310577255	18.857285263341
2	439	1055.042466561105	18.507694557711
2	445	1061.444560251327	0.753429740556
2	450	1067.415112842335	4.221280357365
2	469	1088.661140120729	4.066807408168
2	472	1093.516316923217	2.762149604178
2	477	1095.764330189018	0.992114317869
2	488	1123.128869395286	3.00668856929
2	494	1132.920345080876	5.024146134673
2	503	1141.39057139398	9.758086638523
2	524	1177.644280712018	2.30909558101
2	568	1259.410679535928	2.805244808568
2	569	1264.426333440626	6.080325766654
2	570	1270.273573285833	11.384160713842
2	586	1293.463049747374	7.120748285971
2	591	1304.648575737828	18.073633918538
2	592	1307.593555621522	19.73104209999
2	610	1349.875722954647	12.652002879033
2	619	1369.861537889318	6.341136570344
2	639	1412.288982740775	5.776099996288
2	647	1440.338595437782	6.69011951174
2	654	1451.730334503103	16.383008382582
2	657	1455.270857392725	9.441402314778
2	665	1477.407234086467	7.713572557959
2	696	1568.129605730834	3.355588172528
2	708	1590.761169909	2.564740702617
2	715	1603.448447051271	3.217406561764
2	743	1683.141306191972	0.932882064914
2	747	1689.807613869253	3.387767929335
2	756	1719.74201884328	12.062308736597
2	757	1720.281640679435	3.93616420941
2	762	1727.645785148444	7.089973290874
2	773	1746.0282368387	0.38031505106
2	791	1788.033472898866	8.584273728263
2	794	1788.825155217367	0.530198621316
2	808	1803.077297275414	5.778110962404
2	811	1810.810141293955	12.450985080679
2	812	1811.974448645548	12.801676863557
2	813	1812.166800098544	5.400449364642
2	848	1922.218213421388	4.294786285561
2	888	2057.00795585495	4.498861464031
2	907	2083.801551725536	8.492877138064
2	908	2084.726466701822	2.626917272506
2	918	2118.601730336486	9.915868020837
2	921	2121.279259911768	0.203050378092
2	930	2144.660834229266	1.93715073382
2	948	2175.935958537087	6.63152106117
2	953	2178.271670256907	1.04344513203
2	985	2238.600779362909	3.838817181139
2	999	2261.332285851402	0.349102222855
2	1016	2288.716623259516	23.876238326426
2	1017	2291.417485597371	22.516037491161
2	1020	2294.018319414662	20.341029807013
2	1021	2295.589438780122	9.870006073767
2	1022	2297.002804442403	8.441092460831
2	1029	2306.456852012425	12.898001760334
2	1040	2313.945887524828	15.705950261906
2	1041	2317.995926490343	5.901526303926
2	1086	2423.832277259087	2.811086803669
2	1107	2462.936287583907	16.906207710838
2	1114	2472.518528980841	20.82405271984
2	1115	2475.203120997708	19.524703336262
2	1120	2485.403270240541	27.39298174248
3	161	361.339663494602	1
3	164	367.9828784262	1
3	167	379.513301138535	1
3	171	394.129264259982	2
3	186	425.765741351908	2
3	188	427.517811650595	3
3	190	433.606808067719	4
3	193	448.069818965425	5
3	197	456.351270045832	4
3	199	456.561563782591	5
3	203	472.719413120029	4
3	206	474.172100886485	4
3	217	502.850351250119	3
3	219	504.086422382937	4
3	221	506.614196716074	5
3	223	510.323349281481	6
3	228	522.461553090038	7
3	234	533.592296136414	8
3	239	540.522669763452	9
3	241	546.894682894063	10
3	243	549.159432880295	11
3	248	566.096778961453	12
3	254	576.022142600914	10
3	256	579.441227499843	11
3	258	580.999566973229	12
3	265	594.209352549086	11
3	267	594.753402569665	12
3	274	606.880926727436	11
3	279	608.676596580058	12
3	282	612.645161330649	12
3	289	632.76123856948	8
3	292	636.83562207702	8
3	294	637.217093321776	9
3	305	675.410655830787	1
3	307	677.865079647084	2
3	311	687.662234629069	1
3	320	730.758287029875	1
3	326	760.778512054772	1
3	328	762.676109818951	2
3	334	777.263713199375	2
3	336	778.560288534075	3
3	341	795.990510267887	1
3	344	803.875283134171	1
3	347	809.094828093027	1
3	349	814.571875706268	2
3	352	820.574063313727	2
3	356	829.945582910592	1
3	359	835.06437174103	1
3	365	850.643575561551	1
3	378	903.906946611633	1
3	383	930.044493005324	2
3	385	931.999341308693	3
3	388	935.126957832346	4
3	399	967.986976557275	3
3	401	971.614401115977	4
3	404	977.048754828475	4
3	410	990.426205312561	1
3	414	995.943592048176	2
3	421	1022.382591948731	2
3	427	1028.602936522879	1
3	429	1028.810805650015	2
3	433	1033.490433093267	2
3	444	1061.002901677937	2
3	449	1067.267288635778	3
3	454	1075.724465931961	2
3	456	1076.082481560829	3
3	459	1077.735018370196	3
3	461	1078.615384691453	4
3	466	1081.67931445012	2
3	476	1094.866445323894	3
3	482	1111.881230236583	1
3	487	1121.992740047389	1
3	496	1134.933958298035	1
3	498	1135.217004455986	2
3	500	1135.363051972741	3
3	502	1138.932231129405	4
3	505	1144.787715153364	5
3	509	1147.283264483279	4
3	515	1155.69337419801	1
3	517	1156.259289260176	2
3	519	1163.204706882349	3
3	521	1170.612254816977	4
3	526	1186.949025027116	5
3	530	1192.333899696592	4
3	533	1197.613977193519	4
3	535	1198.108177697727	5
3	537	1198.606263427609	6
3	540	1207.102040070224	6
3	542	1215.572599614181	7
3	544	1231.844375578986	8
3	547	1234.910810938707	8
3	550	1236.116699961997	8
3	556	1247.942971155498	5
3	561	1251.188053035955	3
3	573	1275.249598754447	3
3	578	1285.512833833394	1
3	588	1294.031758144982	1
3	590	1300.819020909668	2
3	596	1310.93961002616	1
3	599	1318.003070602428	1
3	602	1326.696373353387	1
3	605	1332.884941883537	1
3	607	1336.650535836356	2
3	613	1359.16404557901	2
3	618	1366.636648785843	2
3	621	1375.945051716496	3
3	623	1386.322276825134	4
3	627	1395.569428066275	3
3	629	1398.224964158521	4
3	632	1404.092529556116	4
3	634	1404.723363852476	5
3	638	1411.263528282476	6
3	642	1420.224574092024	6
3	649	1442.157175674872	7
3	653	1450.186517457622	8
3	656	1452.524777592798	9
3	664	1471.364551841377	7
3	674	1500.292962552547	1
3	677	1514.628496105396	1
3	679	1515.391585098206	2
3	683	1520.075491215183	1
3	686	1529.117938344292	1
3	689	1536.955543686046	1
3	692	1537.272009496688	1
3	698	1568.170486611142	1
3	700	1579.114421679445	2
3	702	1580.500100178335	3
3	707	1590.644250055458	3
3	710	1590.825644943243	4
3	718	1610.664425130129	2
3	721	1618.936633049524	2
3	725	1647.347486492507	1
3	728	1651.645264029249	1
3	730	1657.544440275635	2
3	734	1667.875743443595	1
3	737	1678.961085905515	1
3	742	1682.270965130991	1
3	751	1708.084792584536	1
3	753	1713.623104352338	2
3	761	1723.283784264192	3
3	764	1728.055282631709	4
3	766	1731.950005401017	5
3	768	1733.335643327318	6
3	770	1737.184569819368	7
3	775	1746.430995735594	8
3	779	1749.876436639148	7
3	781	1750.623721910651	8
3	788	1782.186823052272	6
3	790	1786.678947997071	7
3	796	1791.887006369677	8
3	803	1797.950978938951	6
3	817	1827.242154249278	5
3	824	1850.542439783431	1
3	827	1870.004880988581	1
3	830	1873.144783037164	1
3	833	1884.822081319794	1
3	835	1885.778595246252	2
3	837	1885.811529056579	3
3	839	1897.708087929202	4
3	847	1920.744293764123	1
3	851	1932.417776871576	1
3	854	1957.658186564513	1
3	856	1958.145638604626	2
3	858	1958.20490747963	3
3	861	1962.041132941032	3
3	866	1972.339259434377	1
3	869	1996.972662773382	1
3	872	2001.837521535633	1
3	875	2022.651661072584	1
3	878	2031.708678368501	1
3	880	2039.16582307412	2
3	883	2048.602623725115	2
3	885	2051.296746386859	3
3	891	2060.450138024586	3
3	893	2061.864559880863	4
3	896	2065.608353002928	4
3	900	2073.528318068424	3
3	902	2074.252666708182	4
3	911	2094.944618720664	4
3	917	2111.075776948067	3
3	923	2121.523496411099	4
3	932	2145.763574788525	1
3	935	2151.397617746221	1
3	937	2153.562706682703	2
3	941	2158.8277209331	1
3	944	2161.192638793574	1
3	950	2176.623459025381	1
3	955	2181.362624258206	2
3	957	2184.414138255062	3
3	959	2189.569960956599	4
3	962	2192.862153177103	4
3	968	2214.505848794852	1
3	970	2214.739026256483	2
3	974	2216.997427399395	1
3	977	2228.158970210153	1
3	980	2233.589270654671	1
3	984	2235.134555999138	2
3	989	2245.5746372874	1
3	992	2246.434071313046	1
3	994	2253.60115613332	2
3	1001	2264.722149296945	1
3	1005	2268.784290434962	2
3	1011	2282.192260561595	3
3	1024	2297.26438804666	4
3	1028	2306.451312004043	5
3	1031	2307.906601523895	6
3	1033	2308.451575159593	7
3	1035	2310.57992847033	8
3	1039	2313.938378685859	9
3	1043	2319.089880690129	10
3	1048	2332.875221144699	8
3	1055	2348.332552859931	4
3	1058	2353.692697809273	4
3	1060	2356.62042384619	5
3	1062	2358.091024437805	6
3	1064	2359.250582496203	7
3	1067	2366.186839445675	7
3	1071	2392.876483049199	6
3	1073	2394.55395121754	7
3	1075	2395.905132468107	8
3	1077	2396.699003818489	9
3	1079	2405.987835363148	10
3	1088	2431.543350033688	7
3	1091	2434.969970675909	7
3	1093	2436.854714053433	8
3	1098	2446.703873746544	8
3	1102	2453.818389630889	9
3	1109	2464.591085000307	10
3	1111	2466.762044446235	11
3	1113	2467.46333134511	12
3	1117	2475.219092225462	13
3	1119	2479.611011255182	14
3	1124	2495.728823675633	13
3	1126	2499.804357768263	14
4	161	361.339663494602	0
4	162	365.120901747532	0
4	164	367.9828784262	0
4	165	370.118221488304	0
4	167	379.513301138535	0
4	171	394.129264259982	1
4	179	406.391439609398	1
4	186	425.765741351908	1
4	188	427.517811650595	2
4	190	433.606808067719	3
4	193	448.069818965425	4
4	194	450.598736234849	4
4	195	455.364211368256	3
4	197	456.351270045832	3
4	199	456.561563782591	4
4	200	457.582646485799	4
4	201	458.576771932753	3
4	203	472.719413120029	3
4	204	473.465662172282	3
4	206	474.172100886485	3
4	207	479.881980285495	3
4	208	481.110837282745	2
4	217	502.850351250119	2
4	219	504.086422382937	3
4	221	506.614196716074	4
4	223	510.323349281481	5
4	228	522.461553090038	6
4	234	533.592296136414	7
4	239	540.522669763452	8
4	241	546.894682894063	9
4	243	549.159432880295	10
4	248	566.096778961453	11
4	250	568.034853160613	11
4	251	571.338881534393	10
4	252	575.204035740354	9
4	254	576.022142600914	9
4	256	579.441227499843	10
4	258	580.999566973229	11
4	259	587.695356081156	11
4	263	591.023943843138	10
4	265	594.209352549086	10
4	267	594.753402569665	11
4	268	595.920529594981	11
4	269	596.257025436032	10
4	274	606.880926727436	10
4	279	608.676596580058	11
4	280	609.535306945564	11
4	282	612.645161330649	11
4	283	619.885276506754	11
4	284	620.156694593984	10
4	285	620.200464261876	9
4	286	627.948537299423	8
4	287	629.893611774506	7
4	289	632.76123856948	7
4	290	636.757092653353	7
4	292	636.83562207702	7
4	294	637.217093321776	8
4	295	640.488185624075	8
4	296	645.731647443392	7
4	297	654.11063591442	6
4	298	658.673432230508	5
4	299	659.769386676281	4
4	300	660.16307398454	3
4	301	664.684933424912	2
4	302	670.027124198508	1
4	303	673.94339713502	0
4	305	675.410655830787	0
4	307	677.865079647084	1
4	308	678.969882372652	1
4	309	681.972642381276	0
4	311	687.662234629069	0
4	312	690.930745868789	0
4	320	730.758287029875	0
4	321	734.341175502001	0
4	326	760.778512054772	0
4	328	762.676109818951	1
4	332	771.323052264098	1
4	334	777.263713199375	1
4	336	778.560288534075	2
4	337	786.071274441963	2
4	338	786.071334632539	1
4	339	786.701169417828	0
4	341	795.990510267887	0
4	342	797.408819129708	0
4	344	803.875283134171	0
4	345	804.466534681895	0
4	347	809.094828093027	0
4	349	814.571875706268	1
4	350	815.32284321129	1
4	352	820.574063313727	1
4	353	824.382098888002	1
4	354	826.34421689411	0
4	356	829.945582910592	0
4	357	831.532548677899	0
4	359	835.06437174103	0
4	360	836.686076801904	0
4	365	850.643575561551	0
4	366	855.456730963182	0
4	378	903.906946611633	0
4	383	930.044493005324	1
4	385	931.999341308693	2
4	388	935.126957832346	3
4	396	958.449231883558	3
4	397	962.903067567508	2
4	399	967.986976557275	2
4	401	971.614401115977	3
4	402	975.442004288357	3
4	404	977.048754828475	3
4	405	981.243019427872	3
4	406	982.644736119012	2
4	407	984.42967444814	1
4	408	987.492912555866	0
4	410	990.426205312561	0
4	414	995.943592048176	1
4	419	1019.35244759963	1
4	421	1022.382591948731	1
4	422	1024.018631683616	1
4	423	1024.484294225232	0
4	427	1028.602936522879	0
4	429	1028.810805650015	1
4	431	1033.009079809421	1
4	433	1033.490433093267	1
4	440	1059.680980000515	1
4	444	1061.002901677937	1
4	449	1067.267288635778	2
4	451	1067.760414455438	2
4	452	1069.695915233443	1
4	454	1075.724465931961	1
4	456	1076.082481560829	2
4	457	1077.096276518888	2
4	459	1077.735018370196	2
4	461	1078.615384691453	3
4	462	1078.737286751659	3
4	463	1079.08895649076	2
4	464	1079.678335737038	1
4	466	1081.67931445012	1
4	476	1094.866445323894	2
4	478	1098.563937123728	2
4	479	1099.212743018547	1
4	480	1103.185986538857	0
4	482	1111.881230236583	0
4	483	1116.792400031368	0
4	487	1121.992740047389	0
4	489	1123.871288516935	0
4	496	1134.933958298035	0
4	498	1135.217004455986	1
4	500	1135.363051972741	2
4	502	1138.932231129405	3
4	505	1144.787715153364	4
4	506	1144.825417178172	4
4	507	1145.345297993842	3
4	509	1147.283264483279	3
4	510	1151.610590123407	3
4	511	1153.019481859478	2
4	512	1154.175284831708	1
4	513	1154.998400312237	0
4	515	1155.69337419801	0
4	517	1156.259289260176	1
4	519	1163.204706882349	2
4	521	1170.612254816977	3
4	526	1186.949025027116	4
4	527	1190.662358951208	4
4	528	1191.640728361665	3
4	530	1192.333899696592	3
4	531	1197.339540814319	3
4	533	1197.613977193519	3
4	535	1198.108177697727	4
4	537	1198.606263427609	5
4	538	1206.357685511833	5
4	540	1207.102040070224	5
4	542	1215.572599614181	6
4	544	1231.844375578986	7
4	545	1233.792519466377	7
4	547	1234.910810938707	7
4	548	1235.1493255457	7
4	550	1236.116699961997	7
4	551	1238.963104489794	7
4	552	1243.17000943477	6
4	553	1243.646222936669	5
4	554	1247.712999310839	4
4	556	1247.942971155498	4
4	557	1249.324399160648	4
4	558	1249.701990532983	3
4	559	1250.730682811486	2
4	561	1251.188053035955	2
4	571	1273.265571600604	2
4	573	1275.249598754447	2
4	574	1275.864226482722	2
4	575	1281.247720728843	1
4	576	1284.00644320928	0
4	578	1285.512833833394	0
4	579	1286.295348505362	0
4	588	1294.031758144982	0
4	590	1300.819020909668	1
4	593	1307.608130133796	1
4	594	1308.66741787539	0
4	596	1310.93961002616	0
4	597	1314.444064642034	0
4	599	1318.003070602428	0
4	600	1321.376073144147	0
4	602	1326.696373353387	0
4	603	1329.800454675129	0
4	605	1332.884941883537	0
4	607	1336.650535836356	1
4	611	1357.737002123885	1
4	613	1359.16404557901	1
4	614	1360.937010667551	1
4	618	1366.636648785843	1
4	621	1375.945051716496	2
4	623	1386.322276825134	3
4	624	1390.521455019005	3
4	625	1390.584113072619	2
4	627	1395.569428066275	2
4	629	1398.224964158521	3
4	630	1400.972787940535	3
4	632	1404.092529556116	3
4	634	1404.723363852476	4
4	638	1411.263528282476	5
4	640	1415.74514461809	5
4	642	1420.224574092024	5
4	649	1442.157175674872	6
4	653	1450.186517457622	7
4	656	1452.524777592798	8
4	658	1455.835469228314	8
4	659	1456.887156571389	7
4	660	1459.323403010182	6
4	664	1471.364551841377	6
4	666	1478.130354203565	6
4	667	1487.62232776883	5
4	668	1489.892317506463	4
4	669	1490.891247605251	3
4	670	1492.17596375521	2
4	671	1495.597999014912	1
4	672	1495.749186804233	0
4	674	1500.292962552547	0
4	675	1510.588485738988	0
4	677	1514.628496105396	0
4	679	1515.391585098206	1
4	680	1517.17273542347	1
4	681	1517.905722229986	0
4	683	1520.075491215183	0
4	684	1520.98879765729	0
4	686	1529.117938344292	0
4	687	1530.466364406323	0
4	689	1536.955543686046	0
4	690	1537.159589497433	0
4	692	1537.272009496688	0
4	693	1541.796281942518	0
4	698	1568.170486611142	0
4	700	1579.114421679445	1
4	702	1580.500100178335	2
4	703	1584.807094630837	2
4	707	1590.644250055458	2
4	710	1590.825644943243	3
4	711	1592.979944233226	3
4	712	1594.361313338467	2
4	716	1603.585750573494	1
4	718	1610.664425130129	1
4	719	1617.390361912351	1
4	721	1618.936633049524	1
4	722	1620.409082477252	1
4	723	1624.351940829013	0
4	725	1647.347486492507	0
4	726	1648.037812313676	0
4	728	1651.645264029249	0
4	730	1657.544440275635	1
4	731	1659.152359677814	1
4	732	1666.299782049151	0
4	734	1667.875743443595	0
4	735	1672.048807267146	0
4	737	1678.961085905515	0
4	738	1680.087027077161	0
4	742	1682.270965130991	0
4	744	1686.123204685383	0
4	751	1708.084792584536	0
4	753	1713.623104352338	1
4	761	1723.283784264192	2
4	764	1728.055282631709	3
4	766	1731.950005401017	4
4	768	1733.335643327318	5
4	770	1737.184569819368	6
4	775	1746.430995735594	7
4	776	1746.916729003566	7
4	777	1749.790155450127	6
4	779	1749.876436639148	6
4	781	1750.623721910651	7
4	782	1753.521493798167	7
4	783	1755.60104718876	6
4	784	1766.445224631093	5
4	788	1782.186823052272	5
4	790	1786.678947997071	6
4	796	1791.887006369677	7
4	797	1793.822660715538	7
4	798	1794.594399691951	6
4	799	1795.185203032405	5
4	803	1797.950978938951	5
4	814	1821.474230228833	5
4	815	1824.339957786756	4
4	817	1827.242154249278	4
4	818	1828.38908409383	4
4	819	1833.923407469764	3
4	820	1840.505553676826	2
4	821	1841.731570020606	1
4	822	1842.310335638095	0
4	824	1850.542439783431	0
4	825	1853.280626618864	0
4	827	1870.004880988581	0
4	828	1870.466847643123	0
4	830	1873.144783037164	0
4	831	1878.125326153251	0
4	833	1884.822081319794	0
4	835	1885.778595246252	1
4	837	1885.811529056579	2
4	839	1897.708087929202	3
4	840	1901.79746806947	3
4	841	1904.175513024934	2
4	842	1905.255716521972	1
4	843	1905.363895054136	0
4	847	1920.744293764123	0
4	849	1922.645458525307	0
4	851	1932.417776871576	0
4	852	1951.669110484744	0
4	854	1957.658186564513	0
4	856	1958.145638604626	1
4	858	1958.20490747963	2
4	859	1959.227527629995	2
4	861	1962.041132941032	2
4	862	1966.330624100851	2
4	863	1971.581599667373	1
4	864	1971.740012073316	0
4	866	1972.339259434377	0
4	867	1976.296117135369	0
4	869	1996.972662773382	0
4	870	2001.458277373669	0
4	872	2001.837521535633	0
4	873	2007.803095430382	0
4	875	2022.651661072584	0
4	876	2027.02666262939	0
4	878	2031.708678368501	0
4	880	2039.16582307412	1
4	881	2048.206135892036	1
4	883	2048.602623725115	1
4	885	2051.296746386859	2
4	889	2058.634678458558	2
4	891	2060.450138024586	2
4	893	2061.864559880863	3
4	894	2065.317168173464	3
4	896	2065.608353002928	3
4	897	2072.103661409452	3
4	898	2073.434089268666	2
4	900	2073.528318068424	2
4	902	2074.252666708182	3
4	909	2094.069843830419	3
4	911	2094.944618720664	3
4	912	2101.762016693085	3
4	913	2103.031399676253	2
4	917	2111.075776948067	2
4	923	2121.523496411099	3
4	924	2130.299408008469	3
4	925	2136.137713707701	2
4	926	2136.238238931335	1
4	927	2138.252990486164	0
4	932	2145.763574788525	0
4	933	2146.596768496763	0
4	935	2151.397617746221	0
4	937	2153.562706682703	1
4	938	2154.256001253897	1
4	939	2155.394258103267	0
4	941	2158.8277209331	0
4	942	2160.332142668832	0
4	944	2161.192638793574	0
4	945	2161.542599698057	0
4	950	2176.623459025381	0
4	955	2181.362624258206	1
4	957	2184.414138255062	2
4	959	2189.569960956599	3
4	960	2190.554904745981	3
4	962	2192.862153177103	3
4	963	2197.476101050728	3
4	964	2198.653334966083	2
4	965	2199.646073825675	1
4	966	2201.520411335788	0
4	968	2214.505848794852	0
4	970	2214.739026256483	1
4	971	2215.169283042454	1
4	972	2216.344168720062	0
4	974	2216.997427399395	0
4	975	2218.270645422485	0
4	977	2228.158970210153	0
4	978	2232.062443785101	0
4	980	2233.589270654671	0
4	984	2235.134555999138	1
4	986	2239.400378036792	1
4	987	2241.620985066571	0
4	989	2245.5746372874	0
4	990	2245.746671867493	0
4	992	2246.434071313046	0
4	994	2253.60115613332	1
4	995	2257.83449477874	1
4	996	2259.3023193903	0
4	1001	2264.722149296945	0
4	1005	2268.784290434962	1
4	1011	2282.192260561595	2
4	1024	2297.26438804666	3
4	1028	2306.451312004043	4
4	1031	2307.906601523895	5
4	1033	2308.451575159593	6
4	1035	2310.57992847033	7
4	1039	2313.938378685859	8
4	1043	2319.089880690129	9
4	1044	2322.848168735329	9
4	1045	2328.374158992982	8
4	1046	2328.672753728815	7
4	1048	2332.875221144699	7
4	1049	2335.806649981066	7
4	1050	2338.931894601464	6
4	1051	2340.212904752683	5
4	1052	2341.193685426016	4
4	1053	2345.925497233842	3
4	1055	2348.332552859931	3
4	1056	2352.99911426135	3
4	1058	2353.692697809273	3
4	1060	2356.62042384619	4
4	1062	2358.091024437805	5
4	1064	2359.250582496203	6
4	1065	2365.165777686788	6
4	1067	2366.186839445675	6
4	1068	2388.958249074424	6
4	1069	2392.858430544693	5
4	1071	2392.876483049199	5
4	1073	2394.55395121754	6
4	1075	2395.905132468107	7
4	1077	2396.699003818489	8
4	1079	2405.987835363148	9
4	1080	2415.140450034173	9
4	1081	2417.482036044202	8
4	1082	2419.40794841936	7
4	1083	2419.47439104168	6
4	1088	2431.543350033688	6
4	1089	2432.672033763676	6
4	1091	2434.969970675909	6
4	1093	2436.854714053433	7
4	1094	2439.580555083255	7
4	1098	2446.703873746544	7
4	1102	2453.818389630889	8
4	1109	2464.591085000307	9
4	1111	2466.762044446235	10
4	1113	2467.46333134511	11
4	1117	2475.219092225462	12
4	1119	2479.611011255182	13
4	1121	2485.514117329445	13
4	1122	2485.929504510622	12
4	1124	2495.728823675633	12
4	1126	2499.804357768263	13
5	161	361.339663494602	0
5	164	367.9828784262	0
5	167	379.513301138535	0
5	175	397.101665789208	16.442192045559
5	178	406.344152868729	12.214888608747
5	179	406.391439609398	2.040997324608
5	182	414.569089808401	4.531733633604
5	191	433.742478062024	8.222798963852
5	194	450.598736234849	24.832994882941
5	195	455.364211368256	27.846399717661
5	200	457.582646485799	23.97583841808
5	201	458.576771932753	10.506952967328
5	204	473.465662172282	17.11439212645
5	207	479.881980285495	23.320416502904
5	208	481.110837282745	8.391424162716
5	249	566.111014019662	91.938913133177
5	250	568.034853160613	74.693952785548
5	251	571.338881534393	68.488530284274
5	252	575.204035740354	71.117613357417
5	259	587.695356081156	81.081159365082
5	262	590.861825451736	80.538476170255
5	263	591.023943843138	68.5623907531
5	268	595.920529594981	62.328233458567
5	269	596.257025436032	55.73435567258
5	272	606.100006866747	59.205323972684
5	277	607.831537773002	58.672104892707
5	280	609.535306945564	43.438527984111
5	283	619.885276506754	43.86313390584
5	284	620.156694593984	40.715467094141
5	285	620.200464261876	39.200897288647
5	286	627.948537299423	38.276299137456
5	287	629.893611774506	35.68425922542
5	290	636.757092653353	42.003690083688
5	295	640.488185624075	42.343476997697
5	296	645.731647443392	38.850720715956
5	297	654.11063591442	46.590008313123
5	298	658.673432230508	49.99683565045
5	299	659.769386676281	47.124225345632
5	300	660.16307398454	27.40183541506
5	301	664.684933424912	27.849311347892
5	302	670.027124198508	32.810030876732
5	305	675.410655830787	0
5	308	678.969882372652	1.104802725568
5	311	687.662234629069	0
5	320	730.758287029875	0
5	326	760.778512054772	0
5	331	765.807081731922	3.130971912971
5	332	771.323052264098	6.968279252364
5	337	786.071274441963	8.807561242588
5	338	786.071334632539	7.511046098464
5	341	795.990510267887	0
5	344	803.875283134171	0
5	347	809.094828093027	0
5	350	815.32284321129	0.750967505022
5	353	824.382098888002	3.808035574275
5	356	829.945582910592	0
5	359	835.06437174103	0
5	365	850.643575561551	0
5	395	952.504706532458	48.597759920825
5	396	958.449231883558	28.404738878234
5	397	962.903067567508	30.903726258815
5	402	975.442004288357	40.315046456011
5	405	981.243019427872	13.256042870597
5	406	982.644736119012	11.030335003035
5	407	984.42967444814	7.380919619665
5	410	990.426205312561	0
5	415	1012.338480894336	21.429465907483
5	418	1017.894046080508	21.950454032332
5	419	1019.35244759963	6.091400323014
5	422	1024.018631683616	1.636039734885
5	430	1030.624274626011	2.021338103132
5	431	1033.009079809421	4.198274159406
5	439	1055.042466561105	21.552033467838
5	440	1059.680980000515	25.177954686601
5	445	1061.444560251327	0.753429740556
5	450	1067.415112842335	6.412211164398
5	451	1067.760414455438	4.566581970468
5	452	1069.695915233443	2.428626597665
5	457	1077.096276518888	1.371810586927
5	462	1078.737286751659	2.65480519083
5	463	1079.08895649076	1.353938120564
5	464	1079.678335737038	1.062951045585
5	469	1088.661140120729	6.981825670609
5	472	1093.516316923217	8.921984210656
5	477	1095.764330189018	5.010162869979
5	478	1098.563937123728	3.791721252579
5	479	1099.212743018547	4.346297694653
5	482	1111.881230236583	0
5	488	1123.128869395286	1.136129347897
5	503	1141.39057139398	6.456613095945
5	506	1144.825417178172	9.608412722186
5	507	1145.345297993842	9.982246021101
5	510	1151.610590123407	12.678358994002
5	511	1153.019481859478	8.231766706114
5	512	1154.175284831708	6.892020348429
5	515	1155.69337419801	0
5	524	1177.644280712018	21.384991451842
5	527	1190.662358951208	27.457652068859
5	528	1191.640728361665	21.028473544688
5	531	1197.339540814319	22.004355683311
5	538	1206.357685511833	19.408660484717
5	545	1233.792519466377	41.458619769785
5	548	1235.1493255457	37.535348352181
5	551	1238.963104489794	40.854926792067
5	552	1243.17000943477	44.563746007161
5	553	1243.646222936669	36.544182866445
5	554	1247.712999310839	32.140399696658
5	557	1249.324399160648	17.480023581662
5	558	1249.701990532983	14.791179594276
5	559	1250.730682811486	14.613982849489
5	570	1270.273573285833	22.330602130335
5	571	1273.265571600604	22.077518564649
5	574	1275.864226482722	19.258791755362
5	575	1281.247720728843	5.998121974396
5	578	1285.512833833394	0
5	592	1307.593555621522	13.56179747654
5	593	1307.608130133796	6.789109224128
5	596	1310.93961002616	0
5	599	1318.003070602428	0
5	602	1326.696373353387	0
5	605	1332.884941883537	0
5	610	1349.875722954647	13.225187118291
5	611	1357.737002123885	20.513282048271
5	614	1360.937010667551	1.772965088541
5	619	1369.861537889318	6.341136570344
5	624	1390.521455019005	23.884806233162
5	625	1390.584113072619	14.639061356123
5	630	1400.972787940535	14.650511115401
5	639	1412.288982740775	16.7195546745
5	640	1415.74514461809	17.520180459569
5	657	1455.270857392725	51.178327836609
5	658	1455.835469228314	51.112105375838
5	659	1456.887156571389	50.374273826902
5	660	1459.323403010182	48.059874727706
5	665	1477.407234086467	57.182659994443
5	666	1478.130354203565	44.481878277523
5	667	1487.62232776883	45.465152093958
5	668	1489.892317506463	39.705800048841
5	669	1490.891247605251	38.366470012453
5	670	1492.17596375521	22.482302226702
5	671	1495.597999014912	24.233447173535
5	674	1500.292962552547	0
5	677	1514.628496105396	0
5	680	1517.17273542347	1.781150325264
5	683	1520.075491215183	0
5	686	1529.117938344292	0
5	689	1536.955543686046	0
5	692	1537.272009496688	0
5	698	1568.170486611142	0
5	703	1584.807094630837	5.692672951392
5	708	1590.761169909	10.261069730665
5	711	1592.979944233226	4.783515026843
5	712	1594.361313338467	3.717063283009
5	715	1603.448447051271	12.622802108028
5	716	1603.585750573494	3.354710083987
5	719	1617.390361912351	6.725936782222
5	722	1620.409082477252	1.472449427728
5	725	1647.347486492507	0
5	728	1651.645264029249	0
5	731	1659.152359677814	1.607919402179
5	734	1667.875743443595	0
5	737	1678.961085905515	0
5	743	1683.141306191972	0.870341060981
5	757	1720.281640679435	12.196848094899
5	762	1727.645785148444	14.022680796106
5	773	1746.0282368387	25.47242498113
5	776	1746.916729003566	23.632944739374
5	777	1749.790155450127	21.734872818418
5	782	1753.521493798167	21.57148839715
5	783	1755.60104718876	22.265403861442
5	784	1766.445224631093	29.260654811725
5	791	1788.033472898866	42.385551111226
5	794	1788.825155217367	42.394159481773
5	797	1793.822660715538	43.94622407639
5	798	1794.594399691951	43.9706777813
5	799	1795.185203032405	15.736003861802
5	813	1812.166800098544	29.979977046272
5	814	1821.474230228833	34.795282231762
5	815	1824.339957786756	36.045001190705
5	818	1828.38908409383	36.502077724153
5	819	1833.923407469764	36.624221156754
5	820	1840.505553676826	42.554574737875
5	821	1841.731570020606	14.489415771328
5	824	1850.542439783431	0
5	827	1870.004880988581	0
5	830	1873.144783037164	0
5	833	1884.822081319794	0
5	840	1901.79746806947	16.018872823218
5	841	1904.175513024934	18.363983968355
5	842	1905.255716521972	7.54762859277
5	848	1922.218213421388	1.473919657265
5	851	1932.417776871576	0
5	854	1957.658186564513	0
5	859	1959.227527629995	1.081889025369
5	862	1966.330624100851	8.125716621221
5	863	1971.581599667373	9.540466726341
5	866	1972.339259434377	0
5	869	1996.972662773382	0
5	872	2001.837521535633	0
5	875	2022.651661072584	0
5	878	2031.708678368501	0
5	881	2048.206135892036	9.040312817916
5	888	2057.00795585495	8.405332129835
5	889	2058.634678458558	7.337932071699
5	894	2065.317168173464	12.808073782545
5	897	2072.103661409452	11.653523384866
5	898	2073.434089268666	11.569529387803
5	908	2084.726466701822	19.118113698894
5	909	2094.069843830419	20.541525761995
5	912	2101.762016693085	27.509349984903
5	913	2103.031399676253	27.722725088781
5	918	2118.601730336486	23.657111615822
5	921	2121.279259911768	12.593397596119
5	924	2130.299408008469	19.223631060402
5	925	2136.137713707701	15.061504174025
5	926	2136.238238931335	14.714742520236
5	932	2145.763574788525	0
5	935	2151.397617746221	0
5	938	2154.256001253897	0.693294571194
5	941	2158.8277209331	0
5	944	2161.192638793574	0
5	950	2176.623459025381	0
5	953	2178.271670256907	1.04344513203
5	960	2190.554904745981	9.192280487775
5	963	2197.476101050728	13.061962795666
5	964	2198.653334966083	9.083374009484
5	965	2199.646073825675	6.783920648572
5	968	2214.505848794852	0
5	971	2215.169283042454	0.430256785971
5	974	2216.997427399395	0
5	977	2228.158970210153	0
5	980	2233.589270654671	0
5	985	2238.600779362909	3.838817181139
5	986	2239.400378036792	4.265822037654
5	989	2245.5746372874	0
5	992	2246.434071313046	0
5	995	2257.83449477874	4.23333864542
5	1001	2264.722149296945	0
5	1041	2317.995926490343	53.155541557253
5	1044	2322.848168735329	54.063878300367
5	1045	2328.374158992982	46.181898431387
5	1046	2328.672753728815	31.408365682155
5	1049	2335.806649981066	29.355337977023
5	1050	2338.931894601464	31.025293077569
5	1051	2340.212904752683	31.76132959309
5	1052	2341.193685426016	30.613756955686
5	1053	2345.925497233842	31.987118547983
5	1056	2352.99911426135	33.909233571221
5	1065	2365.165777686788	32.290556542089
5	1068	2388.958249074424	40.625696214493
5	1069	2392.858430544693	39.16573273542
5	1080	2415.140450034173	58.520026187983
5	1081	2417.482036044202	59.391011606397
5	1082	2419.40794841936	60.157365923157
5	1083	2419.47439104168	53.287551596005
5	1086	2423.832277259087	30.955794209888
5	1089	2432.672033763676	38.118082546136
5	1094	2439.580555083255	43.675422615148
5	1120	2485.403270240541	88.704266422052
5	1121	2485.514117329445	79.526281966297
5	1122	2485.929504510622	64.908314055204
6	162	365.120901747532	34
6	165	370.118221488304	35
6	179	406.391439609398	36
6	194	450.598736234849	37
6	195	455.364211368256	38
6	200	457.582646485799	39
6	201	458.576771932753	40
6	204	473.465662172282	41
6	207	479.881980285495	42
6	208	481.110837282745	43
6	250	568.034853160613	44
6	251	571.338881534393	45
6	252	575.204035740354	46
6	259	587.695356081156	47
6	263	591.023943843138	48
6	268	595.920529594981	49
6	269	596.257025436032	50
6	280	609.535306945564	51
6	283	619.885276506754	52
6	284	620.156694593984	53
6	285	620.200464261876	54
6	286	627.948537299423	55
6	287	629.893611774506	56
6	290	636.757092653353	57
6	295	640.488185624075	58
6	296	645.731647443392	59
6	297	654.11063591442	60
6	298	658.673432230508	61
6	299	659.769386676281	62
6	300	660.16307398454	63
6	301	664.684933424912	64
6	302	670.027124198508	65
6	303	673.94339713502	66
6	308	678.969882372652	67
6	309	681.972642381276	68
6	312	690.930745868789	69
6	321	734.341175502001	70
6	332	771.323052264098	71
6	337	786.071274441963	72
6	338	786.071334632539	73
6	339	786.701169417828	74
6	342	797.408819129708	75
6	345	804.466534681895	76
6	350	815.32284321129	77
6	353	824.382098888002	78
6	354	826.34421689411	79
6	357	831.532548677899	80
6	360	836.686076801904	81
6	366	855.456730963182	82
6	396	958.449231883558	83
6	397	962.903067567508	84
6	402	975.442004288357	85
6	405	981.243019427872	86
6	406	982.644736119012	87
6	407	984.42967444814	88
6	408	987.492912555866	89
6	419	1019.35244759963	90
6	422	1024.018631683616	91
6	423	1024.484294225232	92
6	431	1033.009079809421	93
6	440	1059.680980000515	94
6	451	1067.760414455438	95
6	452	1069.695915233443	96
6	457	1077.096276518888	97
6	462	1078.737286751659	98
6	463	1079.08895649076	99
6	464	1079.678335737038	100
6	478	1098.563937123728	101
6	479	1099.212743018547	102
6	480	1103.185986538857	103
6	483	1116.792400031368	104
6	489	1123.871288516935	105
6	506	1144.825417178172	106
6	507	1145.345297993842	107
6	510	1151.610590123407	108
6	511	1153.019481859478	109
6	512	1154.175284831708	110
6	513	1154.998400312237	111
6	527	1190.662358951208	112
6	528	1191.640728361665	113
6	531	1197.339540814319	114
6	538	1206.357685511833	115
6	545	1233.792519466377	116
6	548	1235.1493255457	117
6	551	1238.963104489794	118
6	552	1243.17000943477	119
6	553	1243.646222936669	120
6	554	1247.712999310839	121
6	557	1249.324399160648	122
6	558	1249.701990532983	123
6	559	1250.730682811486	124
6	571	1273.265571600604	125
6	574	1275.864226482722	126
6	575	1281.247720728843	127
6	576	1284.00644320928	128
6	579	1286.295348505362	129
6	593	1307.608130133796	130
6	594	1308.66741787539	131
6	597	1314.444064642034	132
6	600	1321.376073144147	133
6	603	1329.800454675129	134
6	611	1357.737002123885	135
6	614	1360.937010667551	136
6	624	1390.521455019005	137
6	625	1390.584113072619	138
6	630	1400.972787940535	139
6	640	1415.74514461809	140
6	658	1455.835469228314	141
6	659	1456.887156571389	142
6	660	1459.323403010182	143
6	666	1478.130354203565	144
6	667	1487.62232776883	145
6	668	1489.892317506463	146
6	669	1490.891247605251	147
6	670	1492.17596375521	148
6	671	1495.597999014912	149
6	672	1495.749186804233	150
6	675	1510.588485738988	151
6	680	1517.17273542347	152
6	681	1517.905722229986	153
6	684	1520.98879765729	154
6	687	1530.466364406323	155
6	690	1537.159589497433	156
6	693	1541.796281942518	157
6	703	1584.807094630837	158
6	711	1592.979944233226	159
6	712	1594.361313338467	160
6	716	1603.585750573494	161
6	719	1617.390361912351	162
6	722	1620.409082477252	163
6	723	1624.351940829013	164
6	726	1648.037812313676	165
6	731	1659.152359677814	166
6	732	1666.299782049151	167
6	735	1672.048807267146	168
6	738	1680.087027077161	169
6	744	1686.123204685383	170
6	776	1746.916729003566	171
6	777	1749.790155450127	172
6	782	1753.521493798167	173
6	783	1755.60104718876	174
6	784	1766.445224631093	175
6	797	1793.822660715538	176
6	798	1794.594399691951	177
6	799	1795.185203032405	178
6	814	1821.474230228833	179
6	815	1824.339957786756	180
6	818	1828.38908409383	181
6	819	1833.923407469764	182
6	820	1840.505553676826	183
6	821	1841.731570020606	184
6	822	1842.310335638095	185
6	825	1853.280626618864	186
6	828	1870.466847643123	187
6	831	1878.125326153251	188
6	840	1901.79746806947	189
6	841	1904.175513024934	190
6	842	1905.255716521972	191
6	843	1905.363895054136	192
6	849	1922.645458525307	193
6	852	1951.669110484744	194
6	859	1959.227527629995	195
6	862	1966.330624100851	196
6	863	1971.581599667373	197
6	864	1971.740012073316	198
6	867	1976.296117135369	199
6	870	2001.458277373669	200
6	873	2007.803095430382	201
6	876	2027.02666262939	202
6	881	2048.206135892036	203
6	889	2058.634678458558	204
6	894	2065.317168173464	205
6	897	2072.103661409452	206
6	898	2073.434089268666	207
6	909	2094.069843830419	208
6	912	2101.762016693085	209
6	913	2103.031399676253	210
6	924	2130.299408008469	211
6	925	2136.137713707701	212
6	926	2136.238238931335	213
6	927	2138.252990486164	214
6	933	2146.596768496763	215
6	938	2154.256001253897	216
6	939	2155.394258103267	217
6	942	2160.332142668832	218
6	945	2161.542599698057	219
6	960	2190.554904745981	220
6	963	2197.476101050728	221
6	964	2198.653334966083	222
6	965	2199.646073825675	223
6	966	2201.520411335788	224
6	971	2215.169283042454	225
6	972	2216.344168720062	226
6	975	2218.270645422485	227
6	978	2232.062443785101	228
6	986	2239.400378036792	229
6	987	2241.620985066571	230
6	990	2245.746671867493	231
6	995	2257.83449477874	232
6	996	2259.3023193903	233
6	1044	2322.848168735329	234
6	1045	2328.374158992982	235
6	1046	2328.672753728815	236
6	1049	2335.806649981066	237
6	1050	2338.931894601464	238
6	1051	2340.212904752683	239
6	1052	2341.193685426016	240
6	1053	2345.925497233842	241
6	1056	2352.99911426135	242
6	1065	2365.165777686788	243
6	1068	2388.958249074424	244
6	1069	2392.858430544693	245
6	1080	2415.140450034173	246
6	1081	2417.482036044202	247
6	1082	2419.40794841936	248
6	1083	2419.47439104168	249
6	1089	2432.672033763676	250
6	1094	2439.580555083255	251
6	1121	2485.514117329445	252
6	1122	2485.929504510622	253
7	162	365.120901747532	3.78123825293
7	165	370.118221488304	2.135343062104
7	179	406.391439609398	12.262175349416
7	194	450.598736234849	25.079057136677
7	195	455.364211368256	29.598470016348
7	200	457.582646485799	30.064834835204
7	201	458.576771932753	24.969963865034
7	204	473.465662172282	25.395843206857
7	207	479.881980285495	23.530710239663
7	208	481.110837282745	24.549273500154
7	250	568.034853160613	93.862752274128
7	251	571.338881534393	77.997981159328
7	252	575.204035740354	72.353684490235
7	259	587.695356081156	83.608933698219
7	263	591.023943843138	80.700594561657
7	268	595.920529594981	73.458976504943
7	269	596.257025436032	62.664729299618
7	280	609.535306945564	60.375874065269
7	283	619.885276506754	53.788497545301
7	284	620.156694593984	44.13455199307
7	285	620.200464261876	40.759236762033
7	286	627.948537299423	46.948970326194
7	287	629.893611774506	40.221373612539
7	290	636.757092653353	42.547740104267
7	295	640.488185624075	45.73478305441
7	296	645.731647443392	47.586938817014
7	297	654.11063591442	47.229709186984
7	298	658.673432230508	51.152804629211
7	299	659.769386676281	51.092790096223
7	300	660.16307398454	47.517912653891
7	301	664.684933424912	31.923694855432
7	302	670.027124198508	33.191502121488
7	303	673.94339713502	36.726303813244
7	308	678.969882372652	3.559226541865
7	309	681.972642381276	4.107562734192
7	312	690.930745868789	3.26851123972
7	321	734.341175502001	3.582888472126
7	332	771.323052264098	8.646942445147
7	337	786.071274441963	21.716501430229
7	338	786.071334632539	8.807621433164
7	339	786.701169417828	8.140880883753
7	342	797.408819129708	1.418308861821
7	345	804.466534681895	0.591251547724
7	350	815.32284321129	6.228015118263
7	353	824.382098888002	9.810223181734
7	354	826.34421689411	5.770153580383
7	357	831.532548677899	1.586965767307
7	360	836.686076801904	1.621705060874
7	366	855.456730963182	4.813155401631
7	396	958.449231883558	54.542285271925
7	397	962.903067567508	32.858574562184
7	402	975.442004288357	43.442662979664
7	405	981.243019427872	46.116061595526
7	406	982.644736119012	14.657759561737
7	407	984.42967444814	12.815273332163
7	408	987.492912555866	10.444157727391
7	419	1019.35244759963	23.408855551454
7	422	1024.018631683616	10.757584407
7	423	1024.484294225232	2.101702276501
7	431	1033.009079809421	4.406143286542
7	440	1059.680980000515	26.190546907248
7	451	1067.760414455438	6.757512777501
7	452	1069.695915233443	6.502082748473
7	457	1077.096276518888	9.82898788311
7	462	1078.737286751659	3.012820819698
7	463	1079.08895649076	3.006474929931
7	464	1079.678335737038	1.943317366842
7	478	1098.563937123728	7.809769804689
7	479	1099.212743018547	4.440527147398
7	480	1103.185986538857	8.319541214963
7	483	1116.792400031368	4.911169794785
7	489	1123.871288516935	1.878548469546
7	506	1144.825417178172	9.891458880137
7	507	1145.345297993842	10.128293537856
7	510	1151.610590123407	16.247538150666
7	511	1153.019481859478	14.087250730073
7	512	1154.175284831708	9.387569678344
7	513	1154.998400312237	7.715135828958
7	527	1190.662358951208	34.403069691032
7	528	1191.640728361665	28.436021479316
7	531	1197.339540814319	26.727285997342
7	538	1206.357685511833	31.022500380825
7	545	1233.792519466377	46.843494439261
7	548	1235.1493255457	42.815425849108
7	551	1238.963104489794	41.349127296275
7	552	1243.17000943477	45.061831737043
7	553	1243.646222936669	45.03995950906
7	554	1247.712999310839	40.610959240615
7	557	1249.324399160648	33.751799546467
7	558	1249.701990532983	17.857614953997
7	559	1250.730682811486	15.819871872779
7	571	1273.265571600604	25.322600445106
7	574	1275.864226482722	24.676173446767
7	575	1281.247720728843	24.642286001483
7	576	1284.00644320928	8.756844454833
7	579	1286.295348505362	0.782514671968
7	593	1307.608130133796	13.576371988814
7	594	1308.66741787539	7.848396965722
7	597	1314.444064642034	3.504454615874
7	600	1321.376073144147	3.373002541719
7	603	1329.800454675129	3.104081321742
7	611	1357.737002123885	21.086466287529
7	614	1360.937010667551	23.713290591937
7	624	1390.521455019005	27.001053700031
7	625	1390.584113072619	23.947464286776
7	630	1400.972787940535	25.027736224039
7	640	1415.74514461809	20.175716551815
7	658	1455.835469228314	51.742939672198
7	659	1456.887156571389	52.163792718913
7	660	1459.323403010182	52.810520265695
7	666	1478.130354203565	57.905780111541
7	667	1487.62232776883	53.973851842788
7	668	1489.892317506463	47.735141831591
7	669	1490.891247605251	40.704730147629
7	670	1492.17596375521	39.651186162412
7	671	1495.597999014912	25.904337486404
7	672	1495.749186804233	24.384634962856
7	675	1510.588485738988	10.295523186441
7	680	1517.17273542347	2.544239318074
7	681	1517.905722229986	2.51413713178
7	684	1520.98879765729	0.913306442107
7	687	1530.466364406323	1.348426062031
7	690	1537.159589497433	0.204045811387
7	693	1541.796281942518	4.52427244583
7	703	1584.807094630837	16.636608019695
7	711	1592.979944233226	12.479844054891
7	712	1594.361313338467	6.164884132084
7	716	1603.585750573494	12.760105630251
7	719	1617.390361912351	17.159321422844
7	722	1620.409082477252	9.744657347123
7	723	1624.351940829013	5.415307779489
7	726	1648.037812313676	0.690325821169
7	731	1659.152359677814	7.507095648565
7	732	1666.299782049151	8.755341773516
7	735	1672.048807267146	4.173063823551
7	738	1680.087027077161	1.125941171646
7	744	1686.123204685383	3.852239554392
7	776	1746.916729003566	26.360917145996
7	777	1749.790155450127	26.506371185935
7	782	1753.521493798167	25.466211166458
7	783	1755.60104718876	23.651041787743
7	784	1766.445224631093	33.109581303775
7	797	1793.822660715538	47.391664979944
7	798	1794.594399691951	44.717963052803
7	799	1795.185203032405	44.561481121754
7	814	1821.474230228833	39.287407176561
7	815	1824.339957786756	37.661009789685
7	818	1828.38908409383	40.094127497779
7	819	1833.923407469764	42.036401100087
7	820	1840.505553676826	43.206367363816
7	821	1841.731570020606	43.780591081655
7	822	1842.310335638095	15.068181388817
7	825	1853.280626618864	2.738186835433
7	828	1870.466847643123	0.461966654542
7	831	1878.125326153251	4.980543116087
7	840	1901.79746806947	16.975386749676
7	841	1904.175513024934	18.396917778682
7	842	1905.255716521972	19.444187465393
7	843	1905.363895054136	7.655807124934
7	849	1922.645458525307	1.901164761184
7	852	1951.669110484744	19.251333613168
7	859	1959.227527629995	1.569341065482
7	862	1966.330624100851	8.184985496225
7	863	1971.581599667373	13.376692187743
7	864	1971.740012073316	9.698879132284
7	867	1976.296117135369	3.956857700992
7	870	2001.458277373669	4.485614600287
7	873	2007.803095430382	5.965573894749
7	876	2027.02666262939	4.375001556806
7	881	2048.206135892036	16.497457523535
7	889	2058.634678458558	10.032054733443
7	894	2065.317168173464	14.020421786605
7	897	2072.103661409452	19.594567018533
7	898	2073.434089268666	12.98395124408
7	909	2094.069843830419	28.461490827491
7	912	2101.762016693085	28.233698624661
7	913	2103.031399676253	28.778732968071
7	924	2130.299408008469	21.61354569282
7	925	2136.137713707701	25.061936759634
7	926	2136.238238931335	15.162029397659
7	927	2138.252990486164	16.729494075065
7	933	2146.596768496763	0.833193708238
7	938	2154.256001253897	2.858383507676
7	939	2155.394258103267	1.831551420564
7	942	2160.332142668832	1.504421735732
7	945	2161.542599698057	0.349960904483
7	960	2190.554904745981	13.326679621104
7	963	2197.476101050728	16.113476792522
7	964	2198.653334966083	14.239196711021
7	965	2199.646073825675	10.076112869076
7	966	2201.520411335788	8.658258158685
7	971	2215.169283042454	0.663434247602
7	972	2216.344168720062	1.605142463579
7	975	2218.270645422485	1.27321802309
7	978	2232.062443785101	3.903473574948
7	986	2239.400378036792	4.638415855022
7	987	2241.620985066571	6.486429067433
7	990	2245.746671867493	0.172034580093
7	995	2257.83449477874	11.400423465694
7	996	2259.3023193903	5.70116325698
7	1044	2322.848168735329	58.007783802239
7	1045	2328.374158992982	59.58986855802
7	1046	2328.672753728815	46.48049316722
7	1049	2335.806649981066	38.542261934406
7	1050	2338.931894601464	32.480582597421
7	1051	2340.212904752683	32.306303228788
7	1052	2341.193685426016	32.742110266423
7	1053	2345.925497233842	35.345568763512
7	1056	2352.99911426135	39.060735575491
7	1065	2365.165777686788	46.075896996659
7	1068	2388.958249074424	56.083027929725
7	1069	2392.858430544693	44.525877684762
7	1080	2415.140450034173	61.4477522249
7	1081	2417.482036044202	60.861612198012
7	1082	2419.40794841936	61.316923981555
7	1083	2419.47439104168	60.223808545477
7	1089	2432.672033763676	39.795550714477
7	1094	2439.580555083255	45.026603865715
7	1121	2485.514117329445	88.815113510956
7	1122	2485.929504510622	79.941669147474
8	169	380.659473743649	1
8	173	395.971694417465	2
8	177	404.35044228479	1
8	181	410.037356174797	1
8	184	425.519679098172	1
8	210	493.340900375065	1
8	212	493.458722537011	2
8	214	496.742594609582	3
8	226	519.107824800269	2
8	230	524.050395342014	3
8	232	528.76545634016	4
8	236	535.742612840699	5
8	261	589.672238161967	1
8	271	598.144708626378	1
8	276	607.520627601297	1
8	314	702.49001005566	1
8	317	730.410353463151	1
8	323	735.549137058382	1
8	330	764.354773011734	1
8	362	838.86047744023	1
8	368	879.741882111558	1
8	370	882.113317559985	2
8	372	884.446492488943	3
8	374	888.24560307094	4
8	376	895.381730109802	5
8	381	927.517978306195	5
8	392	940.401529101434	3
8	412	990.909014986853	1
8	417	1013.261047276616	1
8	425	1028.545887104851	1
8	435	1034.503025313914	1
8	437	1036.534772003394	2
8	442	1060.691130510771	1
8	447	1063.19383248497	1
8	468	1084.594332712561	1
8	471	1090.754167319039	1
8	474	1094.772215871149	1
8	485	1120.122180825996	1
8	491	1127.896198946203	1
8	493	1131.632484755457	2
8	523	1175.335185131008	1
8	563	1256.60543472736	1
8	565	1258.346007673972	2
8	567	1258.889412571991	3
8	581	1286.342301461403	1
8	583	1286.57494181929	2
8	585	1287.862513521532	3
8	609	1337.223720075614	1
8	616	1363.520401318974	1
8	636	1406.512882744487	1
8	644	1433.648475926042	1
8	646	1435.347326120521	2
8	651	1445.829455077947	2
8	662	1469.693661528508	1
8	695	1564.774017558306	1
8	705	1588.196429206383	1
8	714	1600.231040489507	1
8	740	1682.208424127058	1
8	746	1686.419845939918	1
8	749	1707.679710106683	1
8	755	1716.345476470025	2
8	759	1720.55581185757	1
8	772	1745.64792178764	1
8	786	1779.449199170603	1
8	793	1788.294956596051	1
8	801	1797.29918631301	1
8	805	1798.359156213276	2
8	807	1799.172771781991	3
8	810	1806.766350733902	3
8	845	1917.923427135827	1
8	887	2052.509094390919	1
8	904	2075.308674587472	1
8	906	2082.099549429316	2
8	915	2108.685862315649	1
8	920	2121.076209533676	1
8	929	2142.723683495446	1
8	947	2169.304437475917	1
8	952	2177.228225124877	1
8	982	2234.76196218177	1
8	998	2260.983183628547	1
8	1003	2264.84038493309	1
8	1007	2268.90144810621	2
8	1009	2273.677289607649	3
8	1013	2285.719432706355	4
8	1015	2288.561711981572	5
8	1019	2293.558850252091	4
8	1026	2298.239937262922	2
8	1037	2312.094400186417	2
8	1085	2421.021190455418	1
8	1096	2446.030079873069	1
8	1100	2451.694476261001	2
8	1104	2455.678417661446	3
8	1106	2458.010288498061	4
9	169	380.659473743649	12
9	177	404.35044228479	13
9	181	410.037356174797	14
9	184	425.519679098172	15
9	210	493.340900375065	16
9	261	589.672238161967	17
9	271	598.144708626378	18
9	276	607.520627601297	19
9	330	764.354773011734	20
9	412	990.909014986853	21
9	417	1013.261047276616	22
9	435	1034.503025313914	23
9	442	1060.691130510771	24
9	447	1063.19383248497	25
9	468	1084.594332712561	26
9	471	1090.754167319039	27
9	474	1094.772215871149	28
9	523	1175.335185131008	29
9	563	1256.60543472736	30
9	609	1337.223720075614	31
9	616	1363.520401318974	32
9	636	1406.512882744487	33
9	644	1433.648475926042	34
9	662	1469.693661528508	35
9	705	1588.196429206383	36
9	714	1600.231040489507	37
9	759	1720.55581185757	38
9	772	1745.64792178764	39
9	786	1779.449199170603	40
9	793	1788.294956596051	41
9	801	1797.29918631301	42
9	887	2052.509094390919	43
9	904	2075.308674587472	44
9	915	2108.685862315649	45
9	920	2121.076209533676	46
9	952	2177.228225124877	47
9	982	2234.76196218177	48
9	1003	2264.84038493309	49
9	1085	2421.021190455418	50
9	1096	2446.030079873069	51
10	169	380.659473743649	0
10	174	396.886936755524	0.915242338059
10	177	404.35044228479	0
10	181	410.037356174797	0
10	184	425.519679098172	0
10	210	493.340900375065	0
10	215	498.543963978429	5.085241441418
10	224	511.594606160073	14.852011550491
10	237	538.656451095875	19.548626295606
10	244	549.352051591863	25.301656249849
10	245	552.919625744556	24.154169404396
10	246	554.456352606729	18.71373976603
10	261	589.672238161967	0
10	271	598.144708626378	0
10	276	607.520627601297	0
10	314	702.49001005566	0
10	317	730.410353463151	0
10	323	735.549137058382	0
10	330	764.354773011734	0
10	362	838.86047744023	0
10	368	879.741882111558	0
10	379	922.197615843223	40.084298283238
10	386	933.468863451406	49.022370962463
10	389	936.500912251907	48.255309180967
10	390	938.450672000144	43.068941890342
10	393	947.740763039195	20.222784733
10	394	948.335246454658	7.933717353224
10	412	990.909014986853	0
10	417	1013.261047276616	0
10	425	1028.545887104851	0
10	435	1034.503025313914	0
10	438	1053.360310577255	16.825538573861
10	442	1060.691130510771	0
10	447	1063.19383248497	0
10	468	1084.594332712561	0
10	471	1090.754167319039	0
10	474	1094.772215871149	0
10	485	1120.122180825996	0
10	491	1127.896198946203	0
10	494	1132.920345080876	1.287860325419
10	523	1175.335185131008	0
10	563	1256.60543472736	0
10	568	1259.410679535928	1.064671861956
10	569	1264.426333440626	5.536920868635
10	581	1286.342301461403	0
10	586	1293.463049747374	6.888107928084
10	591	1304.648575737828	16.786062216296
10	609	1337.223720075614	0
10	616	1363.520401318974	0
10	636	1406.512882744487	0
10	644	1433.648475926042	0
10	647	1440.338595437782	4.991269317261
10	654	1451.730334503103	5.900879425156
10	662	1469.693661528508	0
10	695	1564.774017558306	0
10	705	1588.196429206383	0
10	714	1600.231040489507	0
10	740	1682.208424127058	0
10	746	1686.419845939918	0
10	749	1707.679710106683	0
10	756	1719.74201884328	3.396542373255
10	759	1720.55581185757	0
10	772	1745.64792178764	0
10	786	1779.449199170603	0
10	793	1788.294956596051	0
10	801	1797.29918631301	0
10	808	1803.077297275414	4.718141062138
10	811	1810.810141293955	11.637369511964
10	812	1811.974448645548	5.208097911646
10	845	1917.923427135827	0
10	887	2052.509094390919	0
10	904	2075.308674587472	0
10	907	2083.801551725536	1.70200229622
10	915	2108.685862315649	0
10	920	2121.076209533676	0
10	929	2142.723683495446	0
10	947	2169.304437475917	0
10	952	2177.228225124877	0
10	982	2234.76196218177	0
10	998	2260.983183628547	0
10	1003	2264.84038493309	0
10	1016	2288.716623259516	19.815175153306
10	1017	2291.417485597371	17.740195989722
10	1020	2294.018319414662	8.298886708307
10	1021	2295.589438780122	7.02772679855
10	1022	2297.002804442403	3.443954190312
10	1029	2306.456852012425	8.216914749503
10	1040	2313.945887524828	1.851487338411
10	1085	2421.021190455418	0
10	1096	2446.030079873069	0
10	1107	2462.936287583907	11.241811322906
10	1114	2472.518528980841	16.840111319395
10	1115	2475.203120997708	17.192832499647
11	1127	2500	0.1012
12	1127	2500	0.0452

