file 56032 1678524171                                           
version 2
run experiments_medium_game_mode1-834-20230311-09:42:51-12861
attr configname experiments_medium_game_mode1
attr datetime 20230311-09:42:51
attr experiment experiments_medium_game_mode1
attr inifile omnetpp.ini
attr iterationvars "$0=6, $1=6, $2=100"
attr iterationvarsf 6,6,100-
attr measurement "$0=6, $1=6, $2=100"
attr network Network
attr processid 12861
attr repetition 24
attr replication #24
attr resultdir results
attr runnumber 834
attr seedset 24
param *.boss.arrival_mean 20
param *.boss.service_mean 6
param *.minion.arrival_mean 10
param *.minion.service_mean 6
param *.player.recover_rate_x 100
param **.minion.arrival_distribution 0
param **.minion.service_distribution 0
param **.boss.arrival_distribution 0
param **.boss.service_distribution 0

vector 0 Network.player minion_defeated_stat:vector ETV
attr source signal_minion_defeated
vector 1 Network.player minion_jobs_queue_number_stat:vector ETV
attr source signal_minion_jobs_queue_number
vector 2 Network.player minion_response_time_stat:vector ETV
attr source signal_minion_response_time
vector 3 Network.player minion_waiting_time_stat:vector ETV
attr source signal_minion_waiting_time
vector 4 Network.player minion_jobs_number_stat:vector ETV
attr source signal_minion_jobs_number
vector 5 Network.player boss_jobs_number_stat:vector ETV
attr source signal_boss_jobs_number
vector 6 Network.player boss_jobs_queue_number_stat:vector ETV
attr source signal_boss_jobs_queue_number
vector 7 Network.player boss_waiting_time_stat:vector ETV
attr source signal_boss_waiting_time
vector 8 Network.player boss_defeated_stat:vector ETV
attr source signal_boss_defeated
vector 9 Network.player boss_response_time_stat:vector ETV
attr source signal_boss_response_time
vector 10 Network.player minion_recovered_stat:vector ETV
attr source signal_minion_recovered
vector 11 Network.player minion_throughput:vector ETV
attr source signal_minion_throughput
vector 12 Network.player boss_throughput:vector ETV
attr source signal_boss_throughput
0	2019 5639 169 1027 355.647612354033 2451.793477782076 207 30 236 27531 4400751
1	7658 10524 169 1042 355.647612354033 2499.167734483319 411 0 10 1123 5987
2	18182 8097 169 1027 355.647612354033 2451.793477782076 207 0.079343875417 79.948391662427 5256.0464780312 225021.35330225
3	26279 8776 169 1027 355.647612354033 2451.793477782076 241 0 78.403208950313 4755.6625471963 187448.63374889
4	35055 5232 171 1042 356.789216703952 2499.167734483319 204 1 11 755 4225
5	40287 2236 185 1036 372.134798287112 2491.203118857694 87 1 5 132 292
6	42523 4413 185 1036 372.134798287112 2491.203118857694 172 0 4 89 229
7	46936 2517 185 1034 372.134798287112 2487.894763300403 86 0 45.979254573822 377.10071650207 10371.987509427
8	49453 2269 186 1034 374.055151252583 2487.894763300403 85 22 106 5440 399330
9	51722 3300 186 1034 374.055151252583 2487.894763300403 85 0.039447413937 50.517401999152 825.099540844 19569.338056054
10	55022 969 237 1029 526.025624377519 2455.475700995089 35 12 46 1015 33005
11	55991 20 1043 1043 2500 2500 1 0.0944 0.0944 0.0944 0.00891136
12	56011 20 1043 1043 2500 2500 1 0.0424 0.0424 0.0424 0.00179776

