version 2
run experiments_medium_game_mode1-1177-20230311-09:44:06-14576
attr configname experiments_medium_game_mode1
attr datetime 20230311-09:44:06
attr experiment experiments_medium_game_mode1
attr inifile omnetpp.ini
attr iterationvars "$0=6.5, $1=7, $2=100"
attr iterationvarsf 6.5,7,100-
attr measurement "$0=6.5, $1=7, $2=100"
attr network Network
attr processid 14576
attr repetition 7
attr replication #7
attr resultdir results
attr runnumber 1177
attr seedset 7
param *.boss.arrival_mean 20
param *.boss.service_mean 6.5
param *.minion.arrival_mean 10
param *.minion.service_mean 7
param *.player.recover_rate_x 100
param **.minion.arrival_distribution 0
param **.minion.service_distribution 0
param **.boss.arrival_distribution 0
param **.boss.service_distribution 0

scalar Network.player boss_throughput:mean 0.0492
attr source signal_boss_throughput
scalar Network.player boss_throughput:last 0.0492
attr source signal_boss_throughput
scalar Network.player boss_defeated_stat:count 111
attr source signal_boss_defeated
scalar Network.player boss_defeated_stat:mean 68
attr source signal_boss_defeated
scalar Network.player boss_waiting_time_stat:mean 1.5200073067996
attr source signal_boss_waiting_time
scalar Network.player boss_response_time_stat:mean 7.0932748791819
attr source signal_boss_response_time
scalar Network.player minion_throughput:mean 0.0804
attr source signal_minion_throughput
scalar Network.player minion_throughput:last 0.0804
attr source signal_minion_throughput
scalar Network.player minion_recovered_stat:count 76
attr source signal_minion_recovered
scalar Network.player minion_recovered_stat:mean 47.5
attr source signal_minion_recovered
scalar Network.player minion_defeated_stat:count 173
attr source signal_minion_defeated
scalar Network.player minion_defeated_stat:mean 115
attr source signal_minion_defeated
scalar Network.player minion_waiting_time_stat:mean 105.61428615567
attr source signal_minion_waiting_time
scalar Network.player minion_response_time_stat:mean 108.71434580765
attr source signal_minion_response_time

