version 2
run experiments_medium_game_mode1-1170-20230311-09:44:04-14541
attr configname experiments_medium_game_mode1
attr datetime 20230311-09:44:04
attr experiment experiments_medium_game_mode1
attr inifile omnetpp.ini
attr iterationvars "$0=6.5, $1=7, $2=100"
attr iterationvarsf 6.5,7,100-
attr measurement "$0=6.5, $1=7, $2=100"
attr network Network
attr processid 14541
attr repetition 0
attr replication #0
attr resultdir results
attr runnumber 1170
attr seedset 0
param *.boss.arrival_mean 20
param *.boss.service_mean 6.5
param *.minion.arrival_mean 10
param *.minion.service_mean 7
param *.player.recover_rate_x 100
param **.minion.arrival_distribution 0
param **.minion.service_distribution 0
param **.boss.arrival_distribution 0
param **.boss.service_distribution 0

vector 0 Network.player boss_defeated_stat:vector ETV
attr source signal_boss_defeated
vector 1 Network.player boss_jobs_queue_number_stat:vector ETV
attr source signal_boss_jobs_queue_number
vector 2 Network.player boss_response_time_stat:vector ETV
attr source signal_boss_response_time
vector 3 Network.player minion_waiting_time_stat:vector ETV
attr source signal_minion_waiting_time
vector 4 Network.player minion_jobs_number_stat:vector ETV
attr source signal_minion_jobs_number
vector 5 Network.player minion_jobs_queue_number_stat:vector ETV
attr source signal_minion_jobs_queue_number
vector 6 Network.player boss_jobs_number_stat:vector ETV
attr source signal_boss_jobs_number
vector 7 Network.player minion_recovered_stat:vector ETV
attr source signal_minion_recovered
vector 8 Network.player boss_waiting_time_stat:vector ETV
attr source signal_boss_waiting_time
vector 9 Network.player minion_defeated_stat:vector ETV
attr source signal_minion_defeated
vector 10 Network.player minion_response_time_stat:vector ETV
attr source signal_minion_response_time
vector 11 Network.player minion_throughput:vector ETV
attr source signal_minion_throughput
vector 12 Network.player boss_throughput:vector ETV
attr source signal_boss_throughput
0	158	351.015428381709	22
0	163	369.025544817425	23
0	174	391.960592281154	24
0	175	398.768559311718	25
0	182	406.311575589597	26
0	188	421.268544398879	27
0	197	439.662492170317	28
0	202	448.23152932622	29
0	207	470.753025119032	30
0	216	502.925230087851	31
0	221	518.992267773057	32
0	232	541.735070259394	33
0	241	566.815585921722	34
0	244	576.332787972167	35
0	259	605.110362215916	36
0	263	620.91465096137	37
0	268	626.20562943191	38
0	269	629.691686237231	39
0	294	699.63761403708	40
0	303	710.648225001527	41
0	309	717.907256870745	42
0	320	725.586076601287	43
0	321	731.328098240595	44
0	330	738.620396300921	45
0	333	740.709973620199	46
0	334	741.819077993432	47
0	341	747.298725373986	48
0	344	752.412189291703	49
0	355	768.927317469052	50
0	360	787.728863738654	51
0	371	805.620174104178	52
0	374	807.99792140141	53
0	375	809.933928760073	54
0	376	811.565263809126	55
0	392	850.671115601466	56
0	395	853.862459809709	57
0	399	866.577199059103	58
0	408	884.856516143525	59
0	409	884.991910798173	60
0	420	909.233732062962	61
0	423	910.234651317407	62
0	424	917.488080013919	63
0	425	920.045805877971	64
0	436	945.162206769068	65
0	446	962.008471450201	66
0	454	976.596908876462	67
0	467	999.266044947651	68
0	476	1013.116353941111	69
0	488	1035.38086397337	70
0	491	1042.200411426819	71
0	494	1064.030394256807	72
0	502	1099.009597345927	73
0	537	1196.062729100367	74
0	548	1208.661255281618	75
0	557	1216.787855939731	76
0	558	1219.704633691675	77
0	559	1219.856661999875	78
0	575	1238.447103914589	79
0	593	1277.505192208551	80
0	618	1345.22335752357	81
0	630	1361.45705205847	82
0	635	1374.056630164274	83
0	640	1383.805435139998	84
0	651	1420.939495781343	85
0	677	1525.027451299935	86
0	680	1529.515152942874	87
0	687	1536.325694680075	88
0	695	1555.572378519965	89
0	699	1564.474476664316	90
0	713	1581.543876932104	91
0	717	1608.931128951075	92
0	727	1619.08409627605	93
0	737	1635.392171726846	94
0	746	1654.215926616292	95
0	753	1675.50229266459	96
0	757	1682.1228052244	97
0	760	1689.460567596058	98
0	786	1751.825949693081	99
0	798	1780.402912100686	100
0	807	1797.103678240882	101
0	822	1838.556140678995	102
0	823	1840.017785480044	103
0	847	1890.57077388586	104
0	854	1903.95791621041	105
0	870	1945.840688548911	106
0	887	1972.535855628506	107
0	901	1994.088610978738	108
0	906	2001.142740597422	109
0	911	2005.679752280649	110
0	912	2008.602758306459	111
0	926	2032.776545159675	112
0	933	2043.524911709906	113
0	938	2051.544910583646	114
0	939	2060.471771512532	115
0	951	2096.029497382514	116
0	985	2201.524570198431	117
0	1001	2261.297878964805	118
0	1025	2328.676267381414	119
0	1028	2337.535925471502	120
0	1042	2370.319629269897	121
0	1058	2403.562685766833	122
0	1061	2417.081754847656	123
0	1068	2438.800211038995	124
0	1077	2466.091837981021	125
0	1087	2481.559471509603	126
0	1088	2487.08764761652	127
1	158	351.015428381709	0
1	162	365.058342191057	0
1	163	369.025544817425	0
1	169	388.037052425803	0
1	173	390.927857908176	1
1	174	391.960592281154	1
1	175	398.768559311718	0
1	181	404.73333087535	0
1	182	406.311575589597	0
1	187	419.146910101711	0
1	188	421.268544398879	0
1	196	436.823234710174	0
1	197	439.662492170317	0
1	199	440.900837049397	0
1	202	448.23152932622	0
1	206	466.342603331937	0
1	207	470.753025119032	0
1	215	497.116149187221	0
1	216	502.925230087851	0
1	218	503.09769978815	0
1	221	518.992267773057	0
1	231	541.577288411556	0
1	232	541.735070259394	0
1	236	557.379584999622	0
1	241	566.815585921722	0
1	243	571.013320665705	0
1	244	576.332787972167	0
1	250	581.474923170251	0
1	259	605.110362215916	0
1	262	618.964030904645	0
1	263	620.91465096137	0
1	265	622.85963881137	0
1	267	624.51956532149	1
1	268	626.20562943191	1
1	269	629.691686237231	0
1	293	694.407150928009	0
1	294	699.63761403708	0
1	300	708.481046712107	0
1	303	710.648225001527	0
1	306	715.529536791828	0
1	308	716.879841144914	1
1	309	717.907256870745	1
1	317	723.6697040014	1
1	320	725.586076601287	1
1	321	731.328098240595	0
1	325	734.846307524025	0
1	329	737.31664614593	1
1	330	738.620396300921	1
1	332	739.346914019748	1
1	333	740.709973620199	1
1	334	741.819077993432	0
1	336	743.358100075954	0
1	340	746.078159748484	1
1	341	747.298725373986	1
1	344	752.412189291703	0
1	352	759.713988500873	0
1	355	768.927317469052	0
1	359	777.877727033664	0
1	360	787.728863738654	0
1	366	794.561121372008	0
1	368	799.685099640979	1
1	370	804.701437837468	2
1	371	805.620174104178	2
1	373	806.963595367265	2
1	374	807.99792140141	2
1	375	809.933928760073	1
1	376	811.565263809126	0
1	387	836.140137449287	0
1	389	841.117217619398	1
1	392	850.671115601466	1
1	395	853.862459809709	0
1	398	858.339450889291	0
1	399	866.577199059103	0
1	401	866.949764860109	0
1	403	870.623974825057	1
1	407	883.238222931355	2
1	408	884.856516143525	2
1	409	884.991910798173	1
1	417	892.398818790866	1
1	419	896.905318042219	2
1	420	909.233732062962	2
1	422	909.552892526914	2
1	423	910.234651317407	2
1	424	917.488080013919	1
1	425	920.045805877971	0
1	431	930.008526162325	0
1	436	945.162206769068	0
1	439	951.250248410845	0
1	446	962.008471450201	0
1	451	964.447198103986	0
1	454	976.596908876462	0
1	464	995.956600520193	0
1	467	999.266044947651	0
1	475	1010.030117456946	0
1	476	1013.116353941111	0
1	487	1031.787232155939	0
1	488	1035.38086397337	0
1	490	1041.57153689313	0
1	491	1042.200411426819	0
1	493	1060.559683230173	0
1	494	1064.030394256807	0
1	501	1092.122097599442	0
1	502	1099.009597345927	0
1	534	1186.006490948789	0
1	537	1196.062729100367	0
1	543	1203.356701488495	0
1	547	1205.901663236199	1
1	548	1208.661255281618	1
1	552	1209.443534644607	1
1	554	1212.660171838827	2
1	557	1216.787855939731	2
1	558	1219.704633691675	1
1	559	1219.856661999875	0
1	574	1236.78984715634	0
1	575	1238.447103914589	0
1	592	1275.038720804297	0
1	593	1277.505192208551	0
1	617	1341.831971966471	0
1	618	1345.22335752357	0
1	627	1356.079627233473	0
1	630	1361.45705205847	0
1	634	1369.942905406479	0
1	635	1374.056630164274	0
1	637	1374.84225275845	0
1	640	1383.805435139998	0
1	650	1418.900678856088	0
1	651	1420.939495781343	0
1	676	1518.913265032233	0
1	677	1525.027451299935	0
1	679	1527.272532464144	0
1	680	1529.515152942874	0
1	682	1534.84794874575	0
1	687	1536.325694680075	0
1	694	1551.594958035781	0
1	695	1555.572378519965	0
1	698	1557.582850544547	0
1	699	1564.474476664316	0
1	708	1568.739307218153	0
1	713	1581.543876932104	0
1	716	1601.86730711915	0
1	717	1608.931128951075	0
1	722	1613.347843900331	0
1	727	1619.08409627605	0
1	730	1622.076911568479	0
1	737	1635.392171726846	0
1	745	1652.049086036555	0
1	746	1654.215926616292	0
1	748	1664.665401336451	0
1	753	1675.50229266459	0
1	756	1680.005761790246	0
1	757	1682.1228052244	0
1	759	1686.414640465257	0
1	760	1689.460567596058	0
1	783	1747.885153759755	0
1	786	1751.825949693081	0
1	797	1779.894755724619	0
1	798	1780.402912100686	0
1	806	1795.609136824645	0
1	807	1797.103678240882	0
1	819	1829.264198008331	0
1	821	1830.977423873753	1
1	822	1838.556140678995	1
1	823	1840.017785480044	0
1	844	1890.142463571974	0
1	847	1890.57077388586	0
1	851	1899.267394109141	0
1	854	1903.95791621041	0
1	863	1933.886473698141	0
1	870	1945.840688548911	0
1	886	1971.942596377363	0
1	887	1972.535855628506	0
1	894	1986.420461942477	0
1	901	1994.088610978738	0
1	903	1996.847244160215	0
1	906	2001.142740597422	0
1	908	2001.842081440919	0
1	910	2002.393665442616	1
1	911	2005.679752280649	1
1	912	2008.602758306459	0
1	925	2029.851865139414	0
1	926	2032.776545159675	0
1	928	2035.530374205771	0
1	933	2043.524911709906	0
1	935	2046.826782324502	0
1	937	2048.216878838541	1
1	938	2051.544910583646	1
1	939	2060.471771512532	0
1	950	2092.056321117119	0
1	951	2096.029497382514	0
1	984	2193.888924218505	0
1	985	2201.524570198431	0
1	998	2250.55891489116	0
1	1001	2261.297878964805	0
1	1022	2321.080740139735	0
1	1025	2328.676267381414	0
1	1027	2335.064538159043	0
1	1028	2337.535925471502	0
1	1041	2367.279148164219	0
1	1042	2370.319629269897	0
1	1053	2391.495205482738	0
1	1058	2403.562685766833	0
1	1060	2409.912083040808	0
1	1061	2417.081754847656	0
1	1067	2434.432498188945	0
1	1068	2438.800211038995	0
1	1076	2463.3924778558	0
1	1077	2466.091837981021	0
1	1082	2476.510344138141	0
1	1086	2480.218280446483	1
1	1087	2481.559471509603	1
1	1088	2487.08764761652	0
2	158	351.015428381709	1.021064360851
2	163	369.025544817425	3.967202626368
2	174	391.960592281154	3.923539855351
2	175	398.768559311718	7.840701403542
2	182	406.311575589597	1.578244714247
2	188	421.268544398879	2.121634297168
2	197	439.662492170317	2.839257460143
2	202	448.23152932622	7.330692276823
2	207	470.753025119032	4.410421787095
2	216	502.925230087851	5.80908090063
2	221	518.992267773057	15.894567984907
2	232	541.735070259394	0.157781847838
2	241	566.815585921722	9.4360009221
2	244	576.332787972167	5.319467306462
2	259	605.110362215916	23.635439045665
2	263	620.91465096137	1.950620056725
2	268	626.20562943191	3.34599062054
2	269	629.691686237231	5.172120915741
2	294	699.63761403708	5.230463109071
2	303	710.648225001527	2.16717828942
2	309	717.907256870745	2.377720078917
2	320	725.586076601287	8.706235456373
2	321	731.328098240595	7.658394239195
2	330	738.620396300921	3.774088776896
2	333	740.709973620199	3.393327474269
2	334	741.819077993432	2.472163973684
2	341	747.298725373986	3.940625298032
2	344	752.412189291703	6.334029543219
2	355	768.927317469052	9.213328968179
2	360	787.728863738654	9.85113670499
2	371	805.620174104178	11.05905273217
2	374	807.99792140141	8.312821760431
2	375	809.933928760073	5.232490922605
2	376	811.565263809126	4.601668441861
2	392	850.671115601466	14.530978152179
2	395	853.862459809709	12.745242190311
2	399	866.577199059103	8.237748169812
2	408	884.856516143525	17.906751283416
2	409	884.991910798173	14.367935973116
2	420	909.233732062962	25.995509131607
2	423	910.234651317407	17.835832526541
2	424	917.488080013919	20.5827619717
2	425	920.045805877971	10.492913351057
2	436	945.162206769068	15.153680606743
2	446	962.008471450201	10.758223039356
2	454	976.596908876462	12.149710772476
2	467	999.266044947651	3.309444427458
2	476	1013.116353941111	3.086236484165
2	488	1035.38086397337	3.593631817431
2	491	1042.200411426819	0.628874533689
2	494	1064.030394256807	3.470711026634
2	502	1099.009597345927	6.887499746485
2	537	1196.062729100367	10.056238151578
2	548	1208.661255281618	5.304553793123
2	557	1216.787855939731	10.886192703532
2	558	1219.704633691675	10.261099047068
2	559	1219.856661999875	7.196490161048
2	575	1238.447103914589	1.657256758249
2	593	1277.505192208551	2.466471404254
2	618	1345.22335752357	3.391385557099
2	630	1361.45705205847	5.377424824997
2	635	1374.056630164274	4.113724757795
2	640	1383.805435139998	8.963182381548
2	651	1420.939495781343	2.038816925255
2	677	1525.027451299935	6.114186267702
2	680	1529.515152942874	2.24262047873
2	687	1536.325694680075	1.477745934325
2	695	1555.572378519965	3.977420484184
2	699	1564.474476664316	6.891626119769
2	713	1581.543876932104	12.804569713951
2	717	1608.931128951075	7.063821831925
2	727	1619.08409627605	5.736252375719
2	737	1635.392171726846	13.315260158367
2	746	1654.215926616292	2.166840579737
2	753	1675.50229266459	10.836891328139
2	757	1682.1228052244	2.117043434154
2	760	1689.460567596058	3.045927130801
2	786	1751.825949693081	3.940795933326
2	798	1780.402912100686	0.508156376067
2	807	1797.103678240882	1.494541416237
2	822	1838.556140678995	9.291942670664
2	823	1840.017785480044	9.040361606291
2	847	1890.57077388586	0.428310313886
2	854	1903.95791621041	4.690522101269
2	870	1945.840688548911	11.95421485077
2	887	1972.535855628506	0.593259251143
2	901	1994.088610978738	7.668149036261
2	906	2001.142740597422	4.295496437207
2	911	2005.679752280649	3.83767083973
2	912	2008.602758306459	6.209092863843
2	926	2032.776545159675	2.924680020261
2	933	2043.524911709906	7.994537504135
2	938	2051.544910583646	4.718128259144
2	939	2060.471771512532	12.254892673991
2	951	2096.029497382514	3.973176265395
2	985	2201.524570198431	7.635645979926
2	1001	2261.297878964805	10.738964073645
2	1025	2328.676267381414	7.595527241679
2	1028	2337.535925471502	2.471387312459
2	1042	2370.319629269897	3.040481105678
2	1058	2403.562685766833	12.067480284095
2	1061	2417.081754847656	7.169671806848
2	1068	2438.800211038995	4.36771285005
2	1077	2466.091837981021	2.699360125221
2	1087	2481.559471509603	5.049127371462
2	1088	2487.08764761652	6.869367170037
3	158	351.015428381709	51.381696886437
3	163	369.025544817425	53.131082678984
3	164	378.832231567361	61.11480742934
3	165	380.657942516933	62.203664824261
3	166	380.852329910251	58.282272255153
3	167	386.203537677408	62.721869761067
3	175	398.768559311718	64.840766312296
3	182	406.311575589597	72.179526706184
3	183	410.092212938118	71.367682682153
3	184	414.369375415176	64.375011394318
3	185	417.568347296011	60.968940405659
3	188	421.268544398879	56.210202207822
3	189	422.616166522557	34.579114096754
3	192	429.95409901041	41.852992833299
3	193	433.897515629802	30.738566866317
3	194	434.956426053505	30.28516875337
3	197	439.662492170317	34.929161294967
3	202	448.23152932622	29.084619224509
3	203	453.522400928637	28.448001049083
3	204	455.067813446829	18.244578736655
3	207	470.753025119032	29.852188069635
3	210	485.750186499216	40.266864460545
3	213	496.298015742165	29.955412410228
3	216	502.925230087851	18.989689357762
3	221	518.992267773057	28.639635316187
3	224	527.803008251284	30.686859064063
3	229	540.618403372256	37.520703584106
3	232	541.735070259394	35.330042231909
3	241	566.815585921722	44.270537145311
3	244	576.332787972167	47.598444599489
3	247	578.965058329069	42.881070744493
3	248	579.646811002943	38.069522591387
3	259	605.110362215916	53.861014891438
3	260	613.361286733724	55.981701734102
3	263	620.91465096137	58.30591421979
3	269	629.691686237231	65.82420540127
3	272	644.326004697947	73.312684032242
3	275	654.138555447814	77.518797589617
3	282	668.156968787345	86.682045617094
3	289	679.066888061761	92.232811460072
3	294	699.63761403708	104.08032548497
3	303	710.648225001527	113.54363964442
3	304	711.270381701665	106.45744975988
3	321	731.328098240595	112.36406733595
3	334	741.819077993432	118.95943918206
3	344	752.412189291703	118.65505257005
3	345	752.691054445791	104.7202709232
3	346	754.923337285163	99.574280845013
3	347	756.226214307871	99.757696261395
3	348	756.653708635013	94.829533386258
3	355	768.927317469052	100.68619519999
3	356	776.699165685588	105.385239895
3	357	777.423843150678	104.04788453978
3	360	787.728863738654	99.470356870241
3	363	791.555334583263	97.148183655254
3	364	792.364911592486	90.753502877834
3	376	811.565263809126	103.86303086264
3	383	833.737476266295	125.25642955419
3	395	853.862459809709	143.71974195586
3	396	857.577133332138	142.04759654031
3	399	866.577199059103	148.03113414913
3	425	920.045805877971	200.04696069508
3	426	921.586413790983	201.39788291608
3	429	929.827209927417	205.72097094575
3	436	945.162206769068	211.44215839674
3	437	947.815833089905	212.96952556588
3	446	962.008471450201	226.66705818341
3	447	963.0815098807	219.72340980475
3	454	976.596908876462	231.78552883792
3	459	984.716620954712	237.39082159543
3	462	995.421778065527	238.50049893256
3	467	999.266044947651	239.55205644678
3	476	1013.116353941111	251.30950431506
3	479	1016.839970022299	238.96224298863
3	480	1023.1009588796	232.51495904077
3	481	1023.230161925596	228.66904055359
3	484	1030.407266642399	216.53213306143
3	485	1030.650648242833	205.32412511486
3	488	1035.38086397337	204.07688007722
3	491	1042.200411426819	206.44124258016
3	494	1064.030394256807	227.89025680752
3	495	1069.121256945754	223.86714226412
3	498	1076.686025275841	225.6865865268
3	499	1086.338911603841	227.99946071455
3	502	1099.009597345927	232.05983248582
3	507	1104.31602725286	230.05307788687
3	508	1106.797720994469	220.57369363391
3	509	1109.1015673859	221.83192776759
3	510	1113.237401204841	225.34660868187
3	515	1124.137954306239	201.24502493872
3	516	1125.896276294962	195.88775013264
3	521	1128.27632426971	194.39427022668
3	522	1129.038984161351	184.56858880345
3	523	1129.572346662761	178.32209825192
3	524	1139.200175678158	183.62380586338
3	525	1143.358276205048	185.90764573009
3	526	1147.792374110277	187.97967657449
3	527	1164.539598425945	200.29286060396
3	528	1165.247413846776	200.80021574279
3	529	1168.589079894455	202.96205518818
3	530	1171.02223545505	191.50478385087
3	537	1196.062729100367	212.75565785336
3	538	1198.438262315783	205.77057547106
3	539	1199.329044039667	203.37244351947
3	559	1219.856661999875	222.66795455291
3	560	1220.831726341624	219.71189332161
3	565	1226.039853829546	216.47574287426
3	566	1226.176752514936	216.22080999552
3	567	1226.788044543996	216.75792708705
3	568	1232.668606624205	216.93942099672
3	575	1238.447103914589	212.65920823544
3	582	1255.857821677634	224.07058952169
3	585	1265.432857641989	223.86132074886
3	586	1266.683909462542	206.12422623237
3	593	1277.505192208551	207.17232806764
3	594	1279.16968972994	187.0475921305
3	599	1286.962538856028	184.70020829458
3	600	1303.853119262845	200.51443761984
3	601	1306.013520921233	192.0965751447
3	602	1308.4995548054	192.23959384111
3	603	1313.234592445163	186.89443902668
3	606	1319.380633397288	191.28134452455
3	607	1319.764507053359	138.06421467818
3	610	1325.606063516829	139.59957256804
3	611	1328.238322688634	135.95060316252
3	614	1334.213466989522	133.20658892715
3	615	1340.875773866047	137.51907237755
3	618	1345.22335752357	141.29567412853
3	619	1346.334100572079	137.0557704062
3	630	1361.45705205847	145.89930608268
3	631	1367.686392243159	145.69083625134
3	632	1369.803394658463	145.00506858186
3	635	1374.056630164274	139.48966334696
3	640	1383.805435139998	147.50719376122
3	641	1384.561139019116	147.77129186278
3	646	1390.375486676275	149.95223299828
3	647	1395.712194646903	154.11938687098
3	648	1399.453911880592	146.62942108934
3	651	1420.939495781343	157.43428301859
3	654	1429.237846952564	161.91707575607
3	655	1433.993379718403	165.18548582939
3	656	1437.736569876941	162.69784907264
3	657	1455.150889565828	171.27664234409
3	658	1460.595735234332	174.53268204752
3	659	1460.954445368513	145.01949326318
3	662	1471.106098659112	150.57100697638
3	663	1476.479631119605	145.08184562809
3	664	1476.804473258058	134.97250129159
3	667	1488.007430505368	139.40632843668
3	670	1495.637662495993	146.899914643
3	671	1496.693146964119	146.93395029588
3	674	1501.75679135381	145.67716412034
3	677	1525.027451299935	165.51723529013
3	680	1529.515152942874	159.57224753639
3	687	1536.325694680075	161.48344192163
3	688	1537.828828256365	160.12042305372
3	695	1555.572378519965	166.66582965978
3	696	1555.784159635291	165.86726302201
3	699	1564.474476664316	145.57379780823
3	706	1567.39442825448	141.74164791776
3	713	1581.543876932104	118.40078199954
3	714	1597.904251312932	113.70794337244
3	717	1608.931128951075	118.41145504663
3	718	1609.966364552968	112.32085471519
3	727	1619.08409627605	100.17083124382
3	728	1620.006642510492	92.734110046348
3	737	1635.392171726846	100.5442229811
3	738	1640.434460243491	105.16967756067
3	739	1641.484332720285	105.64628077323
3	746	1654.215926616292	109.09308970022
3	753	1675.50229266459	124.37998688211
3	754	1678.821322743132	127.22636470735
3	757	1682.1228052244	124.53995467985
3	760	1689.460567596058	124.89580909205
3	761	1693.009295694741	128.24263590927
3	766	1698.421066137292	133.25464336124
3	767	1699.686300936221	130.94699371807
3	772	1714.592514554682	143.59730788996
3	775	1721.987398649679	147.66808957532
3	778	1740.35740800061	138.49010088146
3	779	1742.922100299171	129.68708999636
3	780	1746.059916067299	132.71207216697
3	781	1747.46993180013	132.95435384421
3	786	1751.825949693081	132.85617711796
3	789	1757.750177922949	135.67326635447
3	794	1767.890920765139	145.40938729621
3	795	1777.617757177844	148.57976086528
3	798	1780.402912100686	150.10102942386
3	799	1789.465250893168	147.49463295086
3	800	1790.410497599398	144.61287016847
3	807	1797.103678240882	145.05459220433
3	808	1805.531688930221	140.86628759377
3	809	1807.590863107473	140.55086370653
3	810	1815.793765268896	143.40492211038
3	813	1822.634828332192	142.62906654195
3	823	1840.017785480044	153.60314501479
3	824	1842.422336828048	144.99437583868
3	825	1849.726223718831	151.63528871464
3	830	1859.456722352458	158.92183286745
3	835	1862.514752813848	150.18796805819
3	836	1865.518379223485	144.86315930717
3	839	1875.603132121828	146.58693688581
3	840	1877.805415940204	129.92026218045
3	841	1880.739243839107	131.69064337801
3	842	1883.825421627832	131.69267276576
3	847	1890.57077388586	131.32554565162
3	854	1903.95791621041	137.3050984717
3	855	1907.869346277675	127.97459055306
3	856	1914.249707553187	122.74106624471
3	859	1929.170266575506	136.67512218284
3	870	1945.840688548911	150.23155172427
3	875	1959.08085370624	141.18266423399
3	876	1959.163018402268	132.68587251927
3	883	1966.785901442845	139.44105073646
3	884	1971.61150861145	142.34731060312
3	887	1972.535855628506	118.69844563535
3	888	1979.340250661956	122.24943651351
3	889	1979.876845877883	118.95042958845
3	890	1980.730010326266	119.7095865302
3	901	1994.088610978738	122.05972808176
3	906	2001.142740597422	111.00027702545
3	912	2008.602758306459	118.10059889946
3	913	2009.066240455629	117.15077391302
3	918	2013.249981245014	113.98258713587
3	919	2015.301336350485	112.96806326609
3	920	2018.37424017954	103.44162899405
3	921	2024.419955600795	91.074519700435
3	926	2032.776545159675	98.890071461534
3	933	2043.524911709906	106.76293413928
3	939	2060.471771512532	120.63461670429
3	940	2063.815801553435	121.95514235952
3	941	2065.709529777527	118.77686935104
3	944	2075.785035255513	120.02108440944
3	951	2096.029497382514	132.21757253842
3	956	2106.365941611684	142.35089217964
3	959	2112.333888494314	146.51631654242
3	960	2114.844231345303	142.90163496794
3	963	2121.510532444653	138.03554976863
3	964	2121.530653608989	135.11019166651
3	965	2129.362588430115	141.27029679365
3	966	2139.734185841117	151.59482879972
3	969	2146.454876974264	156.73210487057
3	970	2147.616679108837	150.76943494862
3	977	2168.151528888791	167.10241536537
3	978	2170.919906068118	169.0778246272
3	979	2184.199164641187	174.71922079628
3	982	2190.248937760506	177.62177730705
3	985	2201.524570198431	176.73232321061
3	986	2201.587911887892	171.73604674848
3	989	2220.017610050994	184.48723584522
3	996	2242.166160895002	204.08633516968
3	1001	2261.297878964805	219.81458585713
3	1002	2269.939925996806	223.1131436723
3	1003	2270.641715928499	196.40699104368
3	1004	2273.735927166916	193.82216074729
3	1005	2278.188543657916	195.41456751321
3	1006	2294.931147044734	202.87482592762
3	1007	2295.105610878143	198.22139064049
3	1010	2305.230673542084	199.76252362614
3	1015	2312.065933900316	201.5543459185
3	1018	2316.475730003321	196.99823331364
3	1019	2316.58736413165	174.47253168336
3	1020	2318.780766918016	168.17372635409
3	1025	2328.676267381414	167.8826395173
3	1028	2337.535925471502	174.21809767847
3	1031	2345.754488712431	160.22159193466
3	1034	2351.364683143853	157.47575892535
3	1035	2354.078345124166	138.02263177755
3	1042	2370.319629269897	142.86783628795
3	1043	2370.828237547952	137.45020429149
3	1044	2372.15231172541	132.81048452565
3	1045	2376.629225424531	126.07031053337
3	1046	2387.191658460428	129.1152324621
3	1049	2388.224143762456	91.717651931688
3	1058	2403.562685766833	95.0338082636
3	1061	2417.081754847656	107.3176108708
3	1062	2418.573726872151	105.27938156256
3	1065	2426.92768458446	105.84694444472
3	1068	2438.800211038995	110.93768014376
3	1069	2443.169628242352	108.10509008331
3	1070	2452.371697389292	107.69994444859
3	1071	2452.849650575387	102.87067266853
3	1072	2454.682502921053	99.653337536644
3	1077	2466.091837981021	99.809852428175
3	1080	2471.060296680266	103.78114851605
3	1088	2487.08764761652	99.510668102994
3	1091	2496.901091746185	106.45000747196
3	1092	2498.538473685975	107.04326820324
4	160	356.599406890352	11
4	171	388.101106177111	8
4	177	403.158948763485	9
4	179	404.671257300135	10
4	191	425.074399879554	7
4	201	445.483322038671	5
4	209	483.935540730089	4
4	212	490.35263245687	4
4	220	506.405028027485	4
4	223	522.545048776411	5
4	226	528.734343372678	5
4	228	536.083987584576	6
4	234	551.249347324478	6
4	238	562.60873674158	7
4	240	563.867480835961	8
4	246	576.619757858197	9
4	252	586.834076601689	8
4	254	595.55728855211	9
4	256	597.10458535711	10
4	258	604.812931941783	11
4	271	633.757136721654	11
4	274	647.970783522591	11
4	277	655.34905644015	11
4	279	656.468518046476	12
4	281	661.824175248755	13
4	284	668.241122269066	13
4	286	671.313925790591	14
4	288	673.375958610896	15
4	291	688.258506868413	15
4	296	701.611408714652	16
4	298	707.702232946483	17
4	302	710.142717853848	18
4	311	718.54606490997	18
4	313	719.998845182892	19
4	315	720.188530874903	20
4	319	724.10623898167	21
4	323	733.720048372328	22
4	327	735.341413266788	23
4	338	744.811380038538	24
4	343	747.325799359286	25
4	350	756.921279132968	22
4	354	761.806849626048	23
4	362	790.585999838825	22
4	378	813.875133580967	21
4	380	825.326523127968	22
4	382	831.303983896152	23
4	385	835.759168846664	23
4	391	845.254114681631	24
4	394	850.999438749043	25
4	405	874.262949365986	25
4	411	886.224027360557	26
4	413	887.269639618309	27
4	415	887.890792522973	28
4	428	922.892929367519	28
4	433	933.882054043028	28
4	435	944.470395357904	29
4	441	955.576369814776	29
4	443	957.450630474955	30
4	445	959.812697535782	31
4	449	964.246737821988	31
4	453	965.627024706273	32
4	456	979.517451604183	33
4	458	983.30707124701	34
4	461	992.667686844724	34
4	466	997.18870744697	34
4	469	1001.119833020011	35
4	471	1009.564110955288	36
4	473	1009.955942519419	37
4	478	1015.729185627484	38
4	483	1025.78789567915	36
4	497	1070.332864140911	34
4	504	1102.262330561447	33
4	506	1103.338681643008	34
4	512	1113.91694577653	31
4	514	1116.259960964286	32
4	518	1126.340153418487	31
4	520	1128.099288872743	32
4	532	1181.700292375175	23
4	536	1192.287719526116	24
4	541	1201.006878062373	23
4	545	1203.927683395045	24
4	550	1209.278330165878	25
4	556	1215.55774597579	26
4	562	1221.995555991815	26
4	564	1224.798326076605	27
4	570	1234.566966817312	24
4	572	1236.298241378774	25
4	577	1240.423253677999	26
4	579	1241.592807775924	27
4	581	1252.824490791257	28
4	584	1263.505212762752	28
4	588	1267.320771196494	27
4	590	1268.807893889015	28
4	596	1283.87424722174	28
4	598	1286.063053186813	29
4	605	1315.934952105333	25
4	609	1320.535091682736	24
4	613	1331.397785491519	23
4	621	1348.601102068685	21
4	623	1348.737747852994	22
4	625	1349.759196668243	23
4	629	1359.510216009806	24
4	639	1377.70840520265	23
4	643	1388.906548860189	23
4	645	1389.916896613279	24
4	653	1425.652780336723	22
4	661	1463.143094932568	17
4	666	1484.19630794049	15
4	669	1490.519673904448	15
4	673	1497.64550983778	14
4	684	1535.26478268282	14
4	686	1535.838051947058	15
4	690	1545.122836916072	15
4	692	1551.122305782482	16
4	701	1564.564758504005	16
4	703	1564.766659785467	17
4	705	1565.16642277605	18
4	710	1570.99520666472	18
4	712	1574.319309074357	19
4	720	1613.23501030281	18
4	724	1614.515577955922	19
4	726	1618.96977257512	20
4	732	1622.481533468933	20
4	734	1629.037996312569	21
4	736	1630.301882676822	22
4	741	1641.970617942308	21
4	743	1645.797627430926	22
4	750	1667.039999400943	23
4	752	1672.388843158512	24
4	763	1697.427960989364	23
4	765	1698.090935004186	24
4	769	1700.534889485004	23
4	771	1712.326784755656	24
4	774	1720.655219916318	24
4	777	1729.016195236021	24
4	785	1749.048600461093	21
4	788	1752.132748862071	22
4	791	1759.245228234243	22
4	793	1766.652817738713	23
4	802	1791.508641308481	20
4	804	1792.495144392664	21
4	812	1817.898189472251	19
4	815	1826.477145882993	19
4	817	1827.344850706389	20
4	827	1853.837409993153	19
4	829	1857.090814148443	20
4	832	1860.926416289429	20
4	834	1861.02042379607	21
4	838	1872.028882896978	20
4	846	1890.502159406996	17
4	849	1891.915466542604	18
4	853	1902.333273084399	19
4	858	1914.932611185489	18
4	861	1933.34543590036	18
4	865	1936.761977570621	19
4	867	1939.837154808245	20
4	869	1941.860659193917	21
4	872	1946.932660426483	22
4	874	1955.763950846076	23
4	878	1963.81192484409	22
4	880	1964.015049432046	23
4	882	1965.817571951894	24
4	892	1983.474982676025	20
4	896	1988.09229163647	21
4	898	1988.139357041393	22
4	900	1989.722772103698	23
4	905	2001.049113523423	24
4	915	2009.479943844907	24
4	917	2012.627160453453	25
4	923	2024.792246987819	22
4	930	2038.079825725322	23
4	932	2041.483293107674	24
4	943	2074.234724884822	23
4	946	2079.913766419625	23
4	948	2082.773976144706	24
4	953	2096.88422023765	25
4	955	2105.46814991594	26
4	958	2110.511587981818	26
4	962	2119.477496689677	25
4	968	2142.114832448286	22
4	972	2150.60704056393	21
4	974	2160.793627864118	22
4	976	2163.317827793029	23
4	981	2185.53289677777	21
4	988	2216.055713346613	20
4	991	2227.451792981942	20
4	993	2233.378033256464	21
4	995	2239.341827199759	22
4	1000	2258.076425998331	22
4	1009	2296.506491830768	17
4	1012	2308.528877503233	17
4	1014	2309.764143976854	18
4	1017	2313.294345309596	18
4	1024	2327.862530895238	16
4	1030	2344.671752940697	17
4	1033	2349.978977906862	17
4	1037	2355.029165384409	16
4	1039	2366.281985552846	17
4	1048	2387.576979513526	14
4	1051	2390.451084274226	14
4	1055	2399.15644253749	15
4	1057	2402.913830961558	16
4	1064	2424.26213546139	16
4	1074	2457.905839991901	12
4	1079	2469.699669328347	13
4	1084	2478.578283432714	13
4	1090	2491.497376120721	14
5	160	356.599406890352	10
5	164	378.832231567361	10
5	165	380.657942516933	9
5	166	380.852329910251	8
5	167	386.203537677408	7
5	171	388.101106177111	7
5	177	403.158948763485	8
5	179	404.671257300135	9
5	183	410.092212938118	9
5	184	414.369375415176	8
5	185	417.568347296011	7
5	189	422.616166522557	6
5	191	425.074399879554	6
5	192	429.95409901041	6
5	193	433.897515629802	5
5	194	434.956426053505	4
5	201	445.483322038671	4
5	203	453.522400928637	4
5	204	455.067813446829	3
5	209	483.935540730089	3
5	210	485.750186499216	3
5	212	490.35263245687	3
5	213	496.298015742165	3
5	220	506.405028027485	3
5	223	522.545048776411	4
5	224	527.803008251284	4
5	226	528.734343372678	4
5	228	536.083987584576	5
5	229	540.618403372256	5
5	234	551.249347324478	5
5	238	562.60873674158	6
5	240	563.867480835961	7
5	246	576.619757858197	8
5	247	578.965058329069	8
5	248	579.646811002943	7
5	252	586.834076601689	7
5	254	595.55728855211	8
5	256	597.10458535711	9
5	258	604.812931941783	10
5	260	613.361286733724	10
5	271	633.757136721654	10
5	272	644.326004697947	10
5	274	647.970783522591	10
5	275	654.138555447814	10
5	277	655.34905644015	10
5	279	656.468518046476	11
5	281	661.824175248755	12
5	282	668.156968787345	12
5	284	668.241122269066	12
5	286	671.313925790591	13
5	288	673.375958610896	14
5	289	679.066888061761	14
5	291	688.258506868413	14
5	296	701.611408714652	15
5	298	707.702232946483	16
5	302	710.142717853848	17
5	304	711.270381701665	17
5	311	718.54606490997	17
5	313	719.998845182892	18
5	315	720.188530874903	19
5	319	724.10623898167	20
5	323	733.720048372328	21
5	327	735.341413266788	22
5	338	744.811380038538	23
5	343	747.325799359286	24
5	345	752.691054445791	24
5	346	754.923337285163	23
5	347	756.226214307871	22
5	348	756.653708635013	21
5	350	756.921279132968	21
5	354	761.806849626048	22
5	356	776.699165685588	22
5	357	777.423843150678	21
5	362	790.585999838825	21
5	363	791.555334583263	21
5	364	792.364911592486	20
5	378	813.875133580967	20
5	380	825.326523127968	21
5	382	831.303983896152	22
5	383	833.737476266295	22
5	385	835.759168846664	22
5	391	845.254114681631	23
5	394	850.999438749043	24
5	396	857.577133332138	24
5	405	874.262949365986	24
5	411	886.224027360557	25
5	413	887.269639618309	26
5	415	887.890792522973	27
5	426	921.586413790983	27
5	428	922.892929367519	27
5	429	929.827209927417	27
5	433	933.882054043028	27
5	435	944.470395357904	28
5	437	947.815833089905	28
5	441	955.576369814776	28
5	443	957.450630474955	29
5	445	959.812697535782	30
5	447	963.0815098807	30
5	449	964.246737821988	30
5	453	965.627024706273	31
5	456	979.517451604183	32
5	458	983.30707124701	33
5	459	984.716620954712	33
5	461	992.667686844724	33
5	462	995.421778065527	33
5	466	997.18870744697	33
5	469	1001.119833020011	34
5	471	1009.564110955288	35
5	473	1009.955942519419	36
5	478	1015.729185627484	37
5	479	1016.839970022299	37
5	480	1023.1009588796	36
5	481	1023.230161925596	35
5	483	1025.78789567915	35
5	484	1030.407266642399	35
5	485	1030.650648242833	34
5	495	1069.121256945754	33
5	497	1070.332864140911	33
5	498	1076.686025275841	33
5	499	1086.338911603841	32
5	504	1102.262330561447	32
5	506	1103.338681643008	33
5	507	1104.31602725286	33
5	508	1106.797720994469	32
5	509	1109.1015673859	31
5	510	1113.237401204841	30
5	512	1113.91694577653	30
5	514	1116.259960964286	31
5	515	1124.137954306239	31
5	516	1125.896276294962	30
5	518	1126.340153418487	30
5	520	1128.099288872743	31
5	521	1128.27632426971	31
5	522	1129.038984161351	30
5	523	1129.572346662761	29
5	524	1139.200175678158	28
5	525	1143.358276205048	27
5	526	1147.792374110277	26
5	527	1164.539598425945	25
5	528	1165.247413846776	24
5	529	1168.589079894455	23
5	530	1171.02223545505	22
5	532	1181.700292375175	22
5	536	1192.287719526116	23
5	538	1198.438262315783	23
5	539	1199.329044039667	22
5	541	1201.006878062373	22
5	545	1203.927683395045	23
5	550	1209.278330165878	24
5	556	1215.55774597579	25
5	560	1220.831726341624	25
5	562	1221.995555991815	25
5	564	1224.798326076605	26
5	565	1226.039853829546	26
5	566	1226.176752514936	25
5	567	1226.788044543996	24
5	568	1232.668606624205	23
5	570	1234.566966817312	23
5	572	1236.298241378774	24
5	577	1240.423253677999	25
5	579	1241.592807775924	26
5	581	1252.824490791257	27
5	582	1255.857821677634	27
5	584	1263.505212762752	27
5	585	1265.432857641989	27
5	586	1266.683909462542	26
5	588	1267.320771196494	26
5	590	1268.807893889015	27
5	594	1279.16968972994	27
5	596	1283.87424722174	27
5	598	1286.063053186813	28
5	599	1286.962538856028	28
5	600	1303.853119262845	27
5	601	1306.013520921233	26
5	602	1308.4995548054	25
5	603	1313.234592445163	24
5	605	1315.934952105333	24
5	606	1319.380633397288	24
5	607	1319.764507053359	23
5	609	1320.535091682736	23
5	610	1325.606063516829	23
5	611	1328.238322688634	22
5	613	1331.397785491519	22
5	614	1334.213466989522	22
5	615	1340.875773866047	21
5	619	1346.334100572079	20
5	621	1348.601102068685	20
5	623	1348.737747852994	21
5	625	1349.759196668243	22
5	629	1359.510216009806	23
5	631	1367.686392243159	23
5	632	1369.803394658463	22
5	639	1377.70840520265	22
5	641	1384.561139019116	22
5	643	1388.906548860189	22
5	645	1389.916896613279	23
5	646	1390.375486676275	23
5	647	1395.712194646903	22
5	648	1399.453911880592	21
5	653	1425.652780336723	21
5	654	1429.237846952564	21
5	655	1433.993379718403	20
5	656	1437.736569876941	19
5	657	1455.150889565828	18
5	658	1460.595735234332	17
5	659	1460.954445368513	16
5	661	1463.143094932568	16
5	662	1471.106098659112	16
5	663	1476.479631119605	15
5	664	1476.804473258058	14
5	666	1484.19630794049	14
5	667	1488.007430505368	14
5	669	1490.519673904448	14
5	670	1495.637662495993	14
5	671	1496.693146964119	13
5	673	1497.64550983778	13
5	674	1501.75679135381	13
5	684	1535.26478268282	13
5	686	1535.838051947058	14
5	688	1537.828828256365	14
5	690	1545.122836916072	14
5	692	1551.122305782482	15
5	696	1555.784159635291	15
5	701	1564.564758504005	15
5	703	1564.766659785467	16
5	705	1565.16642277605	17
5	706	1567.39442825448	17
5	710	1570.99520666472	17
5	712	1574.319309074357	18
5	714	1597.904251312932	18
5	718	1609.966364552968	17
5	720	1613.23501030281	17
5	724	1614.515577955922	18
5	726	1618.96977257512	19
5	728	1620.006642510492	19
5	732	1622.481533468933	19
5	734	1629.037996312569	20
5	736	1630.301882676822	21
5	738	1640.434460243491	21
5	739	1641.484332720285	20
5	741	1641.970617942308	20
5	743	1645.797627430926	21
5	750	1667.039999400943	22
5	752	1672.388843158512	23
5	754	1678.821322743132	23
5	761	1693.009295694741	22
5	763	1697.427960989364	22
5	765	1698.090935004186	23
5	766	1698.421066137292	23
5	767	1699.686300936221	22
5	769	1700.534889485004	22
5	771	1712.326784755656	23
5	772	1714.592514554682	23
5	774	1720.655219916318	23
5	775	1721.987398649679	23
5	777	1729.016195236021	23
5	778	1740.35740800061	23
5	779	1742.922100299171	22
5	780	1746.059916067299	21
5	781	1747.46993180013	20
5	785	1749.048600461093	20
5	788	1752.132748862071	21
5	789	1757.750177922949	21
5	791	1759.245228234243	21
5	793	1766.652817738713	22
5	794	1767.890920765139	22
5	795	1777.617757177844	21
5	799	1789.465250893168	20
5	800	1790.410497599398	19
5	802	1791.508641308481	19
5	804	1792.495144392664	20
5	808	1805.531688930221	20
5	809	1807.590863107473	19
5	810	1815.793765268896	18
5	812	1817.898189472251	18
5	813	1822.634828332192	18
5	815	1826.477145882993	18
5	817	1827.344850706389	19
5	824	1842.422336828048	19
5	825	1849.726223718831	18
5	827	1853.837409993153	18
5	829	1857.090814148443	19
5	830	1859.456722352458	19
5	832	1860.926416289429	19
5	834	1861.02042379607	20
5	835	1862.514752813848	20
5	836	1865.518379223485	19
5	838	1872.028882896978	19
5	839	1875.603132121828	19
5	840	1877.805415940204	18
5	841	1880.739243839107	17
5	842	1883.825421627832	16
5	846	1890.502159406996	16
5	849	1891.915466542604	17
5	853	1902.333273084399	18
5	855	1907.869346277675	18
5	856	1914.249707553187	17
5	858	1914.932611185489	17
5	859	1929.170266575506	17
5	861	1933.34543590036	17
5	865	1936.761977570621	18
5	867	1939.837154808245	19
5	869	1941.860659193917	20
5	872	1946.932660426483	21
5	874	1955.763950846076	22
5	875	1959.08085370624	22
5	876	1959.163018402268	21
5	878	1963.81192484409	21
5	880	1964.015049432046	22
5	882	1965.817571951894	23
5	883	1966.785901442845	23
5	884	1971.61150861145	22
5	888	1979.340250661956	21
5	889	1979.876845877883	20
5	890	1980.730010326266	19
5	892	1983.474982676025	19
5	896	1988.09229163647	20
5	898	1988.139357041393	21
5	900	1989.722772103698	22
5	905	2001.049113523423	23
5	913	2009.066240455629	23
5	915	2009.479943844907	23
5	917	2012.627160453453	24
5	918	2013.249981245014	24
5	919	2015.301336350485	23
5	920	2018.37424017954	22
5	921	2024.419955600795	21
5	923	2024.792246987819	21
5	930	2038.079825725322	22
5	932	2041.483293107674	23
5	940	2063.815801553435	23
5	941	2065.709529777527	22
5	943	2074.234724884822	22
5	944	2075.785035255513	22
5	946	2079.913766419625	22
5	948	2082.773976144706	23
5	953	2096.88422023765	24
5	955	2105.46814991594	25
5	956	2106.365941611684	25
5	958	2110.511587981818	25
5	959	2112.333888494314	25
5	960	2114.844231345303	24
5	962	2119.477496689677	24
5	963	2121.510532444653	24
5	964	2121.530653608989	23
5	965	2129.362588430115	22
5	966	2139.734185841117	21
5	968	2142.114832448286	21
5	969	2146.454876974264	21
5	970	2147.616679108837	20
5	972	2150.60704056393	20
5	974	2160.793627864118	21
5	976	2163.317827793029	22
5	977	2168.151528888791	22
5	978	2170.919906068118	21
5	979	2184.199164641187	20
5	981	2185.53289677777	20
5	982	2190.248937760506	20
5	986	2201.587911887892	19
5	988	2216.055713346613	19
5	989	2220.017610050994	19
5	991	2227.451792981942	19
5	993	2233.378033256464	20
5	995	2239.341827199759	21
5	996	2242.166160895002	21
5	1000	2258.076425998331	21
5	1002	2269.939925996806	21
5	1003	2270.641715928499	20
5	1004	2273.735927166916	19
5	1005	2278.188543657916	18
5	1006	2294.931147044734	17
5	1007	2295.105610878143	16
5	1009	2296.506491830768	16
5	1010	2305.230673542084	16
5	1012	2308.528877503233	16
5	1014	2309.764143976854	17
5	1015	2312.065933900316	17
5	1017	2313.294345309596	17
5	1018	2316.475730003321	17
5	1019	2316.58736413165	16
5	1020	2318.780766918016	15
5	1024	2327.862530895238	15
5	1030	2344.671752940697	16
5	1031	2345.754488712431	16
5	1033	2349.978977906862	16
5	1034	2351.364683143853	16
5	1035	2354.078345124166	15
5	1037	2355.029165384409	15
5	1039	2366.281985552846	16
5	1043	2370.828237547952	16
5	1044	2372.15231172541	15
5	1045	2376.629225424531	14
5	1046	2387.191658460428	13
5	1048	2387.576979513526	13
5	1049	2388.224143762456	13
5	1051	2390.451084274226	13
5	1055	2399.15644253749	14
5	1057	2402.913830961558	15
5	1062	2418.573726872151	15
5	1064	2424.26213546139	15
5	1065	2426.92768458446	15
5	1069	2443.169628242352	14
5	1070	2452.371697389292	13
5	1071	2452.849650575387	12
5	1072	2454.682502921053	11
5	1074	2457.905839991901	11
5	1079	2469.699669328347	12
5	1080	2471.060296680266	12
5	1084	2478.578283432714	12
5	1090	2491.497376120721	13
5	1091	2496.901091746185	13
5	1092	2498.538473685975	12
6	162	365.058342191057	1
6	169	388.037052425803	1
6	173	390.927857908176	2
6	181	404.73333087535	1
6	187	419.146910101711	1
6	196	436.823234710174	1
6	199	440.900837049397	1
6	206	466.342603331937	1
6	215	497.116149187221	1
6	218	503.09769978815	1
6	231	541.577288411556	1
6	236	557.379584999622	1
6	243	571.013320665705	1
6	250	581.474923170251	1
6	262	618.964030904645	1
6	265	622.85963881137	1
6	267	624.51956532149	2
6	293	694.407150928009	1
6	300	708.481046712107	1
6	306	715.529536791828	1
6	308	716.879841144914	2
6	317	723.6697040014	2
6	325	734.846307524025	1
6	329	737.31664614593	2
6	332	739.346914019748	2
6	336	743.358100075954	1
6	340	746.078159748484	2
6	352	759.713988500873	1
6	359	777.877727033664	1
6	366	794.561121372008	1
6	368	799.685099640979	2
6	370	804.701437837468	3
6	373	806.963595367265	3
6	387	836.140137449287	1
6	389	841.117217619398	2
6	398	858.339450889291	1
6	401	866.949764860109	1
6	403	870.623974825057	2
6	407	883.238222931355	3
6	417	892.398818790866	2
6	419	896.905318042219	3
6	422	909.552892526914	3
6	431	930.008526162325	1
6	439	951.250248410845	1
6	451	964.447198103986	1
6	464	995.956600520193	1
6	475	1010.030117456946	1
6	487	1031.787232155939	1
6	490	1041.57153689313	1
6	493	1060.559683230173	1
6	501	1092.122097599442	1
6	534	1186.006490948789	1
6	543	1203.356701488495	1
6	547	1205.901663236199	2
6	552	1209.443534644607	2
6	554	1212.660171838827	3
6	574	1236.78984715634	1
6	592	1275.038720804297	1
6	617	1341.831971966471	1
6	627	1356.079627233473	1
6	634	1369.942905406479	1
6	637	1374.84225275845	1
6	650	1418.900678856088	1
6	676	1518.913265032233	1
6	679	1527.272532464144	1
6	682	1534.84794874575	1
6	694	1551.594958035781	1
6	698	1557.582850544547	1
6	708	1568.739307218153	1
6	716	1601.86730711915	1
6	722	1613.347843900331	1
6	730	1622.076911568479	1
6	745	1652.049086036555	1
6	748	1664.665401336451	1
6	756	1680.005761790246	1
6	759	1686.414640465257	1
6	783	1747.885153759755	1
6	797	1779.894755724619	1
6	806	1795.609136824645	1
6	819	1829.264198008331	1
6	821	1830.977423873753	2
6	844	1890.142463571974	1
6	851	1899.267394109141	1
6	863	1933.886473698141	1
6	886	1971.942596377363	1
6	894	1986.420461942477	1
6	903	1996.847244160215	1
6	908	2001.842081440919	1
6	910	2002.393665442616	2
6	925	2029.851865139414	1
6	928	2035.530374205771	1
6	935	2046.826782324502	1
6	937	2048.216878838541	2
6	950	2092.056321117119	1
6	984	2193.888924218505	1
6	998	2250.55891489116	1
6	1022	2321.080740139735	1
6	1027	2335.064538159043	1
6	1041	2367.279148164219	1
6	1053	2391.495205482738	1
6	1060	2409.912083040808	1
6	1067	2434.432498188945	1
6	1076	2463.3924778558	1
6	1082	2476.510344138141	1
6	1086	2480.218280446483	2
7	162	365.058342191057	17
7	169	388.037052425803	18
7	181	404.73333087535	19
7	187	419.146910101711	20
7	196	436.823234710174	21
7	199	440.900837049397	22
7	206	466.342603331937	23
7	215	497.116149187221	24
7	218	503.09769978815	25
7	231	541.577288411556	26
7	236	557.379584999622	27
7	243	571.013320665705	28
7	250	581.474923170251	29
7	262	618.964030904645	30
7	265	622.85963881137	31
7	293	694.407150928009	32
7	300	708.481046712107	33
7	306	715.529536791828	34
7	325	734.846307524025	35
7	336	743.358100075954	36
7	352	759.713988500873	37
7	359	777.877727033664	38
7	366	794.561121372008	39
7	387	836.140137449287	40
7	398	858.339450889291	41
7	401	866.949764860109	42
7	431	930.008526162325	43
7	439	951.250248410845	44
7	451	964.447198103986	45
7	464	995.956600520193	46
7	475	1010.030117456946	47
7	487	1031.787232155939	48
7	490	1041.57153689313	49
7	493	1060.559683230173	50
7	501	1092.122097599442	51
7	534	1186.006490948789	52
7	543	1203.356701488495	53
7	574	1236.78984715634	54
7	592	1275.038720804297	55
7	617	1341.831971966471	56
7	627	1356.079627233473	57
7	634	1369.942905406479	58
7	637	1374.84225275845	59
7	650	1418.900678856088	60
7	676	1518.913265032233	61
7	679	1527.272532464144	62
7	682	1534.84794874575	63
7	694	1551.594958035781	64
7	698	1557.582850544547	65
7	708	1568.739307218153	66
7	716	1601.86730711915	67
7	722	1613.347843900331	68
7	730	1622.076911568479	69
7	745	1652.049086036555	70
7	748	1664.665401336451	71
7	756	1680.005761790246	72
7	759	1686.414640465257	73
7	783	1747.885153759755	74
7	797	1779.894755724619	75
7	806	1795.609136824645	76
7	819	1829.264198008331	77
7	844	1890.142463571974	78
7	851	1899.267394109141	79
7	863	1933.886473698141	80
7	886	1971.942596377363	81
7	894	1986.420461942477	82
7	903	1996.847244160215	83
7	908	2001.842081440919	84
7	925	2029.851865139414	85
7	928	2035.530374205771	86
7	935	2046.826782324502	87
7	950	2092.056321117119	88
7	984	2193.888924218505	89
7	998	2250.55891489116	90
7	1022	2321.080740139735	91
7	1027	2335.064538159043	92
7	1041	2367.279148164219	93
7	1053	2391.495205482738	94
7	1060	2409.912083040808	95
7	1067	2434.432498188945	96
7	1076	2463.3924778558	97
7	1082	2476.510344138141	98
8	162	365.058342191057	0
8	169	388.037052425803	0
8	174	391.960592281154	1.032734372978
8	181	404.73333087535	0
8	187	419.146910101711	0
8	196	436.823234710174	0
8	199	440.900837049397	0
8	206	466.342603331937	0
8	215	497.116149187221	0
8	218	503.09769978815	0
8	231	541.577288411556	0
8	236	557.379584999622	0
8	243	571.013320665705	0
8	250	581.474923170251	0
8	262	618.964030904645	0
8	265	622.85963881137	0
8	268	626.20562943191	1.68606411042
8	293	694.407150928009	0
8	300	708.481046712107	0
8	306	715.529536791828	0
8	309	717.907256870745	1.027415725831
8	320	725.586076601287	1.916372599887
8	325	734.846307524025	0
8	330	738.620396300921	1.303750154991
8	333	740.709973620199	1.363059600451
8	336	743.358100075954	0
8	341	747.298725373986	1.220565625502
8	352	759.713988500873	0
8	359	777.877727033664	0
8	366	794.561121372008	0
8	371	805.620174104178	5.935074463199
8	374	807.99792140141	3.296483563942
8	375	809.933928760073	2.970333392808
8	387	836.140137449287	0
8	392	850.671115601466	9.553897982068
8	398	858.339450889291	0
8	401	866.949764860109	0
8	408	884.856516143525	14.232541318468
8	409	884.991910798173	1.753687866818
8	420	909.233732062962	16.834913272096
8	423	910.234651317407	13.329333275188
8	424	917.488080013919	7.935187487005
8	431	930.008526162325	0
8	439	951.250248410845	0
8	451	964.447198103986	0
8	464	995.956600520193	0
8	475	1010.030117456946	0
8	487	1031.787232155939	0
8	490	1041.57153689313	0
8	493	1060.559683230173	0
8	501	1092.122097599442	0
8	534	1186.006490948789	0
8	543	1203.356701488495	0
8	548	1208.661255281618	2.759592045419
8	557	1216.787855939731	7.344321295124
8	558	1219.704633691675	7.044461852848
8	574	1236.78984715634	0
8	592	1275.038720804297	0
8	617	1341.831971966471	0
8	627	1356.079627233473	0
8	634	1369.942905406479	0
8	637	1374.84225275845	0
8	650	1418.900678856088	0
8	676	1518.913265032233	0
8	679	1527.272532464144	0
8	682	1534.84794874575	0
8	694	1551.594958035781	0
8	698	1557.582850544547	0
8	708	1568.739307218153	0
8	716	1601.86730711915	0
8	722	1613.347843900331	0
8	730	1622.076911568479	0
8	745	1652.049086036555	0
8	748	1664.665401336451	0
8	756	1680.005761790246	0
8	759	1686.414640465257	0
8	783	1747.885153759755	0
8	797	1779.894755724619	0
8	806	1795.609136824645	0
8	819	1829.264198008331	0
8	822	1838.556140678995	7.578716805242
8	844	1890.142463571974	0
8	851	1899.267394109141	0
8	863	1933.886473698141	0
8	886	1971.942596377363	0
8	894	1986.420461942477	0
8	903	1996.847244160215	0
8	908	2001.842081440919	0
8	911	2005.679752280649	3.286086838033
8	925	2029.851865139414	0
8	928	2035.530374205771	0
8	935	2046.826782324502	0
8	938	2051.544910583646	3.328031745105
8	950	2092.056321117119	0
8	984	2193.888924218505	0
8	998	2250.55891489116	0
8	1022	2321.080740139735	0
8	1027	2335.064538159043	0
8	1041	2367.279148164219	0
8	1053	2391.495205482738	0
8	1060	2409.912083040808	0
8	1067	2434.432498188945	0
8	1076	2463.3924778558	0
8	1082	2476.510344138141	0
8	1087	2481.559471509603	1.34119106312
9	164	378.832231567361	25
9	165	380.657942516933	26
9	166	380.852329910251	27
9	167	386.203537677408	28
9	183	410.092212938118	29
9	184	414.369375415176	30
9	185	417.568347296011	31
9	189	422.616166522557	32
9	192	429.95409901041	33
9	193	433.897515629802	34
9	194	434.956426053505	35
9	203	453.522400928637	36
9	204	455.067813446829	37
9	210	485.750186499216	38
9	213	496.298015742165	39
9	224	527.803008251284	40
9	229	540.618403372256	41
9	247	578.965058329069	42
9	248	579.646811002943	43
9	260	613.361286733724	44
9	272	644.326004697947	45
9	275	654.138555447814	46
9	282	668.156968787345	47
9	289	679.066888061761	48
9	304	711.270381701665	49
9	345	752.691054445791	50
9	346	754.923337285163	51
9	347	756.226214307871	52
9	348	756.653708635013	53
9	356	776.699165685588	54
9	357	777.423843150678	55
9	363	791.555334583263	56
9	364	792.364911592486	57
9	383	833.737476266295	58
9	396	857.577133332138	59
9	426	921.586413790983	60
9	429	929.827209927417	61
9	437	947.815833089905	62
9	447	963.0815098807	63
9	459	984.716620954712	64
9	462	995.421778065527	65
9	479	1016.839970022299	66
9	480	1023.1009588796	67
9	481	1023.230161925596	68
9	484	1030.407266642399	69
9	485	1030.650648242833	70
9	495	1069.121256945754	71
9	498	1076.686025275841	72
9	499	1086.338911603841	73
9	507	1104.31602725286	74
9	508	1106.797720994469	75
9	509	1109.1015673859	76
9	510	1113.237401204841	77
9	515	1124.137954306239	78
9	516	1125.896276294962	79
9	521	1128.27632426971	80
9	522	1129.038984161351	81
9	523	1129.572346662761	82
9	524	1139.200175678158	83
9	525	1143.358276205048	84
9	526	1147.792374110277	85
9	527	1164.539598425945	86
9	528	1165.247413846776	87
9	529	1168.589079894455	88
9	530	1171.02223545505	89
9	538	1198.438262315783	90
9	539	1199.329044039667	91
9	560	1220.831726341624	92
9	565	1226.039853829546	93
9	566	1226.176752514936	94
9	567	1226.788044543996	95
9	568	1232.668606624205	96
9	582	1255.857821677634	97
9	585	1265.432857641989	98
9	586	1266.683909462542	99
9	594	1279.16968972994	100
9	599	1286.962538856028	101
9	600	1303.853119262845	102
9	601	1306.013520921233	103
9	602	1308.4995548054	104
9	603	1313.234592445163	105
9	606	1319.380633397288	106
9	607	1319.764507053359	107
9	610	1325.606063516829	108
9	611	1328.238322688634	109
9	614	1334.213466989522	110
9	615	1340.875773866047	111
9	619	1346.334100572079	112
9	631	1367.686392243159	113
9	632	1369.803394658463	114
9	641	1384.561139019116	115
9	646	1390.375486676275	116
9	647	1395.712194646903	117
9	648	1399.453911880592	118
9	654	1429.237846952564	119
9	655	1433.993379718403	120
9	656	1437.736569876941	121
9	657	1455.150889565828	122
9	658	1460.595735234332	123
9	659	1460.954445368513	124
9	662	1471.106098659112	125
9	663	1476.479631119605	126
9	664	1476.804473258058	127
9	667	1488.007430505368	128
9	670	1495.637662495993	129
9	671	1496.693146964119	130
9	674	1501.75679135381	131
9	688	1537.828828256365	132
9	696	1555.784159635291	133
9	706	1567.39442825448	134
9	714	1597.904251312932	135
9	718	1609.966364552968	136
9	728	1620.006642510492	137
9	738	1640.434460243491	138
9	739	1641.484332720285	139
9	754	1678.821322743132	140
9	761	1693.009295694741	141
9	766	1698.421066137292	142
9	767	1699.686300936221	143
9	772	1714.592514554682	144
9	775	1721.987398649679	145
9	778	1740.35740800061	146
9	779	1742.922100299171	147
9	780	1746.059916067299	148
9	781	1747.46993180013	149
9	789	1757.750177922949	150
9	794	1767.890920765139	151
9	795	1777.617757177844	152
9	799	1789.465250893168	153
9	800	1790.410497599398	154
9	808	1805.531688930221	155
9	809	1807.590863107473	156
9	810	1815.793765268896	157
9	813	1822.634828332192	158
9	824	1842.422336828048	159
9	825	1849.726223718831	160
9	830	1859.456722352458	161
9	835	1862.514752813848	162
9	836	1865.518379223485	163
9	839	1875.603132121828	164
9	840	1877.805415940204	165
9	841	1880.739243839107	166
9	842	1883.825421627832	167
9	855	1907.869346277675	168
9	856	1914.249707553187	169
9	859	1929.170266575506	170
9	875	1959.08085370624	171
9	876	1959.163018402268	172
9	883	1966.785901442845	173
9	884	1971.61150861145	174
9	888	1979.340250661956	175
9	889	1979.876845877883	176
9	890	1980.730010326266	177
9	913	2009.066240455629	178
9	918	2013.249981245014	179
9	919	2015.301336350485	180
9	920	2018.37424017954	181
9	921	2024.419955600795	182
9	940	2063.815801553435	183
9	941	2065.709529777527	184
9	944	2075.785035255513	185
9	956	2106.365941611684	186
9	959	2112.333888494314	187
9	960	2114.844231345303	188
9	963	2121.510532444653	189
9	964	2121.530653608989	190
9	965	2129.362588430115	191
9	966	2139.734185841117	192
9	969	2146.454876974264	193
9	970	2147.616679108837	194
9	977	2168.151528888791	195
9	978	2170.919906068118	196
9	979	2184.199164641187	197
9	982	2190.248937760506	198
9	986	2201.587911887892	199
9	989	2220.017610050994	200
9	996	2242.166160895002	201
9	1002	2269.939925996806	202
9	1003	2270.641715928499	203
9	1004	2273.735927166916	204
9	1005	2278.188543657916	205
9	1006	2294.931147044734	206
9	1007	2295.105610878143	207
9	1010	2305.230673542084	208
9	1015	2312.065933900316	209
9	1018	2316.475730003321	210
9	1019	2316.58736413165	211
9	1020	2318.780766918016	212
9	1031	2345.754488712431	213
9	1034	2351.364683143853	214
9	1035	2354.078345124166	215
9	1043	2370.828237547952	216
9	1044	2372.15231172541	217
9	1045	2376.629225424531	218
9	1046	2387.191658460428	219
9	1049	2388.224143762456	220
9	1062	2418.573726872151	221
9	1065	2426.92768458446	222
9	1069	2443.169628242352	223
9	1070	2452.371697389292	224
9	1071	2452.849650575387	225
9	1072	2454.682502921053	226
9	1080	2471.060296680266	227
9	1091	2496.901091746185	228
9	1092	2498.538473685975	229
10	164	378.832231567361	62.93776942892
10	165	380.657942516933	62.940518378912
10	166	380.852329910251	62.398052217579
10	167	386.203537677408	63.63348002231
10	183	410.092212938118	75.960164054705
10	184	414.369375415176	75.644845159211
10	185	417.568347296011	67.573983275153
10	189	422.616166522557	57.5578243315
10	192	429.95409901041	41.917046584607
10	193	433.897515629802	45.796409452691
10	194	434.956426053505	31.79747729002
10	203	453.522400928637	34.375490826926
10	204	455.067813446829	29.993413567275
10	210	485.750186499216	44.849349449819
10	213	496.298015742165	50.814693703494
10	224	527.803008251284	37.450375794414
10	229	540.618403372256	43.502254185035
10	247	578.965058329069	50.230714956391
10	248	579.646811002943	43.562823418367
10	260	613.361286733724	62.111939409246
10	272	644.326004697947	80.458523861986
10	275	654.138555447814	83.125234782109
10	282	668.156968787345	91.537210929148
10	289	679.066888061761	97.59196489151
10	304	711.270381701665	114.16579634455
10	345	752.691054445791	118.93391772414
10	346	754.923337285163	106.95255376257
10	347	756.226214307871	100.87715786772
10	348	756.653708635013	100.18519058854
10	356	776.699165685588	108.45804341652
10	357	777.423843150678	106.10991736009
10	363	791.555334583263	103.29682771485
10	364	792.364911592486	97.957760664477
10	383	833.737476266295	126.03524331981
10	396	857.577133332138	147.43441547829
10	426	921.586413790983	201.58756860809
10	429	929.827209927417	209.63867905251
10	437	947.815833089905	214.09578471758
10	447	963.0815098807	227.74009661391
10	459	984.716620954712	239.90524091617
10	462	995.421778065527	248.09597870624
10	479	1016.839970022299	255.03312039625
10	480	1023.1009588796	245.22323184594
10	481	1023.230161925596	232.64416208677
10	484	1030.407266642399	235.84614527039
10	485	1030.650648242833	216.77551466187
10	495	1069.121256945754	232.98111949647
10	498	1076.686025275841	231.43191059421
10	499	1086.338911603841	235.3394728548
10	507	1104.31602725286	237.36626239275
10	508	1106.797720994469	232.53477162848
10	509	1109.1015673859	222.87754002534
10	510	1113.237401204841	225.96776158653
10	515	1124.137954306239	236.24716178327
10	516	1125.896276294962	203.00334692744
10	521	1128.27632426971	198.26779810739
10	522	1129.038984161351	195.15693011832
10	523	1129.572346662761	185.10195130486
10	524	1139.200175678158	187.94992726731
10	525	1143.358276205048	187.78190639027
10	526	1147.792374110277	190.34174363532
10	527	1164.539598425945	204.72690089016
10	528	1165.247413846776	201.00067602479
10	529	1168.589079894455	204.14188179047
10	530	1171.02223545505	205.39521074878
10	538	1198.438262315783	215.13119106877
10	539	1199.329044039667	206.66135719494
10	560	1220.831726341624	223.64301889465
10	565	1226.039853829546	224.92002080954
10	566	1226.176752514936	216.61264155965
10	567	1226.788044543996	216.83210202458
10	568	1232.668606624205	222.63848916726
10	582	1255.857821677634	230.06992599848
10	585	1265.432857641989	233.64562548605
10	586	1266.683909462542	225.11237256941
10	594	1279.16968972994	208.83682558903
10	599	1286.962538856028	194.84044125659
10	600	1303.853119262845	201.5907887014
10	601	1306.013520921233	202.67483927822
10	602	1308.4995548054	194.58260902887
10	603	1313.234592445163	196.97463148088
10	606	1319.380633397288	193.0404799788
10	607	1319.764507053359	191.66521818062
10	610	1325.606063516829	143.90577114165
10	611	1328.238322688634	142.23183173985
10	614	1334.213466989522	141.92574746341
10	615	1340.875773866047	139.86889580367
10	619	1346.334100572079	142.40641717703
10	631	1367.686392243159	152.12864626737
10	632	1369.803394658463	147.80783866665
10	641	1384.561139019116	148.26289764034
10	646	1390.375486676275	153.58563951994
10	647	1395.712194646903	155.2889409689
10	648	1399.453911880592	157.86110410467
10	654	1429.237846952564	165.73263418981
10	655	1433.993379718403	166.67260852191
10	656	1437.736569876941	168.92867598793
10	657	1455.150889565828	180.11216876153
10	658	1460.595735234332	176.72148801259
10	659	1460.954445368513	174.8913921817
10	662	1471.106098659112	155.17114655378
10	663	1476.479631119605	155.94453943687
10	664	1476.804473258058	145.40668776654
10	667	1488.007430505368	146.1754585389
10	670	1495.637662495993	147.03656042731
10	671	1496.693146964119	147.95539911112
10	674	1501.75679135381	151.99759468557
10	688	1537.828828256365	162.98657549791
10	696	1555.784159635291	166.8776107751
10	706	1567.39442825448	148.49374939839
10	714	1597.904251312932	134.76115638036
10	718	1609.966364552968	119.44669064852
10	728	1620.006642510492	101.09337747826
10	738	1640.434460243491	105.58651149774
10	739	1641.484332720285	106.21955003746
10	754	1678.821322743132	127.69901696065
10	761	1693.009295694741	128.44453719074
10	766	1698.421066137292	133.65440635183
10	767	1699.686300936221	134.51987816017
10	772	1714.592514554682	145.85320733653
10	775	1721.987398649679	150.99219198496
10	778	1740.35740800061	166.03809892625
10	779	1742.922100299171	141.05479318002
10	780	1746.059916067299	132.82490576449
10	781	1747.46993180013	134.1220878998
10	789	1757.750177922949	138.78040534783
10	794	1767.890920765139	145.81400919666
10	795	1777.617757177844	155.13622370891
10	799	1789.465250893168	159.16336821635
10	800	1790.410497599398	148.43987965709
10	808	1805.531688930221	153.48260289367
10	809	1807.590863107473	142.92546177102
10	810	1815.793765268896	148.75376586795
10	813	1822.634828332192	150.24598517368
10	824	1842.422336828048	156.00769636279
10	825	1849.726223718831	152.29826272947
10	830	1859.456722352458	161.36578734827
10	835	1862.514752813848	161.97986332884
10	836	1865.518379223485	153.19159446783
10	839	1875.603132121828	154.94791220551
10	840	1877.805415940204	148.78922070418
10	841	1880.739243839107	132.85409007935
10	842	1883.825421627832	134.77682116674
10	855	1907.869346277675	141.21652853896
10	856	1914.249707553187	134.35495182857
10	859	1929.170266575506	137.66162526702
10	875	1959.08085370624	163.4717168816
10	876	1959.163018402268	141.26482893002
10	883	1966.785901442845	140.30875555985
10	884	1971.61150861145	144.26665790506
10	888	1979.340250661956	125.5028406688
10	889	1979.876845877883	122.78603172944
10	890	1980.730010326266	119.80359403684
10	913	2009.066240455629	118.56408104863
10	918	2013.249981245014	121.33451470241
10	919	2015.301336350485	116.03394224134
10	920	2018.37424017954	116.04096709514
10	921	2024.419955600795	109.48734441531
10	940	2063.815801553435	123.97864674519
10	941	2065.709529777527	123.84887058361
10	944	2075.785035255513	128.85237482903
10	956	2106.365941611684	142.55401676759
10	959	2112.333888494314	148.31883906227
10	960	2114.844231345303	149.02665939341
10	963	2121.510532444653	149.56793606729
10	964	2121.530653608989	138.05567093296
10	965	2129.362588430115	142.94212648764
10	966	2139.734185841117	151.64189420465
10	969	2146.454876974264	158.31551993287
10	970	2147.616679108837	157.89390700514
10	977	2168.151528888791	171.30428472858
10	978	2170.919906068118	169.8707925447
10	979	2184.199164641187	182.35708320027
10	982	2190.248937760506	180.7689939156
10	986	2201.587911887892	176.79566490007
10	989	2220.017610050994	190.16574491158
10	996	2242.166160895002	206.63578668923
10	1002	2269.939925996806	228.45663288913
10	1003	2270.641715928499	223.814933604
10	1004	2273.735927166916	199.50120228209
10	1005	2278.188543657916	198.27477723829
10	1006	2294.931147044734	212.15717090003
10	1007	2295.105610878143	203.04928976102
10	1010	2305.230673542084	208.34645330443
10	1015	2312.065933900316	206.59778398438
10	1018	2316.475730003321	205.9641420215
10	1019	2316.58736413165	197.10986744197
10	1020	2318.780766918016	176.66593446973
10	1031	2345.754488712431	182.4366609194
10	1034	2351.364683143853	165.83178636608
10	1035	2354.078345124166	160.18942090566
10	1043	2370.828237547952	143.37644456601
10	1044	2372.15231172541	138.77427846895
10	1045	2376.629225424531	137.28739822477
10	1046	2387.191658460428	136.63274356927
10	1049	2388.224143762456	130.14771776412
10	1062	2418.573726872151	108.8095828953
10	1065	2426.92768458446	113.63333927486
10	1069	2443.169628242352	115.30709734711
10	1070	2452.371697389292	117.30715923025
10	1071	2452.849650575387	108.17789763469
10	1072	2454.682502921053	104.70352501419
10	1080	2471.060296680266	104.77831112742
10	1091	2496.901091746185	109.32411223266
10	1092	2498.538473685975	108.08738941175
11	1093	2500	0.0916
12	1093	2500	0.0508

