file 63022 1678524321                                           
version 2
run experiments_medium_game_mode1-1495-20230311-09:45:21-16172
attr configname experiments_medium_game_mode1
attr datetime 20230311-09:45:21
attr experiment experiments_medium_game_mode1
attr inifile omnetpp.ini
attr iterationvars "$0=7, $1=7, $2=100"
attr iterationvarsf 7,7,100-
attr measurement "$0=7, $1=7, $2=100"
attr network Network
attr processid 16172
attr repetition 25
attr replication #25
attr resultdir results
attr runnumber 1495
attr seedset 25
param *.boss.arrival_mean 20
param *.boss.service_mean 7
param *.minion.arrival_mean 10
param *.minion.service_mean 7
param *.player.recover_rate_x 100
param **.minion.arrival_distribution 0
param **.minion.service_distribution 0
param **.boss.arrival_distribution 0
param **.boss.service_distribution 0

vector 0 Network.player minion_defeated_stat:vector ETV
attr source signal_minion_defeated
vector 1 Network.player minion_jobs_queue_number_stat:vector ETV
attr source signal_minion_jobs_queue_number
vector 2 Network.player minion_response_time_stat:vector ETV
attr source signal_minion_response_time
vector 3 Network.player minion_waiting_time_stat:vector ETV
attr source signal_minion_waiting_time
vector 4 Network.player minion_jobs_number_stat:vector ETV
attr source signal_minion_jobs_number
vector 5 Network.player boss_jobs_number_stat:vector ETV
attr source signal_boss_jobs_number
vector 6 Network.player boss_jobs_queue_number_stat:vector ETV
attr source signal_boss_jobs_queue_number
vector 7 Network.player minion_recovered_stat:vector ETV
attr source signal_minion_recovered
vector 8 Network.player boss_waiting_time_stat:vector ETV
attr source signal_boss_waiting_time
vector 9 Network.player boss_defeated_stat:vector ETV
attr source signal_boss_defeated
vector 10 Network.player boss_response_time_stat:vector ETV
attr source signal_boss_response_time
vector 11 Network.player minion_throughput:vector ETV
attr source signal_minion_throughput
vector 12 Network.player boss_throughput:vector ETV
attr source signal_boss_throughput
0	2021 4978 173 1119 351.73879485644 2451.894016696387 182 26 207 21203 2972515
1	6999 11032 173 1146 351.73879485644 2498.954044201238 413 12 65 18169 851201
2	18031 7213 173 1119 351.73879485644 2451.894016696387 182 81.779055929015 460.52428747 58212.816218207 19753440.846667
3	25244 10353 173 1144 351.73879485644 2491.018386382419 261 80.424818455008 455.5286111922 81865.212808241 27159680.147574
4	35597 6162 178 1146 362.268301555052 2498.954044201238 231 13 66 10320 492094
5	41759 2833 188 1141 407.023051346512 2475.119593842137 110 1 5 151 263
6	44592 5661 188 1144 407.023051346512 2491.018386382419 220 0 4 82 142
7	50253 2120 188 1141 407.023051346512 2475.119593842137 79 17 95 4424 288824
8	52373 3242 188 1141 407.023051346512 2475.119593842137 110 0 26.294031442968 273.70094357896 4241.9718083252
9	55615 2970 189 1144 410.04179882869 2491.018386382419 110 22 131 8415 754655
10	58585 4396 189 1144 410.04179882869 2491.018386382419 110 0.018774068682 34.303546360196 985.90082849395 16382.295907737
11	62981 20 1147 1147 2500 2500 1 0.0828 0.0828 0.0828 0.00685584
12	63001 20 1147 1147 2500 2500 1 0.0524 0.0524 0.0524 0.00274576

