file 70337 1678524169                                           
version 2
run experiments_medium_game_mode1-826-20230311-09:42:49-12821
attr configname experiments_medium_game_mode1
attr datetime 20230311-09:42:49
attr experiment experiments_medium_game_mode1
attr inifile omnetpp.ini
attr iterationvars "$0=6, $1=6, $2=100"
attr iterationvarsf 6,6,100-
attr measurement "$0=6, $1=6, $2=100"
attr network Network
attr processid 12821
attr repetition 16
attr replication #16
attr resultdir results
attr runnumber 826
attr seedset 16
param *.boss.arrival_mean 20
param *.boss.service_mean 6
param *.minion.arrival_mean 10
param *.minion.service_mean 6
param *.player.recover_rate_x 100
param **.minion.arrival_distribution 0
param **.minion.service_distribution 0
param **.boss.arrival_distribution 0
param **.boss.service_distribution 0

vector 0 Network.player minion_defeated_stat:vector ETV
attr source signal_minion_defeated
vector 1 Network.player minion_jobs_queue_number_stat:vector ETV
attr source signal_minion_jobs_queue_number
vector 2 Network.player minion_response_time_stat:vector ETV
attr source signal_minion_response_time
vector 3 Network.player minion_waiting_time_stat:vector ETV
attr source signal_minion_waiting_time
vector 4 Network.player minion_jobs_number_stat:vector ETV
attr source signal_minion_jobs_number
vector 5 Network.player boss_jobs_number_stat:vector ETV
attr source signal_boss_jobs_number
vector 6 Network.player boss_jobs_queue_number_stat:vector ETV
attr source signal_boss_jobs_queue_number
vector 7 Network.player minion_recovered_stat:vector ETV
attr source signal_minion_recovered
vector 8 Network.player boss_waiting_time_stat:vector ETV
attr source signal_boss_waiting_time
vector 9 Network.player boss_defeated_stat:vector ETV
attr source signal_boss_defeated
vector 10 Network.player boss_response_time_stat:vector ETV
attr source signal_boss_response_time
vector 11 Network.player minion_throughput:vector ETV
attr source signal_minion_throughput
vector 12 Network.player boss_throughput:vector ETV
attr source signal_boss_throughput
0	2019 5891 154 1219 356.778665406656 2498.392705144464 214 26 239 28355 4573715
1	7910 11706 154 1219 356.778665406656 2498.392705144464 442 0 27 5637 94461
2	19616 8504 154 1219 356.778665406656 2498.392705144464 214 3.742009341829 192.66437093406 20141.404326482 2405438.3018553
3	28120 11138 154 1219 356.778665406656 2498.392705144464 281 0 192.07961728772 24609.797508177 2807215.6976626
4	39258 6054 160 1213 368.8046549948 2480.211963592418 228 1 28 3134 54478
5	45312 3386 164 1199 369.138949755894 2458.382625969776 132 1 6 225 507
6	48698 6775 164 1200 369.138949755894 2460.858812824398 264 0 5 186 378
7	55473 1794 164 1199 369.138949755894 2458.382625969776 67 5 71 2546 121806
8	57267 4173 164 1199 369.138949755894 2458.382625969776 132 0 23.563202384139 511.8254320167 7340.3635585733
9	61440 3576 165 1200 374.515959558876 2460.858812824398 132 23 154 11682 1225510
10	65016 5280 165 1200 374.515959558876 2460.858812824398 132 0.050684914269 35.195053879066 1320.6708764899 23326.49084706
11	70296 20 1220 1220 2500 2500 1 0.0956 0.0956 0.0956 0.00913936
12	70316 20 1220 1220 2500 2500 1 0.0616 0.0616 0.0616 0.00379456

