file 58228 1678524006                                           
version 2
run experiments_medium_game_mode1-44-20230311-09:40:06-8881
attr configname experiments_medium_game_mode1
attr datetime 20230311-09:40:06
attr experiment experiments_medium_game_mode1
attr inifile omnetpp.ini
attr iterationvars "$0=5, $1=3, $2=100"
attr iterationvarsf 5,3,100-
attr measurement "$0=5, $1=3, $2=100"
attr network Network
attr processid 8881
attr repetition 14
attr replication #14
attr resultdir results
attr runnumber 44
attr seedset 14
param *.boss.arrival_mean 20
param *.boss.service_mean 5
param *.minion.arrival_mean 10
param *.minion.service_mean 3
param *.player.recover_rate_x 100
param **.minion.arrival_distribution 0
param **.minion.service_distribution 0
param **.boss.arrival_distribution 0
param **.boss.service_distribution 0

vector 0 Network.player boss_defeated_stat:vector ETV
attr source signal_boss_defeated
vector 1 Network.player boss_jobs_queue_number_stat:vector ETV
attr source signal_boss_jobs_queue_number
vector 2 Network.player boss_response_time_stat:vector ETV
attr source signal_boss_response_time
vector 3 Network.player minion_jobs_number_stat:vector ETV
attr source signal_minion_jobs_number
vector 4 Network.player minion_jobs_queue_number_stat:vector ETV
attr source signal_minion_jobs_queue_number
vector 5 Network.player minion_waiting_time_stat:vector ETV
attr source signal_minion_waiting_time
vector 6 Network.player boss_jobs_number_stat:vector ETV
attr source signal_boss_jobs_number
vector 7 Network.player minion_recovered_stat:vector ETV
attr source signal_minion_recovered
vector 8 Network.player boss_waiting_time_stat:vector ETV
attr source signal_boss_waiting_time
vector 9 Network.player minion_defeated_stat:vector ETV
attr source signal_minion_defeated
vector 10 Network.player minion_response_time_stat:vector ETV
attr source signal_minion_response_time
vector 11 Network.player minion_throughput:vector ETV
attr source signal_minion_throughput
vector 12 Network.player boss_throughput:vector ETV
attr source signal_boss_throughput
0	2015 2685 150 1052 352.751019310738 2466.815224556288 100 15 114 6450 499350
1	4700 5110 150 1052 352.751019310738 2466.815224556288 199 0 1 28 28
2	9810 3882 150 1052 352.751019310738 2466.815224556288 100 0.181609640197 18.198466651259 555.59233893366 4911.5023792425
3	13692 5294 152 1063 355.033945535691 2493.000563500548 206 1 7 414 1278
4	18986 10586 152 1065 355.033945535691 2498.099266572706 412 0 6 416 1312
5	29572 8408 152 1064 355.033945535691 2496.070619428416 247 0 30.991206332961 1367.0921649139 20973.10418165
6	37980 2540 154 1051 357.206506079018 2464.141668652333 99 1 2 113 141
7	40520 1089 154 1051 357.206506079018 2464.141668652333 41 4 44 984 29356
8	41609 2724 154 1051 357.206506079018 2464.141668652333 99 0 12.497347293756 63.478895429832 497.16622616235
9	44333 5640 158 1065 361.480429651276 2498.099266572706 206 36 241 28531 4680011
10	49973 8214 158 1065 361.480429651276 2498.099266572706 206 0.011293207238 35.071048950656 1778.0028700289 30035.681257045
11	58187 20 1066 1066 2500 2500 1 0.0964 0.0964 0.0964 0.00929296
12	58207 20 1066 1066 2500 2500 1 0.0456 0.0456 0.0456 0.00207936

