version 2
run experiments_medium_game_mode1-155-20230311-09:40:29-9448
attr configname experiments_medium_game_mode1
attr datetime 20230311-09:40:29
attr experiment experiments_medium_game_mode1
attr inifile omnetpp.ini
attr iterationvars "$0=5, $1=5, $2=100"
attr iterationvarsf 5,5,100-
attr measurement "$0=5, $1=5, $2=100"
attr network Network
attr processid 9448
attr repetition 5
attr replication #5
attr resultdir results
attr runnumber 155
attr seedset 5
param *.boss.arrival_mean 20
param *.boss.service_mean 5
param *.minion.arrival_mean 10
param *.minion.service_mean 5
param *.player.recover_rate_x 100
param **.minion.arrival_distribution 0
param **.minion.service_distribution 0
param **.boss.arrival_distribution 0
param **.boss.service_distribution 0

vector 0 Network.player boss_defeated_stat:vector ETV
attr source signal_boss_defeated
vector 1 Network.player boss_jobs_queue_number_stat:vector ETV
attr source signal_boss_jobs_queue_number
vector 2 Network.player boss_response_time_stat:vector ETV
attr source signal_boss_response_time
vector 3 Network.player minion_jobs_number_stat:vector ETV
attr source signal_minion_jobs_number
vector 4 Network.player minion_jobs_queue_number_stat:vector ETV
attr source signal_minion_jobs_queue_number
vector 5 Network.player minion_waiting_time_stat:vector ETV
attr source signal_minion_waiting_time
vector 6 Network.player minion_defeated_stat:vector ETV
attr source signal_minion_defeated
vector 7 Network.player minion_response_time_stat:vector ETV
attr source signal_minion_response_time
vector 8 Network.player boss_jobs_number_stat:vector ETV
attr source signal_boss_jobs_number
vector 9 Network.player boss_waiting_time_stat:vector ETV
attr source signal_boss_waiting_time
vector 10 Network.player minion_recovered_stat:vector ETV
attr source signal_minion_recovered
vector 11 Network.player minion_throughput:vector ETV
attr source signal_minion_throughput
vector 12 Network.player boss_throughput:vector ETV
attr source signal_boss_throughput
0	132	352.153959226776	19
0	143	384.69280911483	20
0	144	384.705148719596	21
0	147	392.482374793744	22
0	161	412.705211130998	23
0	172	441.531727928661	24
0	175	452.343563383107	25
0	176	452.343978869191	26
0	185	468.891454611709	27
0	207	526.417460262455	28
0	212	530.870354257102	29
0	213	533.586420236173	30
0	214	552.767964943804	31
0	217	558.489530617745	32
0	220	567.814208826407	33
0	223	574.798551494121	34
0	246	628.11473213203	35
0	254	642.546476969679	36
0	266	664.17758241064	37
0	267	666.68972877646	38
0	270	671.199275535015	39
0	291	715.306736918413	40
0	310	749.903906968698	41
0	332	802.030438096236	42
0	341	827.780229350482	43
0	372	883.044307710069	44
0	378	887.922958595102	45
0	385	895.543049325011	46
0	392	907.591083990979	47
0	401	918.584068381125	48
0	406	935.022515319217	49
0	424	965.218297256321	50
0	435	982.591652479872	51
0	443	993.185950264623	52
0	461	1018.987042073783	53
0	483	1088.314506891259	54
0	484	1090.441489807599	55
0	494	1110.419174333675	56
0	511	1169.126654541772	57
0	528	1199.437235879577	58
0	551	1281.786542774799	59
0	571	1334.879190531219	60
0	588	1363.149784318676	61
0	607	1412.491568744757	62
0	617	1448.728424851259	63
0	625	1465.554158252425	64
0	626	1466.188933255895	65
0	630	1474.729489876305	66
0	637	1483.128397108793	67
0	643	1504.98893954686	68
0	660	1541.622308759249	69
0	663	1547.026002522998	70
0	668	1571.563760989928	71
0	697	1632.039400920458	72
0	705	1650.09608815842	73
0	710	1662.751489283489	74
0	711	1665.873193352555	75
0	723	1678.68321485218	76
0	732	1692.104979253927	77
0	739	1704.613992080955	78
0	746	1713.944045116367	79
0	755	1740.275274389941	80
0	760	1746.071274878812	81
0	779	1812.445026922555	82
0	784	1819.872577436233	83
0	789	1831.601341753254	84
0	790	1836.934664151769	85
0	796	1854.292799308779	86
0	799	1858.655424758866	87
0	807	1868.973370291887	88
0	810	1870.082691133772	89
0	818	1883.840859431133	90
0	827	1907.548248491526	91
0	835	1944.937328115123	92
0	845	1970.870615890977	93
0	848	1979.684186589338	94
0	853	1984.884514547349	95
0	864	2005.504154040987	96
0	867	2009.84951805665	97
0	881	2043.604316702735	98
0	891	2068.65135966665	99
0	897	2076.399424914474	100
0	905	2092.243061902602	101
0	910	2102.779165017444	102
0	920	2120.283816049611	103
0	926	2131.235981524293	104
0	932	2157.943203256875	105
0	946	2177.41957526298	106
0	952	2191.834015886391	107
0	953	2191.971899365691	108
0	993	2265.177139724753	109
0	1009	2295.510252125768	110
0	1016	2319.55534565468	111
0	1041	2371.472353185635	112
0	1042	2374.606931049781	113
0	1052	2386.87237976446	114
0	1053	2397.431203829804	115
0	1065	2437.764480382394	116
0	1066	2438.562408681822	117
0	1074	2463.969349622183	118
0	1077	2470.145155841424	119
0	1080	2478.978392042899	120
1	132	352.153959226776	0
1	140	381.910508285344	0
1	142	382.12216177113	1
1	143	384.69280911483	1
1	144	384.705148719596	0
1	146	385.458599038288	0
1	147	392.482374793744	0
1	152	401.932998597983	0
1	154	404.293112790177	1
1	161	412.705211130998	1
1	169	437.903864460807	1
1	171	439.767450543379	2
1	172	441.531727928661	2
1	175	452.343563383107	1
1	176	452.343978869191	0
1	184	467.105152708054	0
1	185	468.891454611709	0
1	200	507.778352471988	0
1	202	511.970843354015	1
1	204	523.641403692857	2
1	206	523.764599663184	3
1	207	526.417460262455	3
1	209	526.525142992614	3
1	212	530.870354257102	3
1	213	533.586420236173	2
1	214	552.767964943804	1
1	216	556.097184880185	1
1	217	558.489530617745	1
1	219	564.45633319999	1
1	220	567.814208826407	1
1	223	574.798551494121	0
1	245	627.778284939314	0
1	246	628.11473213203	0
1	253	638.222539276565	0
1	254	642.546476969679	0
1	263	662.431607004495	0
1	265	662.436923341715	1
1	266	664.17758241064	1
1	267	666.68972877646	0
1	269	669.501349085891	0
1	270	671.199275535015	0
1	290	712.041199677948	0
1	291	715.306736918413	0
1	307	741.260931673624	0
1	310	749.903906968698	0
1	329	799.551242766425	0
1	332	802.030438096236	0
1	340	822.860284331871	0
1	341	827.780229350482	0
1	369	877.543810870645	0
1	372	883.044307710069	0
1	377	887.337605029767	0
1	378	887.922958595102	0
1	380	888.487505027603	0
1	385	895.543049325011	0
1	391	907.588439234243	0
1	392	907.591083990979	0
1	394	909.614822051967	0
1	401	918.584068381125	0
1	403	920.771602651114	0
1	406	935.022515319217	0
1	423	964.27347470108	0
1	424	965.218297256321	0
1	434	981.828805080065	0
1	435	982.591652479872	0
1	442	991.993690733228	0
1	443	993.185950264623	0
1	456	1016.249624094874	0
1	461	1018.987042073783	0
1	478	1077.928705248913	0
1	480	1080.302015026252	1
1	483	1088.314506891259	1
1	484	1090.441489807599	0
1	493	1107.584578418003	0
1	494	1110.419174333675	0
1	506	1158.933809594803	0
1	511	1169.126654541772	0
1	527	1188.996723057024	0
1	528	1199.437235879577	0
1	550	1278.988197943606	0
1	551	1281.786542774799	0
1	570	1331.699076905576	0
1	571	1334.879190531219	0
1	583	1354.3265869964	0
1	588	1363.149784318676	0
1	606	1410.690821772367	0
1	607	1412.491568744757	0
1	614	1442.401810080516	0
1	617	1448.728424851259	0
1	620	1458.263650676793	0
1	622	1458.853799594753	1
1	625	1465.554158252425	1
1	626	1466.188933255895	0
1	629	1474.67750170795	0
1	630	1474.729489876305	0
1	632	1478.591938273987	0
1	637	1483.128397108793	0
1	640	1499.350124495382	0
1	643	1504.98893954686	0
1	659	1540.927398831871	0
1	660	1541.622308759249	0
1	662	1543.83572861612	0
1	663	1547.026002522998	0
1	667	1571.160236717777	0
1	668	1571.563760989928	0
1	692	1627.011532211296	0
1	697	1632.039400920458	0
1	700	1641.200728983196	0
1	704	1649.139788179428	1
1	705	1650.09608815842	1
1	707	1651.886764969815	1
1	710	1662.751489283489	1
1	711	1665.873193352555	0
1	722	1677.97722850772	0
1	723	1678.68321485218	0
1	731	1691.221218932796	0
1	732	1692.104979253927	0
1	734	1695.469903337416	0
1	739	1704.613992080955	0
1	741	1709.973952942435	0
1	746	1713.944045116367	0
1	754	1734.173751778239	0
1	755	1740.275274389941	0
1	759	1741.631715878164	0
1	760	1746.071274878812	0
1	770	1795.251777029999	0
1	772	1796.186514870931	1
1	778	1810.233699922377	2
1	779	1812.445026922555	2
1	784	1819.872577436233	1
1	786	1821.747407345427	1
1	789	1831.601341753254	1
1	790	1836.934664151769	0
1	795	1852.560548192826	0
1	796	1854.292799308779	0
1	798	1854.576513861016	0
1	799	1858.655424758866	0
1	806	1868.175832967458	0
1	807	1868.973370291887	0
1	809	1869.101112407136	0
1	810	1870.082691133772	0
1	815	1883.079443135498	0
1	818	1883.840859431133	0
1	826	1906.172223784969	0
1	827	1907.548248491526	0
1	834	1929.509174591028	0
1	835	1944.937328115123	0
1	842	1967.343964080476	0
1	845	1970.870615890977	0
1	847	1979.682068380707	0
1	848	1979.684186589338	0
1	850	1982.357432335051	0
1	853	1984.884514547349	0
1	863	2003.786686497585	0
1	864	2005.504154040987	0
1	866	2006.5504223079	0
1	867	2009.84951805665	0
1	880	2040.249635521158	0
1	881	2043.604316702735	0
1	884	2053.063007369747	0
1	891	2068.65135966665	0
1	896	2076.247451695774	0
1	897	2076.399424914474	0
1	900	2080.649378436169	0
1	902	2086.329528345313	1
1	905	2092.243061902602	1
1	910	2102.779165017444	0
1	919	2116.760152658708	0
1	920	2120.283816049611	0
1	925	2130.649701280081	0
1	926	2131.235981524293	0
1	929	2149.349687489204	0
1	932	2157.943203256875	0
1	941	2171.319197265902	0
1	946	2177.41957526298	0
1	949	2183.040962897326	0
1	951	2183.478361293144	1
1	952	2191.834015886391	1
1	953	2191.971899365691	0
1	992	2263.858396856056	0
1	993	2265.177139724753	0
1	1008	2294.457992447564	0
1	1009	2295.510252125768	0
1	1015	2319.143568197383	0
1	1016	2319.55534565468	0
1	1036	2364.097716176362	0
1	1040	2369.034416376807	1
1	1041	2371.472353185635	1
1	1042	2374.606931049781	0
1	1045	2379.332298766566	0
1	1049	2382.99845866801	1
1	1052	2386.87237976446	1
1	1053	2397.431203829804	0
1	1060	2420.064793868789	0
1	1064	2435.541766541786	1
1	1065	2437.764480382394	1
1	1066	2438.562408681822	0
1	1073	2461.309526535168	0
1	1074	2463.969349622183	0
1	1076	2468.83020005602	0
1	1077	2470.145155841424	0
1	1079	2471.034788360199	0
1	1080	2478.978392042899	0
2	132	352.153959226776	2.654547265895
2	143	384.69280911483	2.782300829486
2	144	384.705148719596	2.582986948466
2	147	392.482374793744	7.023775755456
2	161	412.705211130998	10.772212533015
2	172	441.531727928661	37.238615138484
2	175	452.343563383107	14.4396989223
2	176	452.343978869191	12.576528325812
2	185	468.891454611709	1.786301903655
2	207	526.417460262455	18.639107790467
2	212	530.870354257102	18.899510903087
2	213	533.586420236173	9.945016543316
2	214	552.767964943804	29.00336528062
2	217	558.489530617745	31.964387625131
2	220	567.814208826407	11.717023946222
2	223	574.798551494121	10.342218294131
2	246	628.11473213203	0.336447192716
2	254	642.546476969679	4.323937693114
2	266	664.17758241064	1.745975406145
2	267	666.68972877646	4.252805434745
2	270	671.199275535015	1.697926449124
2	291	715.306736918413	3.265537240465
2	310	749.903906968698	8.642975295074
2	332	802.030438096236	2.479195329811
2	341	827.780229350482	4.919945018611
2	372	883.044307710069	5.500496839424
2	378	887.922958595102	0.585353565335
2	385	895.543049325011	7.055544297408
2	392	907.591083990979	0.002644756736
2	401	918.584068381125	8.969246329158
2	406	935.022515319217	14.250912668103
2	424	965.218297256321	0.944822555241
2	435	982.591652479872	0.762847399807
2	443	993.185950264623	1.192259531395
2	461	1018.987042073783	2.737417978909
2	483	1088.314506891259	10.385801642346
2	484	1090.441489807599	10.139474781347
2	494	1110.419174333675	2.834595915672
2	511	1169.126654541772	10.192844946969
2	528	1199.437235879577	10.440512822553
2	551	1281.786542774799	2.798344831193
2	571	1334.879190531219	3.180113625643
2	588	1363.149784318676	8.823197322276
2	607	1412.491568744757	1.80074697239
2	617	1448.728424851259	6.326614770743
2	625	1465.554158252425	7.290507575632
2	626	1466.188933255895	7.335133661142
2	630	1474.729489876305	0.051988168355
2	637	1483.128397108793	4.536458834806
2	643	1504.98893954686	5.638815051478
2	660	1541.622308759249	0.694909927378
2	663	1547.026002522998	3.190273906878
2	668	1571.563760989928	0.403524272151
2	697	1632.039400920458	5.027868709162
2	705	1650.09608815842	8.895359175224
2	710	1662.751489283489	13.611701104061
2	711	1665.873193352555	13.98642838274
2	723	1678.68321485218	0.70598634446
2	732	1692.104979253927	0.883760321131
2	739	1704.613992080955	9.144088743539
2	746	1713.944045116367	3.970092173932
2	755	1740.275274389941	6.101522611702
2	760	1746.071274878812	4.439559000648
2	779	1812.445026922555	17.193249892556
2	784	1819.872577436233	23.686062565302
2	789	1831.601341753254	21.367641830877
2	790	1836.934664151769	15.187256806342
2	796	1854.292799308779	1.732251115953
2	799	1858.655424758866	4.07891089785
2	807	1868.973370291887	0.797537324429
2	810	1870.082691133772	0.981578726636
2	818	1883.840859431133	0.761416295635
2	827	1907.548248491526	1.376024706557
2	835	1944.937328115123	15.428153524095
2	845	1970.870615890977	3.526651810501
2	848	1979.684186589338	0.002118208631
2	853	1984.884514547349	2.527082212298
2	864	2005.504154040987	1.717467543402
2	867	2009.84951805665	3.29909574875
2	881	2043.604316702735	3.354681181577
2	891	2068.65135966665	15.588352296903
2	897	2076.399424914474	0.1519732187
2	905	2092.243061902602	11.593683466433
2	910	2102.779165017444	16.449636672131
2	920	2120.283816049611	3.523663390903
2	926	2131.235981524293	0.586280244212
2	932	2157.943203256875	8.593515767671
2	946	2177.41957526298	6.100377997078
2	952	2191.834015886391	8.793052989065
2	953	2191.971899365691	8.493538072547
2	993	2265.177139724753	1.318742868697
2	1009	2295.510252125768	1.052259678204
2	1016	2319.55534565468	0.411777457297
2	1041	2371.472353185635	7.374637009273
2	1042	2374.606931049781	5.572514672974
2	1052	2386.87237976446	7.540080997894
2	1053	2397.431203829804	14.432745161794
2	1065	2437.764480382394	17.699686513605
2	1066	2438.562408681822	3.020642140036
2	1074	2463.969349622183	2.659823087015
2	1077	2470.145155841424	1.314955785404
2	1080	2478.978392042899	7.9436036827
3	134	354.172507827807	1
3	137	373.165573927013	1
3	149	393.279838510632	1
3	156	408.207277351423	1
3	158	411.99829745011	2
3	160	412.37183081957	3
3	163	436.073400872944	4
3	165	437.314233815506	5
3	167	437.327952946813	6
3	174	451.242256151972	7
3	180	459.810452974783	6
3	182	462.544540123058	7
3	187	468.979055047066	8
3	189	471.920162134502	9
3	191	475.095408618298	10
3	195	494.588354537745	9
3	198	497.713550616588	9
3	211	527.626775085374	10
3	222	571.143215401286	11
3	226	579.391432256081	11
3	235	605.943574795199	5
3	237	607.913223543641	6
3	239	609.957947543076	7
3	243	624.665666816139	6
3	249	630.706851864441	6
3	251	637.487093734645	7
3	256	643.417267897842	8
3	259	653.393714807935	8
3	261	656.310268947339	9
3	274	674.6047529137	8
3	281	695.335114389194	4
3	283	701.516242444663	5
3	286	704.925125838561	5
3	288	711.815483747498	6
3	293	715.664169776615	7
3	299	727.040126940911	4
3	304	735.618888755847	2
3	309	746.139589939481	2
3	314	762.644089716245	1
3	317	765.774707186922	1
3	319	768.538631314541	2
3	321	769.235612506848	3
3	326	787.248359323836	1
3	331	802.008149240264	1
3	335	815.757023724541	1
3	338	822.315232027055	1
3	343	828.136835226231	2
3	345	832.129773314188	3
3	347	833.062464632352	4
3	350	840.209054935251	4
3	353	845.043579502083	4
3	355	848.103789288935	5
3	359	853.51756743213	4
3	362	857.235620783026	4
3	366	871.716141047027	3
3	371	881.573981200952	3
3	375	883.796395950465	3
3	382	891.948409974863	4
3	384	892.451265341315	5
3	387	896.287023108023	6
3	389	907.496880138223	7
3	396	912.519557305623	8
3	398	912.719751269411	9
3	400	915.703469079402	10
3	405	931.627609079209	11
3	409	940.35611761368	11
3	413	952.926673196333	10
3	416	954.689615315032	10
3	418	958.18994317615	11
3	426	967.306304503991	9
3	428	971.293520383222	10
3	437	988.770386098451	7
3	440	991.89196686214	7
3	445	993.592636988663	8
3	447	995.06088645478	9
3	450	1008.314780315635	9
3	454	1012.966214610902	8
3	458	1018.219575777321	9
3	460	1018.378246406112	10
3	464	1033.460060157527	10
3	467	1037.687100701228	10
3	471	1053.982005230281	9
3	482	1087.119359711866	5
3	488	1102.540491660609	4
3	491	1104.720238786165	4
3	496	1113.692156924454	5
3	503	1148.073931961739	1
3	508	1158.994943503307	1
3	510	1159.869971217089	2
3	513	1170.270592856227	3
3	516	1172.886145916887	3
3	519	1178.431073673036	3
3	522	1180.180260533885	3
3	525	1187.386849011417	3
3	533	1213.938108252133	1
3	536	1220.894768537029	1
3	539	1246.89843674697	1
3	541	1247.276325723585	2
3	545	1266.056222790817	1
3	548	1278.370214318002	1
3	553	1284.448987743469	2
3	556	1294.136166031973	2
3	558	1301.96258254879	3
3	563	1317.004740683419	1
3	565	1321.089472312076	2
3	568	1327.240403897141	2
3	575	1339.31192988468	1
3	578	1344.089152158986	1
3	581	1354.139097917223	1
3	585	1357.590687385923	2
3	587	1362.401640317386	3
3	593	1370.548662839093	1
3	596	1393.477834516225	1
3	599	1394.357009853883	1
3	601	1399.467597341814	2
3	604	1409.444819982285	2
3	610	1413.916469106427	2
3	616	1442.842899766702	1
3	624	1460.245386861678	1
3	634	1482.431277285998	1
3	636	1482.922469037112	2
3	642	1504.007678257348	2
3	645	1516.603279450633	3
3	650	1520.830688733209	1
3	652	1521.897440116271	2
3	656	1534.041056993256	1
3	665	1567.933072131845	1
3	670	1575.426811134132	2
3	673	1577.614321941095	2
3	677	1588.382349111459	1
3	680	1604.98445020996	1
3	683	1608.10816906207	1
3	685	1611.611585584382	2
3	688	1620.970579796187	2
3	694	1629.016241169596	1
3	696	1629.509796788956	2
3	702	1645.107593448206	2
3	709	1656.998456245854	3
3	713	1667.385312246145	4
3	716	1670.941665386543	4
3	720	1677.340756018396	3
3	725	1679.151605878875	4
3	736	1698.499432454028	1
3	738	1702.537875751213	2
3	743	1710.023199632792	3
3	745	1711.831678986269	4
3	748	1715.794270075167	5
3	757	1740.402810295447	2
3	764	1754.371851842985	1
3	767	1757.712952114246	1
3	774	1803.563631578393	1
3	776	1804.702121163114	2
3	781	1813.945618333506	3
3	783	1815.189939142241	4
3	788	1830.000877789753	5
3	793	1844.087242559274	5
3	803	1865.352465476735	4
3	817	1883.609421275364	1
3	820	1885.977274496929	2
3	822	1886.339112843074	3
3	830	1925.322903074237	1
3	832	1926.617656675168	2
3	837	1946.452518246029	3
3	844	1968.617331088617	1
3	852	1983.774184273965	2
3	856	1991.012150132266	2
3	858	1995.96333466045	3
3	869	2021.788839862228	1
3	871	2027.965610252793	2
3	875	2036.670246191136	1
3	878	2038.612038391061	1
3	886	2053.451391923639	1
3	888	2059.720372977221	2
3	890	2065.213904978399	3
3	893	2070.960011779213	4
3	904	2088.416297189241	3
3	907	2094.55514914724	4
3	909	2099.423059657969	5
3	914	2109.526301819064	4
3	916	2113.901216392289	5
3	931	2152.7373224416	1
3	934	2158.324858173646	2
3	938	2170.032935115697	1
3	943	2175.059280819876	1
3	945	2175.89386075536	2
3	955	2194.513301538501	2
3	957	2197.181186761374	3
3	960	2201.862421686758	3
3	962	2205.989717082358	4
3	965	2210.635198036061	4
3	967	2215.605995918517	5
3	972	2220.983562150837	3
3	977	2237.146804838887	1
3	979	2242.672738216294	2
3	981	2243.211192938679	3
3	986	2254.082127145278	1
3	988	2255.276179260871	2
3	990	2257.380623580054	3
3	995	2265.712071714624	4
3	999	2278.530645851194	3
3	1001	2279.373335041389	4
3	1003	2282.299088262717	5
3	1005	2288.557943251978	6
3	1019	2321.438632138943	1
3	1021	2332.743083346899	2
3	1024	2334.166339972331	2
3	1026	2334.24183420918	3
3	1031	2350.681956625492	1
3	1034	2362.032617962155	1
3	1038	2366.417596998391	2
3	1047	2382.613350806866	2
3	1051	2383.497710697982	3
3	1058	2419.292970577924	1
3	1062	2432.429685492346	2
3	1070	2452.103637946343	1
4	134	354.172507827807	0
4	135	361.55381870012	0
4	137	373.165573927013	0
4	138	374.146406677628	0
4	149	393.279838510632	0
4	150	395.632135660572	0
4	156	408.207277351423	0
4	158	411.99829745011	1
4	160	412.37183081957	2
4	163	436.073400872944	3
4	165	437.314233815506	4
4	167	437.327952946813	5
4	174	451.242256151972	6
4	177	455.769175093027	6
4	178	458.542448166347	5
4	180	459.810452974783	5
4	182	462.544540123058	6
4	187	468.979055047066	7
4	189	471.920162134502	8
4	191	475.095408618298	9
4	192	485.949562288543	9
4	193	493.063188985738	8
4	195	494.588354537745	8
4	196	494.7199079912	8
4	198	497.713550616588	8
4	211	527.626775085374	9
4	222	571.143215401286	10
4	224	579.161824863028	10
4	226	579.391432256081	10
4	227	586.28289750952	10
4	228	588.889235923416	9
4	229	592.349744294208	8
4	230	594.774315758427	7
4	231	596.494267813662	6
4	232	599.121581700948	5
4	233	603.34019146072	4
4	235	605.943574795199	4
4	237	607.913223543641	5
4	239	609.957947543076	6
4	240	611.273558256044	6
4	241	617.521206644077	5
4	243	624.665666816139	5
4	247	629.692875432278	5
4	249	630.706851864441	5
4	251	637.487093734645	6
4	256	643.417267897842	7
4	257	652.170744394519	7
4	259	653.393714807935	7
4	261	656.310268947339	8
4	271	671.537933480254	8
4	272	673.2698425313	7
4	274	674.6047529137	7
4	275	680.421200704466	7
4	276	687.895999379442	6
4	277	689.21969038545	5
4	278	692.854953384615	4
4	279	694.407795697197	3
4	281	695.335114389194	3
4	283	701.516242444663	4
4	284	703.440693513921	4
4	286	704.925125838561	4
4	288	711.815483747498	5
4	293	715.664169776615	6
4	294	716.225364237338	6
4	295	716.670461027413	5
4	296	718.444503672054	4
4	297	725.393113163283	3
4	299	727.040126940911	3
4	300	727.06309102144	3
4	301	732.242568427345	2
4	302	734.676595341875	1
4	304	735.618888755847	1
4	305	736.658224673981	1
4	309	746.139589939481	1
4	311	750.028403598029	1
4	312	753.110633874255	0
4	314	762.644089716245	0
4	315	763.53287890238	0
4	317	765.774707186922	0
4	319	768.538631314541	1
4	321	769.235612506848	2
4	322	769.70506016283	2
4	323	772.271632375587	1
4	324	773.497305747628	0
4	326	787.248359323836	0
4	327	795.406107135759	0
4	331	802.008149240264	0
4	333	810.074336959755	0
4	335	815.757023724541	0
4	336	819.649575624589	0
4	338	822.315232027055	0
4	343	828.136835226231	1
4	345	832.129773314188	2
4	347	833.062464632352	3
4	348	834.22006458741	3
4	350	840.209054935251	3
4	351	841.304083631148	3
4	353	845.043579502083	3
4	355	848.103789288935	4
4	356	850.766162739224	4
4	357	853.306346302577	3
4	359	853.51756743213	3
4	360	854.862954838903	3
4	362	857.235620783026	3
4	363	862.946922775747	3
4	364	867.717206474766	2
4	366	871.716141047027	2
4	367	877.1563288034	2
4	371	881.573981200952	2
4	373	883.473725592753	2
4	375	883.796395950465	2
4	382	891.948409974863	3
4	384	892.451265341315	4
4	387	896.287023108023	5
4	389	907.496880138223	6
4	396	912.519557305623	7
4	398	912.719751269411	8
4	400	915.703469079402	9
4	405	931.627609079209	10
4	407	937.663681411162	10
4	409	940.35611761368	10
4	410	941.368545738921	10
4	411	949.676349601651	9
4	413	952.926673196333	9
4	414	954.44825120749	9
4	416	954.689615315032	9
4	418	958.18994317615	10
4	419	958.577281554338	10
4	420	959.308425246978	9
4	421	963.894496828307	8
4	426	967.306304503991	8
4	428	971.293520383222	9
4	429	976.648921008506	9
4	430	976.897072718454	8
4	431	978.111179739916	7
4	432	981.478218439916	6
4	437	988.770386098451	6
4	438	991.402212923716	6
4	440	991.89196686214	6
4	445	993.592636988663	7
4	447	995.06088645478	8
4	448	1000.314357306971	8
4	450	1008.314780315635	8
4	451	1010.10541642603	8
4	452	1012.857777245983	7
4	454	1012.966214610902	7
4	458	1018.219575777321	8
4	460	1018.378246406112	9
4	462	1026.753396695764	9
4	464	1033.460060157527	9
4	465	1035.676555943067	9
4	467	1037.687100701228	9
4	468	1042.918007319384	9
4	469	1053.848930942429	8
4	471	1053.982005230281	8
4	472	1053.995032125772	8
4	473	1059.995945336808	7
4	474	1061.648826886191	6
4	475	1071.774964744777	5
4	476	1074.804221735951	4
4	482	1087.119359711866	4
4	485	1092.267295259276	4
4	486	1094.647047948309	3
4	488	1102.540491660609	3
4	489	1103.223385193287	3
4	491	1104.720238786165	3
4	496	1113.692156924454	4
4	497	1114.968107924747	4
4	498	1115.720273050708	3
4	499	1122.321211749174	2
4	500	1122.921155164106	1
4	501	1125.48609914431	0
4	503	1148.073931961739	0
4	504	1149.71946351602	0
4	508	1158.994943503307	0
4	510	1159.869971217089	1
4	513	1170.270592856227	2
4	514	1170.441356743883	2
4	516	1172.886145916887	2
4	517	1174.984362655349	2
4	519	1178.431073673036	2
4	520	1179.447938807005	2
4	522	1180.180260533885	2
4	523	1182.941256110196	2
4	525	1187.386849011417	2
4	529	1200.162524619032	2
4	530	1202.148086955264	1
4	531	1209.644120098742	0
4	533	1213.938108252133	0
4	534	1218.994900855933	0
4	536	1220.894768537029	0
4	537	1229.058548301663	0
4	539	1246.89843674697	0
4	541	1247.276325723585	1
4	542	1249.63024962455	1
4	543	1257.614162301407	0
4	545	1266.056222790817	0
4	546	1267.843464829622	0
4	548	1278.370214318002	0
4	553	1284.448987743469	1
4	554	1287.195320383555	1
4	556	1294.136166031973	1
4	558	1301.96258254879	2
4	559	1302.005328156224	2
4	560	1303.404641719249	1
4	561	1309.205029110369	0
4	563	1317.004740683419	0
4	565	1321.089472312076	1
4	566	1325.560882518641	1
4	568	1327.240403897141	1
4	572	1338.031002646122	1
4	573	1338.745547905252	0
4	575	1339.31192988468	0
4	576	1341.800172279304	0
4	578	1344.089152158986	0
4	579	1350.807409841054	0
4	581	1354.139097917223	0
4	585	1357.590687385923	1
4	587	1362.401640317386	2
4	589	1363.487444977941	2
4	590	1366.574365073408	1
4	591	1369.041543624977	0
4	593	1370.548662839093	0
4	594	1380.527318542826	0
4	596	1393.477834516225	0
4	597	1394.031719063037	0
4	599	1394.357009853883	0
4	601	1399.467597341814	1
4	602	1400.413076151414	1
4	604	1409.444819982285	1
4	608	1413.41103310803	1
4	610	1413.916469106427	1
4	611	1422.187583725563	1
4	612	1428.495675210666	0
4	616	1442.842899766702	0
4	618	1449.716086982885	0
4	624	1460.245386861678	0
4	627	1468.537937095426	0
4	634	1482.431277285998	0
4	636	1482.922469037112	1
4	638	1492.6108322166	1
4	642	1504.007678257348	1
4	645	1516.603279450633	2
4	646	1516.672236522838	2
4	647	1518.943771841128	1
4	648	1520.290406052673	0
4	650	1520.830688733209	0
4	652	1521.897440116271	1
4	653	1523.229222595233	1
4	654	1529.247272740407	0
4	656	1534.041056993256	0
4	657	1534.251459933666	0
4	665	1567.933072131845	0
4	670	1575.426811134132	1
4	671	1576.294641895859	1
4	673	1577.614321941095	1
4	674	1581.32247992568	1
4	675	1583.593021411032	0
4	677	1588.382349111459	0
4	678	1596.53510395861	0
4	680	1604.98445020996	0
4	681	1605.135671024017	0
4	683	1608.10816906207	0
4	685	1611.611585584382	1
4	686	1619.488512877747	1
4	688	1620.970579796187	1
4	689	1622.268256999676	1
4	690	1623.351353206911	0
4	694	1629.016241169596	0
4	696	1629.509796788956	1
4	698	1632.692094129003	1
4	702	1645.107593448206	1
4	709	1656.998456245854	2
4	713	1667.385312246145	3
4	714	1668.174145534948	3
4	716	1670.941665386543	3
4	717	1674.749757434079	3
4	718	1675.722110085754	2
4	720	1677.340756018396	2
4	725	1679.151605878875	3
4	726	1681.021415761337	3
4	727	1682.269581059814	2
4	728	1682.534378200667	1
4	729	1684.942968171688	0
4	736	1698.499432454028	0
4	738	1702.537875751213	1
4	743	1710.023199632792	2
4	745	1711.831678986269	3
4	748	1715.794270075167	4
4	749	1718.171401327243	4
4	750	1721.668001421354	3
4	751	1723.817560140023	2
4	752	1727.395922144721	1
4	757	1740.402810295447	1
4	761	1749.836581572862	1
4	762	1750.887918812575	0
4	764	1754.371851842985	0
4	765	1756.26946795785	0
4	767	1757.712952114246	0
4	768	1761.416271262115	0
4	774	1803.563631578393	0
4	776	1804.702121163114	1
4	781	1813.945618333506	2
4	783	1815.189939142241	3
4	788	1830.000877789753	4
4	791	1840.868882598226	4
4	793	1844.087242559274	4
4	800	1860.071059937027	4
4	801	1865.205632710604	3
4	803	1865.352465476735	3
4	804	1866.373515715236	3
4	811	1871.462063838094	2
4	812	1873.719900944075	1
4	813	1877.736720823171	0
4	817	1883.609421275364	0
4	820	1885.977274496929	1
4	822	1886.339112843074	2
4	823	1892.305782911346	2
4	824	1906.120440165136	1
4	828	1909.357840508988	0
4	830	1925.322903074237	0
4	832	1926.617656675168	1
4	837	1946.452518246029	2
4	838	1950.563019003989	2
4	839	1952.354116322226	1
4	840	1953.576037608584	0
4	844	1968.617331088617	0
4	852	1983.774184273965	1
4	854	1990.664126223959	1
4	856	1991.012150132266	1
4	858	1995.96333466045	2
4	859	1996.428158021655	2
4	860	1996.790847057874	1
4	861	2000.685577268337	0
4	869	2021.788839862228	0
4	871	2027.965610252793	1
4	872	2029.399855659868	1
4	873	2032.00367679328	0
4	875	2036.670246191136	0
4	876	2036.848915739548	0
4	878	2038.612038391061	0
4	882	2045.486711755159	0
4	886	2053.451391923639	0
4	888	2059.720372977221	1
4	890	2065.213904978399	2
4	893	2070.960011779213	3
4	894	2072.208726721429	3
4	898	2079.287740395545	2
4	904	2088.416297189241	2
4	907	2094.55514914724	3
4	909	2099.423059657969	4
4	911	2105.860948660393	4
4	912	2108.477760809938	3
4	914	2109.526301819064	3
4	916	2113.901216392289	4
4	917	2114.342098572026	4
4	921	2127.837361915051	3
4	922	2128.531994198423	2
4	923	2128.77389837954	1
4	927	2139.250849800275	0
4	931	2152.7373224416	0
4	934	2158.324858173646	1
4	935	2161.663003393106	1
4	936	2162.050439780343	0
4	938	2170.032935115697	0
4	939	2170.12399730194	0
4	943	2175.059280819876	0
4	945	2175.89386075536	1
4	947	2182.061955318028	1
4	955	2194.513301538501	1
4	957	2197.181186761374	2
4	958	2200.020751902806	2
4	960	2201.862421686758	2
4	962	2205.989717082358	3
4	963	2206.250806028499	3
4	965	2210.635198036061	3
4	967	2215.605995918517	4
4	968	2217.743477754541	4
4	969	2218.560630646974	3
4	970	2220.314253781401	2
4	972	2220.983562150837	2
4	973	2225.083744054971	2
4	974	2226.368889323135	1
4	975	2227.186492267902	0
4	977	2237.146804838887	0
4	979	2242.672738216294	1
4	981	2243.211192938679	2
4	982	2247.668240264981	2
4	983	2250.765235787509	1
4	984	2253.421498648272	0
4	986	2254.082127145278	0
4	988	2255.276179260871	1
4	990	2257.380623580054	2
4	995	2265.712071714624	3
4	996	2265.866039324009	3
4	997	2275.140147796856	2
4	999	2278.530645851194	2
4	1001	2279.373335041389	3
4	1003	2282.299088262717	4
4	1005	2288.557943251978	5
4	1006	2289.896774423385	5
4	1010	2301.397146443579	4
4	1011	2302.627187954066	3
4	1012	2305.734102042913	2
4	1013	2310.491973095831	1
4	1017	2320.056515236462	0
4	1019	2321.438632138943	0
4	1021	2332.743083346899	1
4	1022	2333.86958674113	1
4	1024	2334.166339972331	1
4	1026	2334.24183420918	2
4	1027	2336.79288420246	2
4	1028	2343.387324291057	1
4	1029	2350.382918722612	0
4	1031	2350.681956625492	0
4	1032	2350.692470188939	0
4	1034	2362.032617962155	0
4	1038	2366.417596998391	1
4	1043	2376.27009725758	1
4	1047	2382.613350806866	1
4	1051	2383.497710697982	2
4	1054	2401.340991721795	2
4	1055	2401.527507223425	1
4	1056	2405.850104158923	0
4	1058	2419.292970577924	0
4	1062	2432.429685492346	1
4	1067	2443.857190381722	1
4	1068	2447.117269621394	0
4	1070	2452.103637946343	0
4	1071	2454.219291520468	0
5	134	354.172507827807	0
5	137	373.165573927013	0
5	149	393.279838510632	0
5	176	452.343978869191	44.136701517768
5	177	455.769175093027	43.770877642917
5	178	458.542448166347	46.170617346777
5	185	468.891454611709	32.818053738765
5	192	485.949562288543	48.635328473037
5	193	493.063188985738	55.735236038925
5	196	494.7199079912	43.477651839228
5	223	574.798551494121	114.98809851934
5	224	579.161824863028	116.61728473997
5	227	586.28289750952	119.17774480147
5	228	588.889235923416	119.91018087635
5	229	592.349744294208	120.42958215971
5	230	594.774315758427	119.67890714013
5	231	596.494267813662	101.90591327592
5	232	599.121581700948	101.40803108436
5	233	603.34019146072	95.561838988732
5	240	611.273558256044	83.64678317067
5	241	617.521206644077	46.377991242791
5	246	628.11473213203	48.723299875949
5	247	629.692875432278	23.749300637079
5	254	642.546476969679	34.633253426038
5	257	652.170744394519	42.212796851443
5	267	666.68972877646	42.024061960321
5	270	671.199275535015	43.420990595701
5	271	671.537933480254	40.831081615813
5	272	673.2698425313	35.782748796655
5	275	680.421200704466	42.198661427901
5	276	687.895999379442	44.4787314816
5	277	689.21969038545	35.825975577515
5	278	692.854953384615	36.544684437276
5	279	694.407795697197	31.976188692702
5	284	703.440693513921	33.93934442803
5	291	715.306736918413	40.701984004713
5	294	716.225364237338	20.890249848144
5	295	716.670461027413	15.15421858275
5	296	718.444503672054	13.519377833493
5	297	725.393113163283	13.577629415785
5	300	727.06309102144	15.021891343492
5	301	732.242568427345	16.57839865073
5	302	734.676595341875	7.636468400964
5	305	736.658224673981	1.039335918134
5	310	749.903906968698	8.642975295074
5	311	750.028403598029	3.888813658548
5	314	762.644089716245	0
5	317	765.774707186922	0
5	322	769.70506016283	1.166428848289
5	323	772.271632375587	3.036019868739
5	326	787.248359323836	0
5	332	802.030438096236	0.022288855972
5	335	815.757023724541	0
5	338	822.315232027055	0
5	341	827.780229350482	4.919945018611
5	348	834.22006458741	6.083229361179
5	351	841.304083631148	9.17431031696
5	356	850.766162739224	17.703698106872
5	357	853.306346302577	13.097291367326
5	360	854.862954838903	9.81937533682
5	363	862.946922775747	14.843133486812
5	364	867.717206474766	14.199639042636
5	367	877.1563288034	19.920708020374
5	372	883.044307710069	11.328166663042
5	373	883.473725592753	5.929914722108
5	378	887.922958595102	6.34897739415
5	385	895.543049325011	11.746653374546
5	392	907.591083990979	20.253478961212
5	401	918.584068381125	30.096563353522
5	406	935.022515319217	43.074105344354
5	407	937.663681411162	45.212416069847
5	410	941.368545738921	45.081522630898
5	411	949.676349601651	42.179469463428
5	414	954.44825120749	46.859811973247
5	419	958.577281554338	48.962459502371
5	420	959.308425246978	46.788867941355
5	421	963.894496828307	51.174745558896
5	424	965.218297256321	49.514828176919
5	429	976.648921008506	55.877318357392
5	430	976.897072718454	45.269463639245
5	431	978.111179739916	37.755062126236
5	432	981.478218439916	28.551545243583
5	435	982.591652479872	27.90203716484
5	438	991.402212923716	33.212269747566
5	443	993.185950264623	28.912475563543
5	448	1000.314357306971	33.00805280298
5	451	1010.10541642603	38.811896042808
5	452	1012.857777245983	31.028972165918
5	461	1018.987042073783	30.216655975332
5	462	1026.753396695764	34.861429833624
5	465	1035.676555943067	43.682865209839
5	468	1042.918007319384	49.325370330721
5	469	1053.848930942429	58.788044487649
5	472	1053.995032125772	45.680251810137
5	473	1059.995945336808	47.029730725906
5	474	1061.648826886191	45.399202791317
5	475	1071.774964744777	53.555388967456
5	476	1074.804221735951	56.425975329839
5	484	1090.441489807599	56.981429650072
5	485	1092.267295259276	54.580194558048
5	486	1094.647047948309	40.665042718028
5	489	1103.223385193287	25.294679944374
5	494	1110.419174333675	23.299814621809
5	497	1114.968107924747	12.427616264138
5	498	1115.720273050708	11.000034264543
5	499	1122.321211749174	14.736633331171
5	500	1122.921155164106	9.228998239652
5	503	1148.073931961739	0
5	511	1169.126654541772	10.131711038465
5	514	1170.441356743883	10.571385526794
5	517	1174.984362655349	4.713769799122
5	520	1179.447938807005	6.561792890118
5	523	1182.941256110196	4.51018243716
5	528	1199.437235879577	19.256975345692
5	529	1200.162524619032	12.775675607615
5	530	1202.148086955264	13.15136389824
5	533	1213.938108252133	0
5	536	1220.894768537029	0
5	539	1246.89843674697	0
5	542	1249.63024962455	2.353923900965
5	545	1266.056222790817	0
5	548	1278.370214318002	0
5	551	1281.786542774799	2.798344831193
5	554	1287.195320383555	2.746332640086
5	559	1302.005328156224	7.869162124251
5	560	1303.404641719249	1.442059170459
5	563	1317.004740683419	0
5	566	1325.560882518641	4.471410206565
5	571	1334.879190531219	7.638786634078
5	572	1338.031002646122	6.331925740546
5	575	1339.31192988468	0
5	578	1344.089152158986	0
5	581	1354.139097917223	0
5	588	1363.149784318676	8.823197322276
5	589	1363.487444977941	5.896757592018
5	590	1366.574365073408	4.172724756022
5	593	1370.548662839093	0
5	596	1393.477834516225	0
5	599	1394.357009853883	0
5	602	1400.413076151414	0.9454788096
5	607	1412.491568744757	3.046748762472
5	608	1413.41103310803	2.720211335663
5	611	1422.187583725563	8.271114619136
5	617	1448.728424851259	5.885525084557
5	626	1466.188933255895	5.943546394217
5	637	1483.128397108793	0.697119822795
5	638	1492.6108322166	9.688363179488
5	643	1504.98893954686	5.638815051478
5	646	1516.672236522838	12.66455826549
5	647	1518.943771841128	2.340492390495
5	650	1520.830688733209	0
5	653	1523.229222595233	1.331782478962
5	656	1534.041056993256	0
5	665	1567.933072131845	0
5	668	1571.563760989928	0.403524272151
5	671	1576.294641895859	0.867830761727
5	674	1581.32247992568	3.708157984585
5	677	1588.382349111459	0
5	680	1604.98445020996	0
5	683	1608.10816906207	0
5	686	1619.488512877747	7.876927293365
5	689	1622.268256999676	1.297677203489
5	697	1632.039400920458	3.023159750862
5	698	1632.692094129003	3.182297340047
5	711	1665.873193352555	24.672464369359
5	714	1668.174145534948	23.066552086742
5	717	1674.749757434079	17.751301188225
5	718	1675.722110085754	8.336797839609
5	723	1678.68321485218	7.741549465637
5	726	1681.021415761337	3.680659742941
5	727	1682.269581059814	4.292352552094
5	728	1682.534378200667	3.382772321792
5	739	1704.613992080955	6.114559626927
5	746	1713.944045116367	11.406169365154
5	749	1718.171401327243	8.197448384808
5	750	1721.668001421354	11.644801788562
5	751	1723.817560140023	11.985881153754
5	752	1727.395922144721	11.601652069554
5	755	1740.275274389941	6.101522611702
5	760	1746.071274878812	5.668464583365
5	761	1749.836581572862	8.204865694698
5	764	1754.371851842985	0
5	767	1757.712952114246	0
5	790	1836.934664151769	33.371032573376
5	791	1840.868882598226	36.166761435112
5	796	1854.292799308779	40.347180975273
5	799	1858.655424758866	43.465485616625
5	800	1860.071059937027	30.070182147274
5	801	1865.205632710604	21.11839015133
5	804	1866.373515715236	13.81296752241
5	807	1868.973370291887	14.396856430871
5	810	1870.082691133772	4.730225657037
5	811	1871.462063838094	3.286230870636
5	812	1873.719900944075	4.618788536939
5	818	1883.840859431133	0.231438155769
5	823	1892.305782911346	6.328508414417
5	824	1906.120440165136	19.781327322062
5	827	1907.548248491526	1.376024706557
5	830	1925.322903074237	0
5	835	1944.937328115123	18.319671439955
5	838	1950.563019003989	21.053844412961
5	839	1952.354116322226	5.901598076197
5	845	1970.870615890977	2.25328480236
5	848	1979.684186589338	0.002118208631
5	853	1984.884514547349	2.527082212298
5	854	1990.664126223959	6.889941949994
5	859	1996.428158021655	5.416007889389
5	860	1996.790847057874	0.827512397424
5	869	2021.788839862228	0
5	872	2029.399855659868	1.434245407075
5	875	2036.670246191136	0
5	878	2038.612038391061	0
5	881	2043.604316702735	3.354681181577
5	891	2068.65135966665	15.199967743011
5	894	2072.208726721429	12.488353744208
5	897	2076.399424914474	11.185519936075
5	898	2079.287740395545	8.327728616332
5	910	2102.779165017444	26.53171332167
5	911	2105.860948660393	25.211570224224
5	912	2108.477760809938	20.061463620697
5	917	2114.342098572026	19.786949424786
5	920	2120.283816049611	20.860756391642
5	921	2127.837361915051	18.311060095987
5	922	2128.531994198423	14.630777806134
5	923	2128.77389837954	12.013745720832
5	926	2131.235981524293	0.586280244212
5	932	2157.943203256875	5.205880815275
5	935	2161.663003393106	3.33814521946
5	938	2170.032935115697	0
5	946	2177.41957526298	2.360294443104
5	947	2182.061955318028	6.168094562668
5	953	2191.971899365691	8.930936468365
5	958	2200.020751902806	5.507450364305
5	963	2206.250806028499	9.069619267125
5	968	2217.743477754541	15.881056067783
5	969	2218.560630646974	12.570913564616
5	970	2220.314253781401	9.67905574534
5	973	2225.083744054971	9.477748136454
5	974	2226.368889323135	5.385327172298
5	977	2237.146804838887	0
5	982	2247.668240264981	4.995502048687
5	983	2250.765235787509	7.55404284883
5	986	2254.082127145278	0
5	993	2265.177139724753	9.900960463882
5	996	2265.866039324009	8.485415743955
5	997	2275.140147796856	11.2817509408
5	1006	2289.896774423385	24.184702708761
5	1009	2295.510252125768	16.979606274574
5	1010	2301.397146443579	22.02381140219
5	1011	2302.627187954066	20.328099691349
5	1012	2305.734102042913	17.176158790935
5	1013	2310.491973095831	16.033980648267
5	1016	2319.55534565468	0.411777457297
5	1019	2321.438632138943	0
5	1022	2333.86958674113	1.126503394231
5	1027	2336.79288420246	2.626544230129
5	1028	2343.387324291057	9.145490081877
5	1031	2350.681956625492	0
5	1034	2362.032617962155	0
5	1042	2374.606931049781	10.509214873419
5	1043	2376.27009725758	9.852500259189
5	1053	2397.431203829804	18.098905063238
5	1054	2401.340991721795	18.727640914929
5	1055	2401.527507223425	18.029796525443
5	1058	2419.292970577924	0
5	1066	2438.562408681822	18.497614813033
5	1067	2443.857190381722	11.427504889376
5	1070	2452.103637946343	0
6	135	361.55381870012	26
6	138	374.146406677628	27
6	150	395.632135660572	28
6	177	455.769175093027	29
6	178	458.542448166347	30
6	192	485.949562288543	31
6	193	493.063188985738	32
6	196	494.7199079912	33
6	224	579.161824863028	34
6	227	586.28289750952	35
6	228	588.889235923416	36
6	229	592.349744294208	37
6	230	594.774315758427	38
6	231	596.494267813662	39
6	232	599.121581700948	40
6	233	603.34019146072	41
6	240	611.273558256044	42
6	241	617.521206644077	43
6	247	629.692875432278	44
6	257	652.170744394519	45
6	271	671.537933480254	46
6	272	673.2698425313	47
6	275	680.421200704466	48
6	276	687.895999379442	49
6	277	689.21969038545	50
6	278	692.854953384615	51
6	279	694.407795697197	52
6	284	703.440693513921	53
6	294	716.225364237338	54
6	295	716.670461027413	55
6	296	718.444503672054	56
6	297	725.393113163283	57
6	300	727.06309102144	58
6	301	732.242568427345	59
6	302	734.676595341875	60
6	305	736.658224673981	61
6	311	750.028403598029	62
6	312	753.110633874255	63
6	315	763.53287890238	64
6	322	769.70506016283	65
6	323	772.271632375587	66
6	324	773.497305747628	67
6	327	795.406107135759	68
6	333	810.074336959755	69
6	336	819.649575624589	70
6	348	834.22006458741	71
6	351	841.304083631148	72
6	356	850.766162739224	73
6	357	853.306346302577	74
6	360	854.862954838903	75
6	363	862.946922775747	76
6	364	867.717206474766	77
6	367	877.1563288034	78
6	373	883.473725592753	79
6	407	937.663681411162	80
6	410	941.368545738921	81
6	411	949.676349601651	82
6	414	954.44825120749	83
6	419	958.577281554338	84
6	420	959.308425246978	85
6	421	963.894496828307	86
6	429	976.648921008506	87
6	430	976.897072718454	88
6	431	978.111179739916	89
6	432	981.478218439916	90
6	438	991.402212923716	91
6	448	1000.314357306971	92
6	451	1010.10541642603	93
6	452	1012.857777245983	94
6	462	1026.753396695764	95
6	465	1035.676555943067	96
6	468	1042.918007319384	97
6	469	1053.848930942429	98
6	472	1053.995032125772	99
6	473	1059.995945336808	100
6	474	1061.648826886191	101
6	475	1071.774964744777	102
6	476	1074.804221735951	103
6	485	1092.267295259276	104
6	486	1094.647047948309	105
6	489	1103.223385193287	106
6	497	1114.968107924747	107
6	498	1115.720273050708	108
6	499	1122.321211749174	109
6	500	1122.921155164106	110
6	501	1125.48609914431	111
6	504	1149.71946351602	112
6	514	1170.441356743883	113
6	517	1174.984362655349	114
6	520	1179.447938807005	115
6	523	1182.941256110196	116
6	529	1200.162524619032	117
6	530	1202.148086955264	118
6	531	1209.644120098742	119
6	534	1218.994900855933	120
6	537	1229.058548301663	121
6	542	1249.63024962455	122
6	543	1257.614162301407	123
6	546	1267.843464829622	124
6	554	1287.195320383555	125
6	559	1302.005328156224	126
6	560	1303.404641719249	127
6	561	1309.205029110369	128
6	566	1325.560882518641	129
6	572	1338.031002646122	130
6	573	1338.745547905252	131
6	576	1341.800172279304	132
6	579	1350.807409841054	133
6	589	1363.487444977941	134
6	590	1366.574365073408	135
6	591	1369.041543624977	136
6	594	1380.527318542826	137
6	597	1394.031719063037	138
6	602	1400.413076151414	139
6	608	1413.41103310803	140
6	611	1422.187583725563	141
6	612	1428.495675210666	142
6	618	1449.716086982885	143
6	627	1468.537937095426	144
6	638	1492.6108322166	145
6	646	1516.672236522838	146
6	647	1518.943771841128	147
6	648	1520.290406052673	148
6	653	1523.229222595233	149
6	654	1529.247272740407	150
6	657	1534.251459933666	151
6	671	1576.294641895859	152
6	674	1581.32247992568	153
6	675	1583.593021411032	154
6	678	1596.53510395861	155
6	681	1605.135671024017	156
6	686	1619.488512877747	157
6	689	1622.268256999676	158
6	690	1623.351353206911	159
6	698	1632.692094129003	160
6	714	1668.174145534948	161
6	717	1674.749757434079	162
6	718	1675.722110085754	163
6	726	1681.021415761337	164
6	727	1682.269581059814	165
6	728	1682.534378200667	166
6	729	1684.942968171688	167
6	749	1718.171401327243	168
6	750	1721.668001421354	169
6	751	1723.817560140023	170
6	752	1727.395922144721	171
6	761	1749.836581572862	172
6	762	1750.887918812575	173
6	765	1756.26946795785	174
6	768	1761.416271262115	175
6	791	1840.868882598226	176
6	800	1860.071059937027	177
6	801	1865.205632710604	178
6	804	1866.373515715236	179
6	811	1871.462063838094	180
6	812	1873.719900944075	181
6	813	1877.736720823171	182
6	823	1892.305782911346	183
6	824	1906.120440165136	184
6	828	1909.357840508988	185
6	838	1950.563019003989	186
6	839	1952.354116322226	187
6	840	1953.576037608584	188
6	854	1990.664126223959	189
6	859	1996.428158021655	190
6	860	1996.790847057874	191
6	861	2000.685577268337	192
6	872	2029.399855659868	193
6	873	2032.00367679328	194
6	876	2036.848915739548	195
6	882	2045.486711755159	196
6	894	2072.208726721429	197
6	898	2079.287740395545	198
6	911	2105.860948660393	199
6	912	2108.477760809938	200
6	917	2114.342098572026	201
6	921	2127.837361915051	202
6	922	2128.531994198423	203
6	923	2128.77389837954	204
6	927	2139.250849800275	205
6	935	2161.663003393106	206
6	936	2162.050439780343	207
6	939	2170.12399730194	208
6	947	2182.061955318028	209
6	958	2200.020751902806	210
6	963	2206.250806028499	211
6	968	2217.743477754541	212
6	969	2218.560630646974	213
6	970	2220.314253781401	214
6	973	2225.083744054971	215
6	974	2226.368889323135	216
6	975	2227.186492267902	217
6	982	2247.668240264981	218
6	983	2250.765235787509	219
6	984	2253.421498648272	220
6	996	2265.866039324009	221
6	997	2275.140147796856	222
6	1006	2289.896774423385	223
6	1010	2301.397146443579	224
6	1011	2302.627187954066	225
6	1012	2305.734102042913	226
6	1013	2310.491973095831	227
6	1017	2320.056515236462	228
6	1022	2333.86958674113	229
6	1027	2336.79288420246	230
6	1028	2343.387324291057	231
6	1029	2350.382918722612	232
6	1032	2350.692470188939	233
6	1043	2376.27009725758	234
6	1054	2401.340991721795	235
6	1055	2401.527507223425	236
6	1056	2405.850104158923	237
6	1067	2443.857190381722	238
6	1068	2447.117269621394	239
6	1071	2454.219291520468	240
7	135	361.55381870012	7.381310872313
7	138	374.146406677628	0.980832750615
7	150	395.632135660572	2.35229714994
7	177	455.769175093027	47.561897741604
7	178	458.542448166347	46.544150716237
7	192	485.949562288543	49.876161415599
7	193	493.063188985738	55.748955170232
7	196	494.7199079912	57.391955044387
7	224	579.161824863028	119.35137188824
7	227	586.28289750952	123.73835738646
7	228	588.889235923416	121.78408321536
7	229	592.349744294208	123.37068924714
7	230	594.774315758427	122.85415362393
7	231	596.494267813662	121.39885919536
7	232	599.121581700948	104.5332271632
7	233	603.34019146072	105.62664084413
7	240	611.273558256044	103.49520578406
7	241	617.521206644077	89.894431558703
7	247	629.692875432278	50.301443176197
7	257	652.170744394519	44.257520850878
7	271	671.537933480254	43.75964854094
7	272	673.2698425313	42.562990666859
7	275	680.421200704466	42.934106969821
7	276	687.895999379442	49.673460102877
7	277	689.21969038545	45.802422487608
7	278	692.854953384615	39.46123857668
7	279	694.407795697197	38.097526749858
7	284	703.440693513921	41.009086509426
7	294	716.225364237338	41.620611323638
7	295	716.670461027413	21.335346638219
7	296	718.444503672054	16.928261227391
7	297	725.393113163283	20.467987324722
7	300	727.06309102144	15.247607273942
7	301	732.242568427345	20.201368749397
7	302	734.676595341875	19.01242556526
7	305	736.658224673981	9.61809773307
7	311	750.028403598029	8.767471924405
7	312	753.110633874255	6.971043934774
7	315	763.53287890238	0.888789186135
7	322	769.70506016283	3.930352975908
7	323	772.271632375587	3.733001061046
7	324	773.497305747628	4.26169324078
7	327	795.406107135759	8.157747811923
7	333	810.074336959755	8.066187719491
7	336	819.649575624589	3.892551900048
7	348	834.22006458741	11.359780255539
7	351	841.304083631148	13.167248404917
7	356	850.766162739224	18.636389425036
7	357	853.306346302577	20.243881670225
7	360	854.862954838903	14.653899903652
7	363	862.946922775747	17.903343273664
7	364	867.717206474766	19.613417185831
7	367	877.1563288034	23.63876137127
7	373	883.473725592753	11.757584545726
7	407	937.663681411162	45.715271436299
7	410	941.368545738921	48.917280397606
7	411	949.676349601651	53.389326493628
7	414	954.44825120749	46.951371069267
7	419	958.577281554338	50.988842320095
7	420	959.308425246978	49.693603195011
7	421	963.894496828307	51.374939522684
7	429	976.648921008506	60.945451929104
7	430	976.897072718454	56.12547006734
7	431	978.111179739916	46.483570660707
7	432	981.478218439916	41.122100826236
7	438	991.402212923716	36.712597608684
7	448	1000.314357306971	36.040882605891
7	451	1010.10541642603	42.799111922039
7	452	1012.857777245983	41.564256862761
7	462	1026.753396695764	37.983010597313
7	465	1035.676555943067	43.784589080927
7	468	1042.918007319384	50.924316586156
7	469	1053.848930942429	60.256293953766
7	472	1053.995032125772	58.934145670992
7	473	1059.995945336808	51.681165021173
7	474	1061.648826886191	48.682612275289
7	475	1071.774964744777	55.525340649903
7	476	1074.804221735951	56.58464595863
7	485	1092.267295259276	58.807235101749
7	486	1094.647047948309	56.959947247081
7	489	1103.223385193287	49.241379963006
7	497	1114.968107924747	27.848748212881
7	498	1115.720273050708	13.179781390099
7	499	1122.321211749174	17.600972963009
7	500	1122.921155164106	15.336576746103
7	501	1125.48609914431	11.793942219856
7	504	1149.71946351602	1.645531554281
7	514	1170.441356743883	11.446413240576
7	517	1174.984362655349	15.11439143826
7	520	1179.447938807005	9.177345950778
7	523	1182.941256110196	10.055110193309
7	529	1200.162524619032	19.982264085147
7	530	1202.148086955264	14.761237943847
7	531	1209.644120098742	20.647397041718
7	534	1218.994900855933	5.0567926038
7	537	1229.058548301663	8.163779764634
7	542	1249.63024962455	2.73181287758
7	543	1257.614162301407	10.337836577822
7	546	1267.843464829622	1.787242038805
7	554	1287.195320383555	8.207122439949
7	559	1302.005328156224	17.556340412755
7	560	1303.404641719249	9.268475687276
7	561	1309.205029110369	7.242446561579
7	566	1325.560882518641	8.556141835222
7	572	1338.031002646122	10.790598748981
7	573	1338.745547905252	7.046470999676
7	576	1341.800172279304	2.488242394624
7	579	1350.807409841054	6.718257682068
7	589	1363.487444977941	9.160857981541
7	590	1366.574365073408	8.983677687485
7	591	1369.041543624977	6.639903307591
7	594	1380.527318542826	9.978655703733
7	597	1394.031719063037	0.553884546812
7	602	1400.413076151414	6.056066297531
7	608	1413.41103310803	3.966213125745
7	611	1422.187583725563	11.496761953196
7	612	1428.495675210666	14.579206104239
7	618	1449.716086982885	6.873187216183
7	627	1468.537937095426	8.292550233748
7	638	1492.6108322166	10.179554930602
7	646	1516.672236522838	17.322112027456
7	647	1518.943771841128	14.93609358378
7	648	1520.290406052673	3.68712660204
7	653	1523.229222595233	2.398533862024
7	654	1529.247272740407	7.349832624136
7	657	1534.251459933666	0.21040294041
7	671	1576.294641895859	5.134405178082
7	674	1581.32247992568	5.895668791548
7	675	1583.593021411032	5.978699469937
7	678	1596.53510395861	8.152754847151
7	681	1605.135671024017	0.151220814057
7	686	1619.488512877747	11.380343815677
7	689	1622.268256999676	10.656671415294
7	690	1623.351353206911	2.380773410724
7	698	1632.692094129003	3.675852959407
7	714	1668.174145534948	26.973416551752
7	717	1674.749757434079	29.642163985873
7	718	1675.722110085754	18.7236538399
7	726	1681.021415761337	10.079750374794
7	727	1682.269581059814	4.928825041418
7	728	1682.534378200667	4.557149692947
7	729	1684.942968171688	5.791362292813
7	749	1718.171401327243	15.63352557603
7	750	1721.668001421354	11.694048478919
7	751	1723.817560140023	13.794360507231
7	752	1727.395922144721	15.564243158452
7	761	1749.836581572862	9.433771277415
7	762	1750.887918812575	9.256202934411
7	765	1756.26946795785	1.897616114865
7	768	1761.416271262115	3.703319147869
7	791	1840.868882598226	37.305251019833
7	800	1860.071059937027	44.881120794786
7	801	1865.205632710604	35.204754920851
7	804	1866.373515715236	22.286273155962
7	811	1871.462063838094	6.109598361359
7	812	1873.719900944075	5.544067976617
7	813	1877.736720823171	8.635608416035
7	823	1892.305782911346	8.696361635982
7	824	1906.120440165136	20.143165668207
7	828	1909.357840508988	3.185616724019
7	838	1950.563019003989	23.945362328821
7	839	1952.354116322226	22.844941731198
7	840	1953.576037608584	7.123519362555
7	854	1990.664126223959	8.306693888908
7	859	1996.428158021655	12.65397374769
7	860	1996.790847057874	5.778696925608
7	861	2000.685577268337	4.722242607887
7	872	2029.399855659868	7.61101579764
7	873	2032.00367679328	4.038066540487
7	876	2036.848915739548	0.178669548412
7	882	2045.486711755159	5.237076234001
7	894	2072.208726721429	18.75733479779
7	898	2079.287740395545	14.073835417146
7	911	2105.860948660393	29.613496964619
7	912	2108.477760809938	27.828382373769
7	917	2114.342098572026	25.925801382785
7	921	2127.837361915051	28.414302257082
7	922	2128.531994198423	19.005692379359
7	923	2128.77389837954	14.872681987251
7	927	2139.250849800275	8.601148520194
7	935	2161.663003393106	8.925680951506
7	936	2162.050439780343	3.725581606697
7	939	2170.12399730194	0.091062186243
7	947	2182.061955318028	7.002674498152
7	958	2200.020751902806	16.97978900548
7	963	2206.250806028499	11.737504489998
7	968	2217.743477754541	20.562290993167
7	969	2218.560630646974	16.698208960216
7	970	2220.314253781401	14.324536699043
7	973	2225.083744054971	14.44854601891
7	974	2226.368889323135	10.762893404618
7	975	2227.186492267902	6.202930117065
7	982	2247.668240264981	10.521435426094
7	983	2250.765235787509	8.092497571215
7	984	2253.421498648272	10.210305709593
7	996	2265.866039324009	10.589860063138
7	997	2275.140147796856	17.759524216802
7	1006	2289.896774423385	26.038377567329
7	1010	2301.397146443579	22.866500592385
7	1011	2302.627187954066	23.253852912677
7	1012	2305.734102042913	23.435013780196
7	1013	2310.491973095831	21.934029843853
7	1017	2320.056515236462	0.912947039079
7	1022	2333.86958674113	12.430954602187
7	1027	2336.79288420246	4.049800855561
7	1028	2343.387324291057	9.220984318726
7	1029	2350.382918722612	16.141084513432
7	1032	2350.692470188939	0.010513563447
7	1043	2376.27009725758	12.172381081218
7	1054	2401.340991721795	22.008692955229
7	1055	2401.527507223425	18.914156416559
7	1056	2405.850104158923	22.352393460941
7	1067	2443.857190381722	23.792396512933
7	1068	2447.117269621394	14.687584129048
7	1071	2454.219291520468	2.115653574125
8	140	381.910508285344	1
8	142	382.12216177113	2
8	146	385.458599038288	1
8	152	401.932998597983	1
8	154	404.293112790177	2
8	169	437.903864460807	2
8	171	439.767450543379	3
8	184	467.105152708054	1
8	200	507.778352471988	1
8	202	511.970843354015	2
8	204	523.641403692857	3
8	206	523.764599663184	4
8	209	526.525142992614	4
8	216	556.097184880185	2
8	219	564.45633319999	2
8	245	627.778284939314	1
8	253	638.222539276565	1
8	263	662.431607004495	1
8	265	662.436923341715	2
8	269	669.501349085891	1
8	290	712.041199677948	1
8	307	741.260931673624	1
8	329	799.551242766425	1
8	340	822.860284331871	1
8	369	877.543810870645	1
8	377	887.337605029767	1
8	380	888.487505027603	1
8	391	907.588439234243	1
8	394	909.614822051967	1
8	403	920.771602651114	1
8	423	964.27347470108	1
8	434	981.828805080065	1
8	442	991.993690733228	1
8	456	1016.249624094874	1
8	478	1077.928705248913	1
8	480	1080.302015026252	2
8	493	1107.584578418003	1
8	506	1158.933809594803	1
8	527	1188.996723057024	1
8	550	1278.988197943606	1
8	570	1331.699076905576	1
8	583	1354.3265869964	1
8	606	1410.690821772367	1
8	614	1442.401810080516	1
8	620	1458.263650676793	1
8	622	1458.853799594753	2
8	629	1474.67750170795	1
8	632	1478.591938273987	1
8	640	1499.350124495382	1
8	659	1540.927398831871	1
8	662	1543.83572861612	1
8	667	1571.160236717777	1
8	692	1627.011532211296	1
8	700	1641.200728983196	1
8	704	1649.139788179428	2
8	707	1651.886764969815	2
8	722	1677.97722850772	1
8	731	1691.221218932796	1
8	734	1695.469903337416	1
8	741	1709.973952942435	1
8	754	1734.173751778239	1
8	759	1741.631715878164	1
8	770	1795.251777029999	1
8	772	1796.186514870931	2
8	778	1810.233699922377	3
8	786	1821.747407345427	2
8	795	1852.560548192826	1
8	798	1854.576513861016	1
8	806	1868.175832967458	1
8	809	1869.101112407136	1
8	815	1883.079443135498	1
8	826	1906.172223784969	1
8	834	1929.509174591028	1
8	842	1967.343964080476	1
8	847	1979.682068380707	1
8	850	1982.357432335051	1
8	863	2003.786686497585	1
8	866	2006.5504223079	1
8	880	2040.249635521158	1
8	884	2053.063007369747	1
8	896	2076.247451695774	1
8	900	2080.649378436169	1
8	902	2086.329528345313	2
8	919	2116.760152658708	1
8	925	2130.649701280081	1
8	929	2149.349687489204	1
8	941	2171.319197265902	1
8	949	2183.040962897326	1
8	951	2183.478361293144	2
8	992	2263.858396856056	1
8	1008	2294.457992447564	1
8	1015	2319.143568197383	1
8	1036	2364.097716176362	1
8	1040	2369.034416376807	2
8	1045	2379.332298766566	1
8	1049	2382.99845866801	2
8	1060	2420.064793868789	1
8	1064	2435.541766541786	2
8	1073	2461.309526535168	1
8	1076	2468.83020005602	1
8	1079	2471.034788360199	1
9	140	381.910508285344	0
9	143	384.69280911483	2.5706473437
9	146	385.458599038288	0
9	152	401.932998597983	0
9	161	412.705211130998	8.412098340821
9	172	441.531727928661	3.627863467854
9	175	452.343563383107	12.576112839728
9	184	467.105152708054	0
9	200	507.778352471988	0
9	207	526.417460262455	14.44661690844
9	212	530.870354257102	7.228950564245
9	213	533.586420236173	9.821820572989
9	214	552.767964943804	26.24282195119
9	217	558.489530617745	2.39234573756
9	220	567.814208826407	3.357875626417
9	245	627.778284939314	0
9	253	638.222539276565	0
9	263	662.431607004495	0
9	266	664.17758241064	1.740659068925
9	269	669.501349085891	0
9	290	712.041199677948	0
9	307	741.260931673624	0
9	329	799.551242766425	0
9	340	822.860284331871	0
9	369	877.543810870645	0
9	377	887.337605029767	0
9	380	888.487505027603	0
9	391	907.588439234243	0
9	394	909.614822051967	0
9	403	920.771602651114	0
9	423	964.27347470108	0
9	434	981.828805080065	0
9	442	991.993690733228	0
9	456	1016.249624094874	0
9	478	1077.928705248913	0
9	483	1088.314506891259	8.012491865007
9	493	1107.584578418003	0
9	506	1158.933809594803	0
9	527	1188.996723057024	0
9	550	1278.988197943606	0
9	570	1331.699076905576	0
9	583	1354.3265869964	0
9	606	1410.690821772367	0
9	614	1442.401810080516	0
9	620	1458.263650676793	0
9	625	1465.554158252425	6.700358657672
9	629	1474.67750170795	0
9	632	1478.591938273987	0
9	640	1499.350124495382	0
9	659	1540.927398831871	0
9	662	1543.83572861612	0
9	667	1571.160236717777	0
9	692	1627.011532211296	0
9	700	1641.200728983196	0
9	705	1650.09608815842	0.956299978992
9	710	1662.751489283489	10.864724313674
9	722	1677.97722850772	0
9	731	1691.221218932796	0
9	734	1695.469903337416	0
9	741	1709.973952942435	0
9	754	1734.173751778239	0
9	759	1741.631715878164	0
9	770	1795.251777029999	0
9	779	1812.445026922555	16.258512051624
9	784	1819.872577436233	9.638877513856
9	789	1831.601341753254	9.853934407827
9	795	1852.560548192826	0
9	798	1854.576513861016	0
9	806	1868.175832967458	0
9	809	1869.101112407136	0
9	815	1883.079443135498	0
9	826	1906.172223784969	0
9	834	1929.509174591028	0
9	842	1967.343964080476	0
9	847	1979.682068380707	0
9	850	1982.357432335051	0
9	863	2003.786686497585	0
9	866	2006.5504223079	0
9	880	2040.249635521158	0
9	884	2053.063007369747	0
9	896	2076.247451695774	0
9	900	2080.649378436169	0
9	905	2092.243061902602	5.913533557289
9	919	2116.760152658708	0
9	925	2130.649701280081	0
9	929	2149.349687489204	0
9	941	2171.319197265902	0
9	949	2183.040962897326	0
9	952	2191.834015886391	8.355654593247
9	992	2263.858396856056	0
9	1008	2294.457992447564	0
9	1015	2319.143568197383	0
9	1036	2364.097716176362	0
9	1041	2371.472353185635	2.437936808828
9	1045	2379.332298766566	0
9	1052	2386.87237976446	3.87392109645
9	1060	2420.064793868789	0
9	1065	2437.764480382394	2.222713840608
9	1073	2461.309526535168	0
9	1076	2468.83020005602	0
9	1079	2471.034788360199	0
10	184	467.105152708054	5
10	200	507.778352471988	6
10	245	627.778284939314	7
10	253	638.222539276565	8
10	263	662.431607004495	9
10	269	669.501349085891	10
10	290	712.041199677948	11
10	307	741.260931673624	12
10	340	822.860284331871	13
10	369	877.543810870645	14
10	377	887.337605029767	15
10	380	888.487505027603	16
10	391	907.588439234243	17
10	394	909.614822051967	18
10	403	920.771602651114	19
10	423	964.27347470108	20
10	434	981.828805080065	21
10	442	991.993690733228	22
10	456	1016.249624094874	23
10	478	1077.928705248913	24
10	493	1107.584578418003	25
10	527	1188.996723057024	26
10	550	1278.988197943606	27
10	570	1331.699076905576	28
10	583	1354.3265869964	29
10	606	1410.690821772367	30
10	640	1499.350124495382	31
10	667	1571.160236717777	32
10	700	1641.200728983196	33
10	722	1677.97722850772	34
10	741	1709.973952942435	35
10	754	1734.173751778239	36
10	759	1741.631715878164	37
10	795	1852.560548192826	38
10	798	1854.576513861016	39
10	806	1868.175832967458	40
10	809	1869.101112407136	41
10	826	1906.172223784969	42
10	834	1929.509174591028	43
10	847	1979.682068380707	44
10	850	1982.357432335051	45
10	880	2040.249635521158	46
10	896	2076.247451695774	47
10	900	2080.649378436169	48
10	919	2116.760152658708	49
10	925	2130.649701280081	50
10	949	2183.040962897326	51
10	992	2263.858396856056	52
10	1008	2294.457992447564	53
10	1015	2319.143568197383	54
10	1036	2364.097716176362	55
10	1045	2379.332298766566	56
10	1060	2420.064793868789	57
11	1081	2500	0.096
12	1081	2500	0.048

