file 62397 1678524053                                           
version 2
run experiments_medium_game_mode1-271-20230311-09:40:53-10034
attr configname experiments_medium_game_mode1
attr datetime 20230311-09:40:53
attr experiment experiments_medium_game_mode1
attr inifile omnetpp.ini
attr iterationvars "$0=5, $1=7, $2=100"
attr iterationvarsf 5,7,100-
attr measurement "$0=5, $1=7, $2=100"
attr network Network
attr processid 10034
attr repetition 1
attr replication #1
attr resultdir results
attr runnumber 271
attr seedset 1
param *.boss.arrival_mean 20
param *.boss.service_mean 5
param *.minion.arrival_mean 10
param *.minion.service_mean 7
param *.player.recover_rate_x 100
param **.minion.arrival_distribution 0
param **.minion.service_distribution 0
param **.boss.arrival_distribution 0
param **.boss.service_distribution 0

vector 0 Network.player minion_defeated_stat:vector ETV
attr source signal_minion_defeated
vector 1 Network.player minion_jobs_queue_number_stat:vector ETV
attr source signal_minion_jobs_queue_number
vector 2 Network.player minion_response_time_stat:vector ETV
attr source signal_minion_response_time
vector 3 Network.player minion_waiting_time_stat:vector ETV
attr source signal_minion_waiting_time
vector 4 Network.player minion_jobs_number_stat:vector ETV
attr source signal_minion_jobs_number
vector 5 Network.player boss_jobs_number_stat:vector ETV
attr source signal_boss_jobs_number
vector 6 Network.player boss_jobs_queue_number_stat:vector ETV
attr source signal_boss_jobs_queue_number
vector 7 Network.player minion_recovered_stat:vector ETV
attr source signal_minion_recovered
vector 8 Network.player boss_waiting_time_stat:vector ETV
attr source signal_boss_waiting_time
vector 9 Network.player boss_defeated_stat:vector ETV
attr source signal_boss_defeated
vector 10 Network.player boss_response_time_stat:vector ETV
attr source signal_boss_response_time
vector 11 Network.player minion_throughput:vector ETV
attr source signal_minion_throughput
vector 12 Network.player boss_throughput:vector ETV
attr source signal_boss_throughput
0	2016 5367 129 1066 351.915218781597 2493.898512439222 197 23 219 23837 3521375
1	7383 11062 129 1066 351.915218781597 2493.898512439222 419 0 33 7772 175112
2	18445 7784 129 1066 351.915218781597 2493.898512439222 197 0.686092176651 253.10753606562 27030.823233761 4550471.5090353
3	26229 10987 129 1066 351.915218781597 2493.898512439222 279 0 243.82052285188 37090.0255243 6093806.0681486
4	37216 5858 131 1061 354.557151855681 2480.108407740282 222 1 34 4308 99800
5	43074 2575 138 1068 369.375255317272 2496.852317827315 100 1 3 117 153
6	45649 5116 138 1068 369.375255317272 2496.852317827315 199 0 2 34 38
7	50765 2218 138 1068 369.375255317272 2496.852317827315 83 11 93 4316 272074
8	52983 2782 138 1068 369.375255317272 2496.852317827315 100 0 19.702675673074 76.532588742466 789.05198428294
9	55765 2658 141 1064 372.839816343348 2484.336538732904 99 19 117 6732 538626
10	58423 3933 141 1064 372.839816343348 2484.336538732904 99 0.007139491391 31.547543062299 536.22654926091 5624.2796968635
11	62356 20 1069 1069 2500 2500 1 0.0876 0.0876 0.0876 0.00767376
12	62376 20 1069 1069 2500 2500 1 0.0468 0.0468 0.0468 0.00219024

