file 66269 1678524204                                           
version 2
run experiments_medium_game_mode1-988-20230311-09:43:24-13631
attr configname experiments_medium_game_mode1
attr datetime 20230311-09:43:24
attr experiment experiments_medium_game_mode1
attr inifile omnetpp.ini
attr iterationvars "$0=6.5, $1=4, $2=0"
attr iterationvarsf 6.5,4,0-
attr measurement "$0=6.5, $1=4, $2=0"
attr network Network
attr processid 13631
attr repetition 28
attr replication #28
attr resultdir results
attr runnumber 988
attr seedset 28
param *.boss.arrival_mean 20
param *.boss.service_mean 6.5
param *.minion.arrival_mean 10
param *.minion.service_mean 4
param *.player.recover_rate_x 0
param **.minion.arrival_distribution 0
param **.minion.service_distribution 0
param **.boss.arrival_distribution 0
param **.boss.service_distribution 0

vector 0 Network.player minion_jobs_number_stat:vector ETV
attr source signal_minion_jobs_number
vector 1 Network.player minion_jobs_queue_number_stat:vector ETV
attr source signal_minion_jobs_queue_number
vector 2 Network.player minion_defeated_stat:vector ETV
attr source signal_minion_defeated
vector 3 Network.player minion_response_time_stat:vector ETV
attr source signal_minion_response_time
vector 4 Network.player minion_waiting_time_stat:vector ETV
attr source signal_minion_waiting_time
vector 5 Network.player boss_jobs_number_stat:vector ETV
attr source signal_boss_jobs_number
vector 6 Network.player boss_jobs_queue_number_stat:vector ETV
attr source signal_boss_jobs_queue_number
vector 7 Network.player boss_waiting_time_stat:vector ETV
attr source signal_boss_waiting_time
vector 8 Network.player boss_defeated_stat:vector ETV
attr source signal_boss_defeated
vector 9 Network.player boss_response_time_stat:vector ETV
attr source signal_boss_response_time
vector 10 Network.player minion_recovered_stat:vector ETV
attr source signal_minion_recovered
vector 11 Network.player minion_throughput:vector ETV
attr source signal_minion_throughput
vector 12 Network.player boss_throughput:vector ETV
attr source signal_boss_throughput
0	2019 6395 167 1195 350.294513694894 2463.460184766505 247 1 13 912 5576
1	8414 12848 167 1197 350.294513694894 2472.520185468417 497 0 12 1333 8003
2	21262 6876 168 1197 351.989465323107 2472.520185468417 250 29 278 38375 7192625
3	28138 9805 168 1197 351.989465323107 2472.520185468417 250 0.035806917542 76.643230745465 4592.9188792426 158269.92036886
4	37943 10365 168 1196 351.989465323107 2469.014859623625 285 0 75.330662470672 4221.7105444973 139822.23397883
5	48308 2517 176 1202 378.709152250134 2495.979355742821 98 1 4 137 237
6	50825 5035 176 1203 378.709152250134 2497.933496237217 196 0 3 78 122
7	55860 2912 176 1202 378.709152250134 2495.979355742821 98 0 25.579429695674 230.92382150973 3066.995238767
8	58772 2640 179 1203 386.653060147836 2497.933496237217 98 26 123 7301 622349
9	61412 3817 179 1203 386.653060147836 2497.933496237217 98 0.002303482338 43.551794878437 867.64465693034 14585.005826245
10	65229 999 208 1177 457.419023234562 2426.739274968978 36 15 50 1170 41910
11	66228 20 1204 1204 2500 2500 1 0.1112 0.1112 0.1112 0.01236544
12	66248 20 1204 1204 2500 2500 1 0.0492 0.0492 0.0492 0.00242064

