file 65817 1678524025                                           
version 2
run experiments_medium_game_mode1-137-20230311-09:40:25-9355
attr configname experiments_medium_game_mode1
attr datetime 20230311-09:40:25
attr experiment experiments_medium_game_mode1
attr inifile omnetpp.ini
attr iterationvars "$0=5, $1=5, $2=0"
attr iterationvarsf 5,5,0-
attr measurement "$0=5, $1=5, $2=0"
attr network Network
attr processid 9355
attr repetition 17
attr replication #17
attr resultdir results
attr runnumber 137
attr seedset 17
param *.boss.arrival_mean 20
param *.boss.service_mean 5
param *.minion.arrival_mean 10
param *.minion.service_mean 5
param *.player.recover_rate_x 0
param **.minion.arrival_distribution 0
param **.minion.service_distribution 0
param **.boss.arrival_distribution 0
param **.boss.service_distribution 0

vector 0 Network.player boss_jobs_number_stat:vector ETV
attr source signal_boss_jobs_number
vector 1 Network.player boss_jobs_queue_number_stat:vector ETV
attr source signal_boss_jobs_queue_number
vector 2 Network.player boss_defeated_stat:vector ETV
attr source signal_boss_defeated
vector 3 Network.player boss_response_time_stat:vector ETV
attr source signal_boss_response_time
vector 4 Network.player boss_waiting_time_stat:vector ETV
attr source signal_boss_waiting_time
vector 5 Network.player minion_waiting_time_stat:vector ETV
attr source signal_minion_waiting_time
vector 6 Network.player minion_defeated_stat:vector ETV
attr source signal_minion_defeated
vector 7 Network.player minion_jobs_queue_number_stat:vector ETV
attr source signal_minion_jobs_queue_number
vector 8 Network.player minion_response_time_stat:vector ETV
attr source signal_minion_response_time
vector 9 Network.player minion_recovered_stat:vector ETV
attr source signal_minion_recovered
vector 10 Network.player minion_jobs_number_stat:vector ETV
attr source signal_minion_jobs_number
vector 11 Network.player minion_throughput:vector ETV
attr source signal_minion_throughput
vector 12 Network.player boss_throughput:vector ETV
attr source signal_boss_throughput
0	2009 3035 155 1159 350.171511211393 2489.726720628059 118 1 4 165 293
1	5044 6096 155 1160 350.171511211393 2492.138571458029 237 0 3 94 162
2	11140 3219 156 1160 353.344738418983 2492.138571458029 119 20 138 9401 883099
3	14359 4625 156 1160 353.344738418983 2492.138571458029 119 0.069360803661 33.805156575811 781.96612759064 10382.585702235
4	18984 3466 156 1159 353.344738418983 2489.726720628059 118 0 31.703039925682 220.796088046 2896.05170505
5	22450 10036 157 1166 355.290835608685 2498.372835782546 273 0 62.617187070794 4110.583855084 122829.31432932
6	32486 6047 158 1166 356.703089880301 2498.372835782546 220 29 248 30470 5107410
7	38533 11321 158 1166 356.703089880301 2498.372835782546 439 0 10 1096 5400
8	49854 8665 158 1166 356.703089880301 2498.372835782546 220 0.005972513334 65.730527404389 4133.3125817664 129778.91745336
9	58519 1389 161 1159 359.177002320821 2489.726720628059 52 7 58 1690 66638
10	59908 5868 163 1157 361.587814466951 2488.977018924844 219 1 11 765 4003
11	65776 20 1167 1167 2500 2500 1 0.0992 0.0992 0.0992 0.00984064
12	65796 20 1167 1167 2500 2500 1 0.0552 0.0552 0.0552 0.00304704

