version 2
run experiments_medium_game_mode1-545-20230311-09:41:50-11413
attr configname experiments_medium_game_mode1
attr datetime 20230311-09:41:50
attr experiment experiments_medium_game_mode1
attr inifile omnetpp.ini
attr iterationvars "$0=5.5, $1=7, $2=0"
attr iterationvarsf 5.5,7,0-
attr measurement "$0=5.5, $1=7, $2=0"
attr network Network
attr processid 11413
attr repetition 5
attr replication #5
attr resultdir results
attr runnumber 545
attr seedset 5
param *.boss.arrival_mean 20
param *.boss.service_mean 5.5
param *.minion.arrival_mean 10
param *.minion.service_mean 7
param *.player.recover_rate_x 0
param **.minion.arrival_distribution 0
param **.minion.service_distribution 0
param **.boss.arrival_distribution 0
param **.boss.service_distribution 0

vector 0 Network.player boss_defeated_stat:vector ETV
attr source signal_boss_defeated
vector 1 Network.player boss_jobs_queue_number_stat:vector ETV
attr source signal_boss_jobs_queue_number
vector 2 Network.player boss_response_time_stat:vector ETV
attr source signal_boss_response_time
vector 3 Network.player minion_jobs_number_stat:vector ETV
attr source signal_minion_jobs_number
vector 4 Network.player minion_jobs_queue_number_stat:vector ETV
attr source signal_minion_jobs_queue_number
vector 5 Network.player minion_waiting_time_stat:vector ETV
attr source signal_minion_waiting_time
vector 6 Network.player minion_defeated_stat:vector ETV
attr source signal_minion_defeated
vector 7 Network.player minion_response_time_stat:vector ETV
attr source signal_minion_response_time
vector 8 Network.player boss_jobs_number_stat:vector ETV
attr source signal_boss_jobs_number
vector 9 Network.player boss_waiting_time_stat:vector ETV
attr source signal_boss_waiting_time
vector 10 Network.player minion_recovered_stat:vector ETV
attr source signal_minion_recovered
vector 11 Network.player minion_throughput:vector ETV
attr source signal_minion_throughput
vector 12 Network.player boss_throughput:vector ETV
attr source signal_boss_throughput
0	132	352.419413953366	19
0	143	384.971039197779	20
0	144	384.984612763022	21
0	147	393.18475236929	22
0	161	413.7824323843	23
0	172	445.49160086173	24
0	175	457.384619861621	25
0	176	457.385076896313	26
0	187	469.070084802075	27
0	211	528.281371041501	28
0	212	533.179554435613	29
0	213	536.167227012591	30
0	216	557.266926190985	31
0	217	563.56064843232	32
0	222	573.817794461848	33
0	225	581.500571396334	34
0	243	628.148376851301	35
0	250	642.97887073899	36
0	262	664.352179951255	37
0	263	667.115540953657	38
0	267	671.369068179928	39
0	282	715.633290642459	40
0	296	750.768204498205	41
0	321	802.278357629217	42
0	336	828.272223852343	43
0	363	883.594357394011	44
0	368	887.981493951636	45
0	375	896.248603754752	46
0	382	907.591348466653	47
0	391	919.480993014041	48
0	396	936.447606586028	49
0	409	965.312779511845	50
0	420	982.667937219853	51
0	428	993.305176217763	52
0	446	1019.260783871674	53
0	467	1089.353087055494	54
0	468	1091.692768263468	55
0	476	1110.702633925242	56
0	491	1170.145939036469	57
0	506	1200.481287161832	58
0	538	1282.066377257918	59
0	560	1335.197201893783	60
0	575	1364.032104050904	61
0	594	1412.671643441996	62
0	605	1449.361086328333	63
0	614	1466.283209009988	64
0	615	1466.981461513805	65
0	619	1474.734688693141	66
0	627	1483.582042992274	67
0	632	1505.552821052008	68
0	650	1541.691799751987	69
0	653	1547.345029913686	70
0	659	1571.604113417143	71
0	691	1632.542187791374	72
0	698	1650.985624075942	73
0	703	1664.906565313518	74
0	706	1668.340439789491	75
0	714	1678.753813486626	76
0	723	1692.193355286041	77
0	731	1705.528400955309	78
0	739	1714.34105433376	79
0	750	1740.885426651111	80
0	753	1746.515230778877	81
0	778	1814.16435191181	82
0	783	1822.334657476856	83
0	786	1835.236298225579	84
0	787	1841.102952863946	85
0	794	1854.466024420374	86
0	797	1859.063315848651	87
0	802	1869.05312402433	88
0	805	1870.180849006436	89
0	814	1883.917001060696	90
0	825	1907.685850962181	91
0	835	1946.480143467533	92
0	842	1971.223281072027	93
0	848	1979.684398410201	94
0	853	1985.137222768579	95
0	861	2005.675900795327	96
0	865	2010.179427631525	97
0	881	2043.939784820892	98
0	891	2070.210194896341	99
0	897	2076.414622236344	100
0	905	2093.402430249246	101
0	910	2104.992143675572	102
0	919	2120.636182388701	103
0	922	2131.294609548714	104
0	932	2158.802554833642	105
0	946	2178.029613062688	106
0	951	2192.713321185297	107
0	952	2192.864993012527	108
0	992	2265.309014011623	109
0	1007	2295.615478093588	110
0	1012	2319.596523400409	111
0	1036	2372.209816886562	112
0	1037	2375.657852537123	113
0	1046	2387.626387864249	114
0	1047	2399.241094336128	115
0	1059	2439.534449033754	116
0	1060	2440.412170163124	117
0	1070	2464.235331930885	118
0	1074	2470.276651419965	119
0	1077	2479.772752411169	120
1	132	352.419413953366	0
1	140	381.910508285344	0
1	142	382.12216177113	1
1	143	384.971039197779	1
1	144	384.984612763022	0
1	146	385.458599038288	0
1	147	393.18475236929	0
1	152	401.932998597983	0
1	154	404.293112790177	1
1	161	413.7824323843	1
1	169	437.903864460807	1
1	171	439.767450543379	2
1	172	445.49160086173	2
1	175	457.384619861621	1
1	176	457.385076896313	0
1	184	467.105152708054	0
1	187	469.070084802075	0
1	200	507.778352471988	0
1	202	511.970843354015	1
1	204	523.641403692857	2
1	206	523.764599663184	3
1	208	526.525142992614	4
1	211	528.281371041501	4
1	212	533.179554435613	3
1	213	536.167227012591	2
1	215	556.097184880185	2
1	216	557.266926190985	2
1	217	563.56064843232	1
1	219	564.45633319999	1
1	222	573.817794461848	1
1	225	581.500571396334	0
1	242	627.778284939314	0
1	243	628.148376851301	0
1	249	638.222539276565	0
1	250	642.97887073899	0
1	259	662.431607004495	0
1	261	662.436923341715	1
1	262	664.352179951255	1
1	263	667.115540953657	0
1	266	669.501349085891	0
1	267	671.369068179928	0
1	281	712.041199677948	0
1	282	715.633290642459	0
1	293	741.260931673624	0
1	296	750.768204498205	0
1	318	799.551242766425	0
1	321	802.278357629217	0
1	333	822.860284331871	0
1	336	828.272223852343	0
1	360	877.543810870645	0
1	363	883.594357394011	0
1	367	887.337605029767	0
1	368	887.981493951636	0
1	370	888.487505027603	0
1	375	896.248603754752	0
1	381	907.588439234243	0
1	382	907.591348466653	0
1	384	909.614822051967	0
1	391	919.480993014041	0
1	393	920.771602651114	0
1	396	936.447606586028	0
1	408	964.27347470108	0
1	409	965.312779511845	0
1	419	981.828805080065	0
1	420	982.667937219853	0
1	427	991.993690733228	0
1	428	993.305176217763	0
1	441	1016.249624094874	0
1	446	1019.260783871674	0
1	462	1077.928705248913	0
1	464	1080.302015026252	1
1	467	1089.353087055494	1
1	468	1091.692768263468	0
1	475	1107.584578418003	0
1	476	1110.702633925242	0
1	486	1158.933809594803	0
1	491	1170.145939036469	0
1	505	1188.996723057024	0
1	506	1200.481287161832	0
1	537	1278.988197943606	0
1	538	1282.066377257918	0
1	559	1331.699076905576	0
1	560	1335.197201893783	0
1	570	1354.3265869964	0
1	575	1364.032104050904	0
1	593	1410.690821772367	0
1	594	1412.671643441996	0
1	602	1442.401810080516	0
1	605	1449.361086328333	0
1	609	1458.263650676793	0
1	611	1458.853799594753	1
1	614	1466.283209009988	1
1	615	1466.981461513805	0
1	618	1474.67750170795	0
1	619	1474.734688693141	0
1	622	1478.591938273987	0
1	627	1483.582042992274	0
1	629	1499.350124495382	0
1	632	1505.552821052008	0
1	649	1540.927398831871	0
1	650	1541.691799751987	0
1	652	1543.83572861612	0
1	653	1547.345029913686	0
1	658	1571.160236717777	0
1	659	1571.604113417143	0
1	686	1627.011532211296	0
1	691	1632.542187791374	0
1	693	1641.200728983196	0
1	697	1649.139788179428	1
1	698	1650.985624075942	1
1	700	1651.886764969815	1
1	703	1664.906565313518	1
1	706	1668.340439789491	0
1	713	1677.97722850772	0
1	714	1678.753813486626	0
1	722	1691.221218932796	0
1	723	1692.193355286041	0
1	726	1695.469903337416	0
1	731	1705.528400955309	0
1	734	1709.973952942435	0
1	739	1714.34105433376	0
1	747	1734.173751778239	0
1	750	1740.885426651111	0
1	752	1741.631715878164	0
1	753	1746.515230778877	0
1	767	1795.251777029999	0
1	769	1796.186514870931	1
1	775	1810.233699922377	2
1	778	1814.16435191181	2
1	782	1821.747407345427	2
1	783	1822.334657476856	2
1	786	1835.236298225579	1
1	787	1841.102952863946	0
1	793	1852.560548192826	0
1	794	1854.466024420374	0
1	796	1854.576513861016	0
1	797	1859.063315848651	0
1	801	1868.175832967458	0
1	802	1869.05312402433	0
1	804	1869.101112407136	0
1	805	1870.180849006436	0
1	811	1883.079443135498	0
1	814	1883.917001060696	0
1	824	1906.172223784969	0
1	825	1907.685850962181	0
1	832	1929.509174591028	0
1	835	1946.480143467533	0
1	839	1967.343964080476	0
1	842	1971.223281072027	0
1	847	1979.682068380707	0
1	848	1979.684398410201	0
1	850	1982.357432335051	0
1	853	1985.137222768579	0
1	860	2003.786686497585	0
1	861	2005.675900795327	0
1	864	2006.5504223079	0
1	865	2010.179427631525	0
1	880	2040.249635521158	0
1	881	2043.939784820892	0
1	884	2053.063007369747	0
1	891	2070.210194896341	0
1	896	2076.247451695774	0
1	897	2076.414622236344	0
1	900	2080.649378436169	0
1	902	2086.329528345313	1
1	905	2093.402430249246	1
1	910	2104.992143675572	0
1	918	2116.760152658708	0
1	919	2120.636182388701	0
1	921	2130.649701280081	0
1	922	2131.294609548714	0
1	927	2149.349687489204	0
1	932	2158.802554833642	0
1	941	2171.319197265902	0
1	946	2178.029613062688	0
1	948	2183.040962897326	0
1	950	2183.478361293144	1
1	951	2192.713321185297	1
1	952	2192.864993012527	0
1	991	2263.858396856056	0
1	992	2265.309014011623	0
1	1006	2294.457992447564	0
1	1007	2295.615478093588	0
1	1011	2319.143568197383	0
1	1012	2319.596523400409	0
1	1031	2364.097716176362	0
1	1035	2369.034416376807	1
1	1036	2372.209816886562	1
1	1037	2375.657852537123	0
1	1039	2379.332298766566	0
1	1043	2382.99845866801	1
1	1046	2387.626387864249	1
1	1047	2399.241094336128	0
1	1054	2420.064793868789	0
1	1058	2435.541766541786	1
1	1059	2439.534449033754	1
1	1060	2440.412170163124	0
1	1069	2461.309526535168	0
1	1070	2464.235331930885	0
1	1073	2468.83020005602	0
1	1074	2470.276651419965	0
1	1076	2471.034788360199	0
1	1077	2479.772752411169	0
2	132	352.419413953366	2.920001992485
2	143	384.971039197779	3.060530912435
2	144	384.984612763022	2.862450991892
2	147	393.18475236929	7.726153331002
2	161	413.7824323843	11.849433786317
2	172	445.49160086173	41.198488071553
2	175	457.384619861621	19.480755400814
2	176	457.385076896313	17.617626352934
2	187	469.070084802075	1.964932094021
2	211	528.281371041501	20.503018569513
2	212	533.179554435613	21.208711081598
2	213	536.167227012591	12.525823319734
2	216	557.266926190985	33.502326527801
2	217	563.56064843232	37.035505439706
2	222	573.817794461848	17.720609581663
2	225	581.500571396334	17.044238196344
2	243	628.148376851301	0.370091911987
2	250	642.97887073899	4.756331462425
2	262	664.352179951255	1.92057294676
2	263	667.115540953657	4.678617611942
2	267	671.369068179928	1.867719094037
2	282	715.633290642459	3.592090964511
2	296	750.768204498205	9.507272824581
2	321	802.278357629217	2.727114862792
2	336	828.272223852343	5.411939520472
2	363	883.594357394011	6.050546523366
2	368	887.981493951636	0.643888921869
2	375	896.248603754752	7.761098727149
2	382	907.591348466653	0.00290923241
2	391	919.480993014041	9.866170962074
2	396	936.447606586028	15.676003934914
2	409	965.312779511845	1.039304810765
2	420	982.667937219853	0.839132139788
2	428	993.305176217763	1.311485484535
2	446	1019.260783871674	3.0111597768
2	467	1089.353087055494	11.424381806581
2	468	1091.692768263468	11.390753237216
2	476	1110.702633925242	3.118055507239
2	491	1170.145939036469	11.212129441666
2	506	1200.481287161832	11.484564104808
2	538	1282.066377257918	3.078179314312
2	560	1335.197201893783	3.498124988207
2	575	1364.032104050904	9.705517054504
2	594	1412.671643441996	1.980821669629
2	605	1449.361086328333	6.959276247817
2	614	1466.283209009988	8.019558333195
2	615	1466.981461513805	8.127661919052
2	619	1474.734688693141	0.057186985191
2	627	1483.582042992274	4.990104718287
2	632	1505.552821052008	6.202696556626
2	650	1541.691799751987	0.764400920116
2	653	1547.345029913686	3.509301297566
2	659	1571.604113417143	0.443876699366
2	691	1632.542187791374	5.530655580078
2	698	1650.985624075942	9.784895092746
2	703	1664.906565313518	15.76677713409
2	706	1668.340439789491	16.453674819676
2	714	1678.753813486626	0.776584978906
2	723	1692.193355286041	0.972136353245
2	731	1705.528400955309	10.058497617893
2	739	1714.34105433376	4.367101391325
2	750	1740.885426651111	6.711674872872
2	753	1746.515230778877	4.883514900713
2	778	1814.16435191181	18.912574881811
2	783	1822.334657476856	26.148142605925
2	786	1835.236298225579	25.002598303202
2	787	1841.102952863946	19.355545518519
2	794	1854.466024420374	1.905476227548
2	797	1859.063315848651	4.486801987635
2	802	1869.05312402433	0.877291056872
2	805	1870.180849006436	1.0797365993
2	814	1883.917001060696	0.837557925198
2	825	1907.685850962181	1.513627177212
2	835	1946.480143467533	16.970968876505
2	842	1971.223281072027	3.879316991551
2	848	1979.684398410201	0.002330029494
2	853	1985.137222768579	2.779790433528
2	861	2005.675900795327	1.889214297742
2	865	2010.179427631525	3.629005323625
2	881	2043.939784820892	3.690149299734
2	891	2070.210194896341	17.147187526594
2	897	2076.414622236344	0.16717054057
2	905	2093.402430249246	12.753051813077
2	910	2104.992143675572	18.662615330259
2	919	2120.636182388701	3.876029729993
2	922	2131.294609548714	0.644908268633
2	932	2158.802554833642	9.452867344438
2	946	2178.029613062688	6.710415796786
2	951	2192.713321185297	9.672358287971
2	952	2192.864993012527	9.386631719383
2	992	2265.309014011623	1.450617155567
2	1007	2295.615478093588	1.157485646024
2	1012	2319.596523400409	0.452955203026
2	1036	2372.209816886562	8.1121007102
2	1037	2375.657852537123	6.623436160316
2	1046	2387.626387864249	8.294089097683
2	1047	2399.241094336128	16.242635668118
2	1059	2439.534449033754	19.469655164965
2	1060	2440.412170163124	4.870403621338
2	1070	2464.235331930885	2.925805395717
2	1074	2470.276651419965	1.446451363945
2	1077	2479.772752411169	8.73796405097
3	134	354.172507827807	1
3	137	373.165573927013	1
3	149	393.279838510632	1
3	156	408.207277351423	1
3	158	411.99829745011	2
3	160	412.37183081957	3
3	163	436.073400872944	4
3	165	437.314233815506	5
3	167	437.327952946813	6
3	174	451.242256151972	7
3	178	459.810452974783	8
3	181	462.544540123058	8
3	186	468.979055047066	8
3	189	471.920162134502	9
3	191	475.095408618298	10
3	194	494.588354537745	10
3	196	497.713550616588	11
3	210	527.626775085374	10
3	221	571.143215401286	11
3	224	579.391432256081	12
3	229	605.943574795199	11
3	231	607.913223543641	12
3	233	609.957947543076	13
3	239	624.665666816139	10
3	245	630.706851864441	10
3	247	637.487093734645	11
3	252	643.417267897842	12
3	255	653.393714807935	12
3	257	656.310268947339	13
3	269	674.6047529137	13
3	272	695.335114389194	13
3	274	701.516242444663	14
3	276	704.925125838561	15
3	279	711.815483747498	15
3	284	715.664169776615	16
3	288	727.040126940911	15
3	291	735.618888755847	15
3	295	746.139589939481	16
3	301	762.644089716245	14
3	304	765.774707186922	14
3	306	768.538631314541	15
3	308	769.235612506848	16
3	314	787.248359323836	13
3	320	802.008149240264	12
3	326	815.757023724541	10
3	330	822.315232027055	9
3	335	828.136835226231	9
3	339	832.129773314188	9
3	341	833.062464632352	10
3	344	840.209054935251	10
3	347	845.043579502083	10
3	349	848.103789288935	11
3	351	853.51756743213	12
3	354	857.235620783026	12
3	357	871.716141047027	12
3	362	881.573981200952	12
3	365	883.796395950465	13
3	372	891.948409974863	14
3	374	892.451265341315	15
3	377	896.287023108023	16
3	379	907.496880138223	17
3	386	912.519557305623	18
3	388	912.719751269411	19
3	390	915.703469079402	20
3	395	931.627609079209	21
3	398	940.35611761368	22
3	401	952.926673196333	22
3	404	954.689615315032	22
3	406	958.18994317615	23
3	411	967.306304503991	24
3	413	971.293520383222	25
3	423	988.770386098451	21
3	425	991.89196686214	22
3	430	993.592636988663	23
3	432	995.06088645478	24
3	436	1008.314780315635	23
3	438	1012.966214610902	24
3	443	1018.219575777321	24
3	445	1018.378246406112	25
3	451	1033.460060157527	23
3	453	1037.687100701228	24
3	456	1053.982005230281	24
3	466	1087.119359711866	21
3	470	1102.540491660609	22
3	473	1104.720238786165	22
3	478	1113.692156924454	23
3	483	1148.073931961739	21
3	488	1158.994943503307	21
3	490	1159.869971217089	22
3	493	1170.270592856227	23
3	495	1172.886145916887	24
3	497	1178.431073673036	25
3	499	1180.180260533885	26
3	503	1187.386849011417	25
3	511	1213.938108252133	23
3	515	1220.894768537029	22
3	522	1246.89843674697	18
3	524	1247.276325723585	19
3	529	1266.056222790817	17
3	535	1278.370214318002	14
3	540	1284.448987743469	15
3	543	1294.136166031973	15
3	547	1301.96258254879	14
3	551	1317.004740683419	13
3	554	1321.089472312076	13
3	556	1327.240403897141	14
3	562	1339.31192988468	14
3	564	1344.089152158986	15
3	568	1354.139097917223	14
3	572	1357.590687385923	15
3	574	1362.401640317386	16
3	578	1370.548662839093	16
3	582	1393.477834516225	15
3	584	1394.357009853883	16
3	588	1399.467597341814	15
3	591	1409.444819982285	15
3	596	1413.916469106427	16
3	604	1442.842899766702	13
3	613	1460.245386861678	12
3	624	1482.431277285998	11
3	626	1482.922469037112	12
3	631	1504.007678257348	13
3	636	1516.603279450633	12
3	638	1520.830688733209	13
3	640	1521.897440116271	14
3	647	1534.041056993256	10
3	656	1567.933072131845	10
3	661	1575.426811134132	11
3	663	1577.614321941095	12
3	669	1588.382349111459	9
3	675	1604.98445020996	6
3	678	1608.10816906207	6
3	680	1611.611585584382	7
3	683	1620.970579796187	7
3	688	1629.016241169596	7
3	690	1629.509796788956	8
3	695	1645.107593448206	9
3	702	1656.998456245854	10
3	705	1667.385312246145	11
3	709	1670.941665386543	11
3	711	1677.340756018396	12
3	716	1679.151605878875	13
3	728	1698.499432454028	9
3	730	1702.537875751213	10
3	736	1710.023199632792	10
3	738	1711.831678986269	11
3	741	1715.794270075167	12
3	749	1740.402810295447	9
3	755	1754.371851842985	10
3	758	1757.712952114246	10
3	771	1803.563631578393	4
3	773	1804.702121163114	5
3	777	1813.945618333506	6
3	780	1815.189939142241	7
3	785	1830.000877789753	8
3	790	1844.087242559274	8
3	799	1865.352465476735	8
3	813	1883.609421275364	5
3	817	1885.977274496929	5
3	819	1886.339112843074	6
3	827	1925.322903074237	4
3	829	1926.617656675168	5
3	834	1946.452518246029	5
3	841	1968.617331088617	4
3	852	1983.774184273965	2
3	855	1991.012150132266	3
3	857	1995.96333466045	4
3	869	2021.788839862228	1
3	871	2027.965610252793	2
3	875	2036.670246191136	1
3	878	2038.612038391061	1
3	886	2053.451391923639	1
3	888	2059.720372977221	2
3	890	2065.213904978399	3
3	893	2070.960011779213	4
3	904	2088.416297189241	3
3	907	2094.55514914724	4
3	909	2099.423059657969	5
3	912	2109.526301819064	6
3	915	2113.901216392289	6
3	929	2152.7373224416	3
3	931	2158.324858173646	4
3	938	2170.032935115697	1
3	943	2175.059280819876	1
3	945	2175.89386075536	2
3	954	2194.513301538501	3
3	956	2197.181186761374	4
3	958	2201.862421686758	5
3	962	2205.989717082358	4
3	964	2210.635198036061	5
3	967	2215.605995918517	5
3	969	2220.983562150837	6
3	974	2237.146804838887	4
3	977	2242.672738216294	4
3	980	2243.211192938679	4
3	983	2254.082127145278	4
3	985	2255.276179260871	5
3	987	2257.380623580054	6
3	994	2265.712071714624	5
3	996	2278.530645851194	6
3	998	2279.373335041389	7
3	1000	2282.299088262717	8
3	1002	2288.557943251978	9
3	1015	2321.438632138943	5
3	1019	2332.743083346899	4
3	1021	2334.166339972331	5
3	1023	2334.24183420918	6
3	1027	2350.681956625492	5
3	1029	2362.032617962155	6
3	1033	2366.417596998391	7
3	1041	2382.613350806866	8
3	1045	2383.497710697982	9
3	1052	2419.292970577924	7
3	1056	2432.429685492346	8
3	1066	2452.103637946343	5
4	134	354.172507827807	0
4	135	364.506343049045	0
4	137	373.165573927013	0
4	138	374.538739777874	0
4	149	393.279838510632	0
4	150	396.573054520548	0
4	156	408.207277351423	0
4	158	411.99829745011	1
4	160	412.37183081957	2
4	163	436.073400872944	3
4	165	437.314233815506	4
4	167	437.327952946813	5
4	174	451.242256151972	6
4	178	459.810452974783	7
4	179	462.180351609683	7
4	181	462.544540123058	7
4	182	466.062933912331	7
4	186	468.979055047066	7
4	189	471.920162134502	8
4	191	475.095408618298	9
4	192	492.951435549643	9
4	194	494.588354537745	9
4	196	497.713550616588	10
4	197	502.910512925716	10
4	198	505.229919533362	9
4	210	527.626775085374	9
4	221	571.143215401286	10
4	224	579.391432256081	11
4	226	587.609154112803	11
4	227	597.578655817891	10
4	229	605.943574795199	10
4	231	607.913223543641	11
4	233	609.957947543076	12
4	234	610.486697254624	12
4	235	615.331408973733	11
4	236	618.72580902364	10
4	237	621.133741900968	9
4	239	624.665666816139	9
4	240	624.811981343168	9
4	245	630.706851864441	9
4	247	637.487093734645	10
4	252	643.417267897842	11
4	253	651.725578482237	11
4	255	653.393714807935	11
4	257	656.310268947339	12
4	264	669.324941574004	12
4	269	674.6047529137	12
4	270	684.843042574704	12
4	272	695.335114389194	12
4	274	701.516242444663	13
4	276	704.925125838561	14
4	277	706.86128942641	14
4	279	711.815483747498	14
4	284	715.664169776615	15
4	285	718.573040709994	15
4	286	720.997713381459	14
4	288	727.040126940911	14
4	289	731.009614823891	14
4	291	735.618888755847	14
4	295	746.139589939481	15
4	297	752.621371906616	15
4	298	757.710740105447	14
4	299	759.884719343062	13
4	301	762.644089716245	13
4	302	763.777617619649	13
4	304	765.774707186922	13
4	306	768.538631314541	14
4	308	769.235612506848	15
4	309	781.871119005483	15
4	310	783.157197251978	14
4	311	783.780332758084	13
4	312	786.263992460582	12
4	314	787.248359323836	12
4	315	795.992045748303	12
4	316	798.330014749723	11
4	320	802.008149240264	11
4	322	805.685995309558	11
4	323	808.460276374507	10
4	324	814.991803092364	9
4	326	815.757023724541	9
4	327	816.777916546982	9
4	328	821.093038933698	8
4	330	822.315232027055	8
4	331	822.337343794286	8
4	335	828.136835226231	8
4	337	831.865424950202	8
4	339	832.129773314188	8
4	341	833.062464632352	9
4	342	833.581367671059	9
4	344	840.209054935251	9
4	345	845.002214607751	9
4	347	845.043579502083	9
4	349	848.103789288935	10
4	351	853.51756743213	11
4	352	855.707211747631	11
4	354	857.235620783026	11
4	355	866.968670156558	11
4	357	871.716141047027	11
4	358	872.418242816625	11
4	362	881.573981200952	11
4	365	883.796395950465	12
4	372	891.948409974863	13
4	374	892.451265341315	14
4	377	896.287023108023	15
4	379	907.496880138223	16
4	386	912.519557305623	17
4	388	912.719751269411	18
4	390	915.703469079402	19
4	395	931.627609079209	20
4	398	940.35611761368	21
4	399	947.76516169761	21
4	401	952.926673196333	21
4	402	954.443558876236	21
4	404	954.689615315032	21
4	406	958.18994317615	22
4	411	967.306304503991	23
4	413	971.293520383222	24
4	414	972.716874007785	24
4	415	973.318059043543	23
4	416	977.272388878236	22
4	417	980.696025397851	21
4	421	983.904243212783	20
4	423	988.770386098451	20
4	425	991.89196686214	21
4	430	993.592636988663	22
4	432	995.06088645478	23
4	433	997.002808746486	23
4	434	1002.189618805349	22
4	436	1008.314780315635	22
4	438	1012.966214610902	23
4	439	1013.820544213171	23
4	443	1018.219575777321	23
4	445	1018.378246406112	24
4	447	1021.167859143489	24
4	448	1022.700642546869	23
4	449	1029.12114276073	22
4	451	1033.460060157527	22
4	453	1037.687100701228	23
4	454	1039.12904075314	23
4	456	1053.982005230281	23
4	457	1055.1319140062	23
4	458	1056.020556319984	22
4	459	1057.720306150031	21
4	460	1062.434160330031	20
4	466	1087.119359711866	20
4	470	1102.540491660609	21
4	471	1104.02755288485	21
4	473	1104.720238786165	21
4	478	1113.692156924454	22
4	479	1114.087489360486	22
4	480	1127.794972127168	21
4	481	1131.648277275102	20
4	483	1148.073931961739	20
4	484	1150.515264656523	20
4	488	1158.994943503307	20
4	490	1159.869971217089	21
4	493	1170.270592856227	22
4	495	1172.886145916887	23
4	497	1178.431073673036	24
4	499	1180.180260533885	25
4	500	1182.638361982693	25
4	501	1183.960530047514	24
4	503	1187.386849011417	24
4	507	1200.685828818512	24
4	508	1209.087107313963	23
4	509	1211.401141483099	22
4	511	1213.938108252133	22
4	512	1215.652723849571	22
4	513	1219.893683637215	21
4	515	1220.894768537029	21
4	516	1228.625157235372	21
4	517	1231.181284867719	20
4	518	1234.512938632366	19
4	519	1246.519810775335	18
4	520	1246.660851985805	17
4	522	1246.89843674697	17
4	524	1247.276325723585	18
4	525	1253.029359013306	18
4	526	1254.082390189652	17
4	527	1263.323704367505	16
4	529	1266.056222790817	16
4	530	1269.971901666249	16
4	531	1273.562823238534	15
4	532	1275.866567414527	14
4	533	1278.32091894702	13
4	535	1278.370214318002	13
4	540	1284.448987743469	14
4	541	1288.42658553397	14
4	543	1294.136166031973	14
4	544	1294.675592146288	14
4	545	1299.566236370755	13
4	547	1301.96258254879	13
4	548	1314.783613231317	13
4	549	1315.799017466553	12
4	551	1317.004740683419	12
4	552	1318.578804737278	12
4	554	1321.089472312076	12
4	556	1327.240403897141	13
4	557	1328.845904800031	13
4	562	1339.31192988468	13
4	564	1344.089152158986	14
4	565	1346.62649356427	14
4	566	1350.451031592882	13
4	568	1354.139097917223	13
4	572	1357.590687385923	14
4	574	1362.401640317386	15
4	576	1366.534242905231	15
4	578	1370.548662839093	15
4	579	1374.204125151314	15
4	580	1375.377429237683	14
4	582	1393.477834516225	14
4	584	1394.357009853883	15
4	585	1396.111440119419	15
4	586	1398.070479107654	14
4	588	1399.467597341814	14
4	589	1406.191021455222	14
4	591	1409.444819982285	14
4	596	1413.916469106427	15
4	597	1421.779841454987	15
4	598	1426.192378415851	14
4	599	1430.418715955626	13
4	600	1433.9022553081	12
4	604	1442.842899766702	12
4	606	1449.950670301981	12
4	607	1457.252592646063	11
4	613	1460.245386861678	11
4	616	1470.435511486002	11
4	620	1475.510127058678	10
4	624	1482.431277285998	10
4	626	1482.922469037112	11
4	631	1504.007678257348	12
4	633	1506.84007116059	12
4	634	1514.318869412756	11
4	636	1516.603279450633	11
4	638	1520.830688733209	12
4	640	1521.897440116271	13
4	641	1523.1501974919	13
4	642	1524.056203474379	12
4	643	1525.438930458656	11
4	644	1528.74956056158	10
4	645	1532.038165936923	9
4	647	1534.041056993256	9
4	654	1560.620439064615	9
4	656	1567.933072131845	9
4	661	1575.426811134132	10
4	663	1577.614321941095	11
4	664	1577.625142900273	11
4	665	1580.805292345879	10
4	666	1582.690580242042	9
4	667	1586.048527648876	8
4	669	1588.382349111459	8
4	670	1594.47379785212	8
4	671	1594.768361968694	7
4	672	1595.607256837024	6
4	673	1598.860009574126	5
4	675	1604.98445020996	5
4	676	1607.773358405614	5
4	678	1608.10816906207	5
4	680	1611.611585584382	6
4	681	1617.898025700687	6
4	683	1620.970579796187	6
4	684	1624.936998942437	6
4	688	1629.016241169596	6
4	690	1629.509796788956	7
4	695	1645.107593448206	8
4	702	1656.998456245854	9
4	705	1667.385312246145	10
4	707	1668.552148929171	10
4	709	1670.941665386543	10
4	711	1677.340756018396	11
4	716	1679.151605878875	12
4	717	1682.645455257327	12
4	718	1684.161789947456	11
4	719	1685.26601475809	10
4	720	1686.179785250053	9
4	724	1694.94867088023	8
4	728	1698.499432454028	8
4	730	1702.537875751213	9
4	732	1706.889694667654	9
4	736	1710.023199632792	9
4	738	1711.831678986269	10
4	741	1715.794270075167	11
4	742	1717.61453560658	11
4	743	1719.361967024447	10
4	744	1725.869368787845	9
4	745	1729.241394747274	8
4	749	1740.402810295447	8
4	755	1754.371851842985	9
4	756	1756.855888133569	9
4	758	1757.712952114246	9
4	759	1762.774186828795	9
4	760	1763.037888870049	8
4	761	1766.047271076186	7
4	762	1771.056977882764	6
4	763	1782.032953154399	5
4	764	1785.690315902963	4
4	765	1790.961745274633	3
4	771	1803.563631578393	3
4	773	1804.702121163114	4
4	777	1813.945618333506	5
4	780	1815.189939142241	6
4	785	1830.000877789753	7
4	788	1843.759615424757	7
4	790	1844.087242559274	7
4	791	1848.944262231773	7
4	799	1865.352465476735	7
4	806	1872.162738255861	7
4	807	1879.351140138869	6
4	808	1880.986176345354	5
4	809	1881.01819360348	4
4	813	1883.609421275364	4
4	815	1885.848122846746	4
4	817	1885.977274496929	4
4	819	1886.339112843074	5
4	820	1895.540745887145	5
4	821	1901.149875426028	4
4	822	1904.486042278408	3
4	827	1925.322903074237	3
4	829	1926.617656675168	4
4	830	1927.026371117487	4
4	834	1946.452518246029	4
4	836	1956.64485483327	4
4	837	1963.892009157711	3
4	841	1968.617331088617	3
4	843	1971.27597931636	3
4	844	1972.986669117261	2
4	845	1977.410681438908	1
4	852	1983.774184273965	1
4	855	1991.012150132266	2
4	857	1995.96333466045	3
4	858	1998.200530732541	3
4	862	2006.183665446034	2
4	866	2012.662916383255	1
4	867	2017.748781816037	0
4	869	2021.788839862228	0
4	871	2027.965610252793	1
4	872	2032.444261978924	1
4	873	2036.089611565701	0
4	875	2036.670246191136	0
4	876	2036.920383558913	0
4	878	2038.612038391061	0
4	882	2046.26418856504	0
4	886	2053.451391923639	0
4	888	2059.720372977221	1
4	890	2065.213904978399	2
4	893	2070.960011779213	3
4	894	2075.190508773032	3
4	898	2080.458263909844	2
4	904	2088.416297189241	2
4	907	2094.55514914724	3
4	909	2099.423059657969	4
4	912	2109.526301819064	5
4	913	2112.144215009447	5
4	915	2113.901216392289	5
4	916	2116.42860305841	5
4	923	2141.869573760331	4
4	924	2142.842058957052	3
4	925	2143.180724810616	2
4	929	2152.7373224416	2
4	931	2158.324858173646	3
4	933	2161.495934111991	3
4	934	2163.205494700028	2
4	935	2168.413214890752	1
4	936	2168.955625832884	0
4	938	2170.032935115697	0
4	939	2170.160422176437	0
4	943	2175.059280819876	0
4	945	2175.89386075536	1
4	954	2194.513301538501	2
4	956	2197.181186761374	3
4	958	2201.862421686758	4
4	959	2204.297702249275	4
4	960	2205.785684491705	3
4	962	2205.989717082358	3
4	964	2210.635198036061	4
4	965	2214.507760267675	4
4	967	2215.605995918517	4
4	969	2220.983562150837	5
4	970	2230.597500684134	5
4	971	2231.741514733541	4
4	972	2234.196587121739	3
4	974	2237.146804838887	3
4	975	2240.873873504737	3
4	977	2242.672738216294	3
4	978	2242.673076880166	3
4	980	2243.211192938679	3
4	981	2243.81772100284	3
4	983	2254.082127145278	3
4	985	2255.276179260871	4
4	987	2257.380623580054	5
4	988	2258.547730599371	5
4	989	2262.883524330911	4
4	994	2265.712071714624	4
4	996	2278.530645851194	5
4	998	2279.373335041389	6
4	1000	2282.299088262717	7
4	1002	2288.557943251978	8
4	1003	2292.785935681116	8
4	1004	2293.750395120074	7
4	1008	2298.359373573511	6
4	1009	2313.517609015645	5
4	1013	2321.318581515091	4
4	1015	2321.438632138943	4
4	1016	2325.668261239477	4
4	1017	2332.329280713563	3
4	1019	2332.743083346899	3
4	1021	2334.166339972331	4
4	1023	2334.24183420918	5
4	1024	2344.605435248058	5
4	1025	2347.221128111256	4
4	1027	2350.681956625492	4
4	1029	2362.032617962155	5
4	1033	2366.417596998391	6
4	1041	2382.613350806866	7
4	1045	2383.497710697982	8
4	1048	2408.473310460164	8
4	1049	2418.26714266434	7
4	1050	2418.281861653166	6
4	1052	2419.292970577924	6
4	1056	2432.429685492346	7
4	1061	2440.93891854108	7
4	1062	2448.761969954077	6
4	1063	2449.180140170496	5
4	1064	2449.441261872778	4
4	1066	2452.103637946343	4
4	1067	2455.492897582476	4
4	1071	2466.733357266303	3
4	1078	2481.523118706612	2
4	1079	2483.990386852435	1
4	1080	2486.194164915975	0
5	134	354.172507827807	0
5	137	373.165573927013	0
5	149	393.279838510632	0
5	176	457.385076896313	49.17779954489
5	179	462.180351609683	50.182054159573
5	182	466.062933912331	53.691103092761
5	187	469.070084802075	32.996683929131
5	192	492.951435549643	55.637201734137
5	197	502.910512925716	65.582559978903
5	198	505.229919533362	53.98766338139
5	225	581.500571396334	121.69011842155
5	226	587.609154112803	125.06461398974
5	227	597.578655817891	130.47350310984
5	234	610.486697254624	141.50764220756
5	235	615.331408973733	143.41124683923
5	236	618.72580902364	143.63040040534
5	237	621.133741900968	126.54538736322
5	240	624.811981343168	127.09843072658
5	243	628.148376851301	120.37002437931
5	250	642.97887073899	115.35209565362
5	253	651.725578482237	80.582363080951
5	263	667.115540953657	87.724108697576
5	264	669.324941574004	63.381366778805
5	267	671.369068179928	63.455844636287
5	270	684.843042574704	74.885095031628
5	277	706.86128942641	82.195622610271
5	282	715.633290642459	87.855005703145
5	285	718.573040709994	87.866188845553
5	286	720.997713381459	83.510619646814
5	289	731.009614823891	92.787075547326
5	296	750.768204498205	107.35093660036
5	297	752.621371906616	99.227657098681
5	298	757.710740105447	101.40047115811
5	299	759.884719343062	97.453112338567
5	302	763.777617619649	94.276268533758
5	309	781.871119005483	107.26636609178
5	310	783.157197251978	87.822082862784
5	311	783.780332758084	82.264090313421
5	312	786.263992460582	81.338866622021
5	315	795.992045748303	84.176562000805
5	316	798.330014749723	86.288815071775
5	321	802.278357629217	86.614187852602
5	322	805.685995309558	78.645868368647
5	323	808.460276374507	72.84138761866
5	324	814.991803092364	73.73087141874
5	327	816.777916546982	70.638326607501
5	328	821.093038933698	58.448949217453
5	331	822.337343794286	56.562636607364
5	336	828.272223852343	59.733592537802
5	337	831.865424950202	62.629812443354
5	342	833.581367671059	46.333008347223
5	345	845.002214607751	45.450971841326
5	352	855.707211747631	53.699062507367
5	355	866.968670156558	51.211646432017
5	358	872.418242816625	50.10301078957
5	363	883.594357394011	60.73407306214
5	368	887.981493951636	59.844658725405
5	375	896.248603754752	64.118830440564
5	382	907.591348466653	74.528883834301
5	391	919.480993014041	79.27193807879
5	396	936.447606586028	91.404027083945
5	399	947.76516169761	99.661372408675
5	402	954.443558876236	100.92599144411
5	409	965.312779511845	108.07715872882
5	414	972.716874007785	101.00073296076
5	415	973.318059043543	95.774248172898
5	416	977.272388878236	95.698407677284
5	417	980.696025397851	96.899629447386
5	420	982.667937219853	95.330332190086
5	421	983.904243212783	95.41673818518
5	428	993.305176217763	101.3567662429
5	433	997.002808746486	104.55154340517
5	434	1002.189618805349	105.90259569733
5	439	1013.820544213171	106.32366407495
5	446	1019.260783871674	111.67234463743
5	447	1021.167859143489	111.55303709152
5	448	1022.700642546869	110.18108524125
5	449	1029.12114276073	116.40139149132
5	454	1039.12904075314	123.42557167374
5	457	1055.1319140062	134.36031135509
5	458	1056.020556319984	124.39294724078
5	459	1057.720306150031	117.36418853635
5	460	1062.434160330031	109.5074871337
5	468	1091.692768263468	137.00315294844
5	471	1104.02755288485	145.8376097087
5	476	1110.702633925242	146.42915922416
5	479	1114.087489360486	146.7811848565
5	480	1127.794972127168	156.50145174395
5	481	1131.648277275102	149.81947219504
5	484	1150.515264656523	161.74487855807
5	491	1170.145939036469	178.25397217433
5	500	1182.638361982693	190.64467124947
5	501	1183.960530047514	190.36789305885
5	506	1200.481287161832	205.42040070705
5	507	1200.685828818512	192.37104850288
5	508	1209.087107313963	196.12089270306
5	509	1211.401141483099	195.15151738822
5	512	1215.652723849571	197.43314807225
5	513	1219.893683637215	201.5154372311
5	516	1228.625157235372	195.16509707784
5	517	1231.181284867719	193.49418416649
5	518	1234.512938632366	180.53093340208
5	519	1246.519810775335	168.59110552642
5	520	1246.660851985805	159.54149227394
5	525	1253.029359013306	150.4888673527
5	526	1254.082390189652	149.36215140349
5	527	1263.323704367505	155.7391259495
5	530	1269.971901666249	156.27974474179
5	531	1273.562823238534	125.4888912768
5	532	1275.866567414527	116.93275781972
5	533	1278.32091894702	119.32597544371
5	538	1282.066377257918	122.19640604083
5	541	1288.42658553397	118.15599267774
5	544	1294.675592146288	121.7894462294
5	545	1299.566236370755	121.13516269772
5	548	1314.783613231317	134.60335269743
5	549	1315.799017466553	128.41216845514
5	552	1318.578804737278	129.58208168025
5	557	1328.845904800031	114.9077965479
5	560	1335.197201893783	114.30243335675
5	565	1346.62649356427	99.7280568173
5	566	1350.451031592882	103.1747058693
5	575	1364.032104050904	97.975881260087
5	576	1366.534242905231	88.164028587229
5	579	1374.204125151314	95.215927207708
5	580	1375.377429237683	90.928441494214
5	585	1396.111440119419	101.97527408745
5	586	1398.070479107654	96.107896558864
5	589	1406.191021455222	89.186280771803
5	594	1412.671643441996	91.58217112992
5	597	1421.779841454987	94.539437557846
5	598	1426.192378415851	94.493301510275
5	599	1430.418715955626	91.106786070946
5	600	1433.9022553081	89.813103149114
5	605	1449.361086328333	95.22198841111
5	606	1449.950670301981	95.624083305581
5	607	1457.252592646063	99.66190526014
5	615	1466.981461513805	104.57982119642
5	616	1470.435511486002	99.886848646909
5	619	1474.734688693141	81.256854176916
5	620	1475.510127058678	81.153117204795
5	627	1483.582042992274	84.11444565046
5	632	1505.552821052008	96.108001069723
5	633	1506.84007116059	96.149249388223
5	634	1514.318869412756	100.40240030633
5	641	1523.1501974919	80.748387411384
5	642	1524.056203474379	81.213303707677
5	643	1525.438930458656	67.175279781863
5	644	1528.74956056158	68.504173699902
5	645	1532.038165936923	57.360664228973
5	650	1541.691799751987	63.099861478
5	653	1547.345029913686	64.913752627688
5	654	1560.620439064615	77.697970027503
5	659	1571.604113417143	72.253988921761
5	664	1577.625142900273	73.617464642925
5	665	1580.805292345879	64.202012895246
5	666	1582.690580242042	61.859891508833
5	667	1586.048527648876	64.151087532605
5	670	1594.47379785212	60.432740858864
5	671	1594.768361968694	53.840963136823
5	672	1595.607256837024	51.771528220904
5	673	1598.860009574126	30.926937442281
5	676	1607.773358405614	36.613121687837
5	681	1617.898025700687	42.471214566555
5	684	1624.936998942437	47.322677001342
5	691	1632.542187791374	44.159838679915
5	706	1668.340439789491	63.355989579531
5	707	1668.552148929171	60.443979867101
5	714	1678.753813486626	67.142227902244
5	717	1682.645455257327	61.67487546114
5	718	1684.161789947456	57.15025773616
5	719	1685.26601475809	56.249773588494
5	720	1686.179785250053	56.669988461097
5	723	1692.193355286041	50.992626302845
5	724	1694.94867088023	49.841077432024
5	731	1705.528400955309	48.529944709455
5	732	1706.889694667654	39.504382421509
5	739	1714.34105433376	43.399388947217
5	742	1717.61453560658	40.273779588184
5	743	1719.361967024447	41.384738516727
5	744	1725.869368787845	46.71776290897
5	745	1729.241394747274	38.020175814478
5	750	1740.885426651111	45.415523313695
5	753	1746.515230778877	48.015798324849
5	756	1756.855888133569	54.318012382356
5	759	1762.774186828795	52.80023388636
5	760	1763.037888870049	53.014689237257
5	761	1766.047271076186	54.215592089917
5	762	1771.056977882764	55.262707807597
5	763	1782.032953154399	47.85920137616
5	764	1785.690315902963	45.287505607516
5	765	1790.961745274633	49.330029396469
5	787	1841.102952863946	86.731101020961
5	788	1843.759615424757	86.046663310511
5	791	1848.944262231773	53.692485201774
5	794	1854.466024420374	50.902392841981
5	797	1859.063315848651	54.361194685537
5	802	1869.05312402433	55.107505690824
5	805	1870.180849006436	54.990909864195
5	806	1872.162738255861	42.161860466108
5	807	1879.351140138869	35.263897579595
5	808	1880.986176345354	28.425628152528
5	809	1881.01819360348	26.441679742464
5	814	1883.917001060696	18.564535583961
5	815	1885.848122846746	17.672289879288
5	820	1895.540745887145	26.439633480009
5	821	1901.149875426028	18.07043229053
5	822	1904.486042278408	20.876621003044
5	825	1907.685850962181	21.708576465252
5	830	1927.026371117487	40.687258274413
5	835	1946.480143467533	40.307919682564
5	836	1956.64485483327	31.321951759033
5	837	1963.892009157711	37.274352482543
5	842	1971.223281072027	41.714106480999
5	843	1971.27597931636	24.823461070331
5	844	1972.986669117261	5.642705036785
5	845	1977.410681438908	8.793350350291
5	848	1979.684398410201	0.002330029494
5	853	1985.137222768579	2.779790433528
5	858	1998.200530732541	14.426346458576
5	861	2005.675900795327	14.663750663061
5	862	2006.183665446034	10.220330785584
5	865	2010.179427631525	6.39274113394
5	866	2012.662916383255	6.112494075355
5	869	2021.788839862228	0
5	872	2032.444261978924	4.478651726131
5	875	2036.670246191136	0
5	878	2038.612038391061	0
5	881	2043.939784820892	3.690149299734
5	891	2070.210194896341	16.758802972702
5	894	2075.190508773032	15.470135795811
5	897	2076.414622236344	11.200717257945
5	898	2080.458263909844	9.498252130631
5	910	2104.992143675572	28.744691979798
5	913	2112.144215009447	31.494836573278
5	916	2116.42860305841	28.012305869169
5	919	2120.636182388701	26.081033241461
5	922	2131.294609548714	31.871549890745
5	923	2141.869573760331	32.343271941267
5	924	2142.842058957052	28.940842564763
5	925	2143.180724810616	26.420572151908
5	932	2158.802554833642	28.152853553561
5	933	2161.495934111991	12.146246622787
5	934	2163.205494700028	10.468172258428
5	935	2168.413214890752	10.088356717106
5	938	2170.032935115697	0
5	946	2178.029613062688	2.970332242812
5	952	2192.864993012527	16.971132257167
5	959	2204.297702249275	21.256739351949
5	960	2205.785684491705	11.272382953204
5	965	2214.507760267675	17.326573506301
5	970	2230.597500684134	28.735078997376
5	971	2231.741514733541	25.751797651183
5	972	2234.196587121739	23.561389085678
5	975	2240.873873504737	25.26787758622
5	978	2242.673076880166	21.689514729329
5	981	2243.81772100284	6.670916163953
5	988	2258.547730599371	15.874992383077
5	989	2262.883524330911	19.672331392232
5	992	2265.309014011623	11.226886866345
5	1003	2292.785935681116	37.509756420245
5	1004	2293.750395120074	36.36977154002
5	1007	2295.615478093588	31.757081237532
5	1008	2298.359373573511	32.647301858887
5	1009	2313.517609015645	34.986963164451
5	1012	2319.596523400409	40.22318835902
5	1013	2321.318581515091	39.019493252374
5	1016	2325.668261239477	37.110317987499
5	1017	2332.329280713563	37.871288265999
5	1024	2344.605435248058	25.461867050675
5	1025	2347.221128111256	25.782495972313
5	1037	2375.657852537123	42.914769190224
5	1047	2399.241094336128	65.074754363797
5	1048	2408.473310460164	74.231476250984
5	1049	2418.26714266434	67.585186038848
5	1050	2418.281861653166	56.249243691011
5	1060	2440.412170163124	76.314453986762
5	1061	2440.93891854108	74.521321542689
5	1062	2448.761969954077	69.429671187511
5	1063	2449.180140170496	66.56678936363
5	1064	2449.441261872778	65.943551174796
5	1067	2455.492897582476	36.199927004552
5	1070	2464.235331930885	44.170538062096
5	1071	2466.733357266303	34.303671773957
5	1074	2470.276651419965	18.173013473622
5	1077	2479.772752411169	18.463225876001
5	1078	2481.523118706612	12.692918650592
5	1079	2483.990386852435	12.955598492236
6	135	364.506343049045	26
6	138	374.538739777874	27
6	150	396.573054520548	28
6	179	462.180351609683	29
6	182	466.062933912331	30
6	192	492.951435549643	31
6	197	502.910512925716	32
6	198	505.229919533362	33
6	226	587.609154112803	34
6	227	597.578655817891	35
6	234	610.486697254624	36
6	235	615.331408973733	37
6	236	618.72580902364	38
6	237	621.133741900968	39
6	240	624.811981343168	40
6	253	651.725578482237	41
6	264	669.324941574004	42
6	270	684.843042574704	43
6	277	706.86128942641	44
6	285	718.573040709994	45
6	286	720.997713381459	46
6	289	731.009614823891	47
6	297	752.621371906616	48
6	298	757.710740105447	49
6	299	759.884719343062	50
6	302	763.777617619649	51
6	309	781.871119005483	52
6	310	783.157197251978	53
6	311	783.780332758084	54
6	312	786.263992460582	55
6	315	795.992045748303	56
6	316	798.330014749723	57
6	322	805.685995309558	58
6	323	808.460276374507	59
6	324	814.991803092364	60
6	327	816.777916546982	61
6	328	821.093038933698	62
6	331	822.337343794286	63
6	337	831.865424950202	64
6	342	833.581367671059	65
6	345	845.002214607751	66
6	352	855.707211747631	67
6	355	866.968670156558	68
6	358	872.418242816625	69
6	399	947.76516169761	70
6	402	954.443558876236	71
6	414	972.716874007785	72
6	415	973.318059043543	73
6	416	977.272388878236	74
6	417	980.696025397851	75
6	421	983.904243212783	76
6	433	997.002808746486	77
6	434	1002.189618805349	78
6	439	1013.820544213171	79
6	447	1021.167859143489	80
6	448	1022.700642546869	81
6	449	1029.12114276073	82
6	454	1039.12904075314	83
6	457	1055.1319140062	84
6	458	1056.020556319984	85
6	459	1057.720306150031	86
6	460	1062.434160330031	87
6	471	1104.02755288485	88
6	479	1114.087489360486	89
6	480	1127.794972127168	90
6	481	1131.648277275102	91
6	484	1150.515264656523	92
6	500	1182.638361982693	93
6	501	1183.960530047514	94
6	507	1200.685828818512	95
6	508	1209.087107313963	96
6	509	1211.401141483099	97
6	512	1215.652723849571	98
6	513	1219.893683637215	99
6	516	1228.625157235372	100
6	517	1231.181284867719	101
6	518	1234.512938632366	102
6	519	1246.519810775335	103
6	520	1246.660851985805	104
6	525	1253.029359013306	105
6	526	1254.082390189652	106
6	527	1263.323704367505	107
6	530	1269.971901666249	108
6	531	1273.562823238534	109
6	532	1275.866567414527	110
6	533	1278.32091894702	111
6	541	1288.42658553397	112
6	544	1294.675592146288	113
6	545	1299.566236370755	114
6	548	1314.783613231317	115
6	549	1315.799017466553	116
6	552	1318.578804737278	117
6	557	1328.845904800031	118
6	565	1346.62649356427	119
6	566	1350.451031592882	120
6	576	1366.534242905231	121
6	579	1374.204125151314	122
6	580	1375.377429237683	123
6	585	1396.111440119419	124
6	586	1398.070479107654	125
6	589	1406.191021455222	126
6	597	1421.779841454987	127
6	598	1426.192378415851	128
6	599	1430.418715955626	129
6	600	1433.9022553081	130
6	606	1449.950670301981	131
6	607	1457.252592646063	132
6	616	1470.435511486002	133
6	620	1475.510127058678	134
6	633	1506.84007116059	135
6	634	1514.318869412756	136
6	641	1523.1501974919	137
6	642	1524.056203474379	138
6	643	1525.438930458656	139
6	644	1528.74956056158	140
6	645	1532.038165936923	141
6	654	1560.620439064615	142
6	664	1577.625142900273	143
6	665	1580.805292345879	144
6	666	1582.690580242042	145
6	667	1586.048527648876	146
6	670	1594.47379785212	147
6	671	1594.768361968694	148
6	672	1595.607256837024	149
6	673	1598.860009574126	150
6	676	1607.773358405614	151
6	681	1617.898025700687	152
6	684	1624.936998942437	153
6	707	1668.552148929171	154
6	717	1682.645455257327	155
6	718	1684.161789947456	156
6	719	1685.26601475809	157
6	720	1686.179785250053	158
6	724	1694.94867088023	159
6	732	1706.889694667654	160
6	742	1717.61453560658	161
6	743	1719.361967024447	162
6	744	1725.869368787845	163
6	745	1729.241394747274	164
6	756	1756.855888133569	165
6	759	1762.774186828795	166
6	760	1763.037888870049	167
6	761	1766.047271076186	168
6	762	1771.056977882764	169
6	763	1782.032953154399	170
6	764	1785.690315902963	171
6	765	1790.961745274633	172
6	788	1843.759615424757	173
6	791	1848.944262231773	174
6	806	1872.162738255861	175
6	807	1879.351140138869	176
6	808	1880.986176345354	177
6	809	1881.01819360348	178
6	815	1885.848122846746	179
6	820	1895.540745887145	180
6	821	1901.149875426028	181
6	822	1904.486042278408	182
6	830	1927.026371117487	183
6	836	1956.64485483327	184
6	837	1963.892009157711	185
6	843	1971.27597931636	186
6	844	1972.986669117261	187
6	845	1977.410681438908	188
6	858	1998.200530732541	189
6	862	2006.183665446034	190
6	866	2012.662916383255	191
6	867	2017.748781816037	192
6	872	2032.444261978924	193
6	873	2036.089611565701	194
6	876	2036.920383558913	195
6	882	2046.26418856504	196
6	894	2075.190508773032	197
6	898	2080.458263909844	198
6	913	2112.144215009447	199
6	916	2116.42860305841	200
6	923	2141.869573760331	201
6	924	2142.842058957052	202
6	925	2143.180724810616	203
6	933	2161.495934111991	204
6	934	2163.205494700028	205
6	935	2168.413214890752	206
6	936	2168.955625832884	207
6	939	2170.160422176437	208
6	959	2204.297702249275	209
6	960	2205.785684491705	210
6	965	2214.507760267675	211
6	970	2230.597500684134	212
6	971	2231.741514733541	213
6	972	2234.196587121739	214
6	975	2240.873873504737	215
6	978	2242.673076880166	216
6	981	2243.81772100284	217
6	988	2258.547730599371	218
6	989	2262.883524330911	219
6	1003	2292.785935681116	220
6	1004	2293.750395120074	221
6	1008	2298.359373573511	222
6	1009	2313.517609015645	223
6	1013	2321.318581515091	224
6	1016	2325.668261239477	225
6	1017	2332.329280713563	226
6	1024	2344.605435248058	227
6	1025	2347.221128111256	228
6	1048	2408.473310460164	229
6	1049	2418.26714266434	230
6	1050	2418.281861653166	231
6	1061	2440.93891854108	232
6	1062	2448.761969954077	233
6	1063	2449.180140170496	234
6	1064	2449.441261872778	235
6	1067	2455.492897582476	236
6	1071	2466.733357266303	237
6	1078	2481.523118706612	238
6	1079	2483.990386852435	239
6	1080	2486.194164915975	240
7	135	364.506343049045	10.333835221238
7	138	374.538739777874	1.373165850861
7	150	396.573054520548	3.293216009916
7	179	462.180351609683	53.97307425826
7	182	466.062933912331	54.064636462221
7	192	492.951435549643	56.878034676699
7	197	502.910512925716	65.59627911021
7	198	505.229919533362	67.901966586549
7	226	587.609154112803	127.79870113802
7	227	597.578655817891	135.03411569483
7	234	610.486697254624	143.38154454657
7	235	615.331408973733	146.35235392667
7	236	618.72580902364	146.80564688914
7	237	621.133741900968	146.03833328267
7	240	624.811981343168	130.22362680542
7	253	651.725578482237	124.09880339686
7	264	669.324941574004	89.933509317923
7	270	684.843042574704	76.929819031063
7	277	706.86128942641	96.903341883334
7	285	718.573040709994	90.79475577068
7	286	720.997713381459	90.290861517018
7	289	731.009614823891	93.522521089246
7	297	752.621371906616	109.20410400877
7	298	757.710740105447	104.31702529751
7	299	759.884719343062	103.57445039572
7	302	763.777617619649	101.34601061515
7	309	781.871119005483	112.36976991959
7	310	783.157197251978	108.55244433828
7	311	783.780332758084	88.44521836889
7	312	786.263992460582	84.747750015919
7	315	795.992045748303	91.066919909742
7	316	798.330014749723	86.514531002225
7	322	805.685995309558	90.021825532943
7	323	808.460276374507	81.420149433596
7	324	814.991803092364	79.372914336517
7	327	816.777916546982	75.516984873358
7	328	821.093038933698	74.953448994217
7	331	822.337343794286	59.693254078041
7	337	831.865424950202	63.326793635661
7	342	833.581367671059	64.345755164211
7	345	845.002214607751	57.753855283915
7	352	855.707211747631	56.155968981206
7	355	866.968670156558	64.960520916294
7	358	872.418242816625	56.661219092084
7	399	947.76516169761	102.72158219553
7	402	954.443558876236	106.3397695873
7	414	972.716874007785	115.48125322476
7	415	973.318059043543	101.60191799652
7	416	977.272388878236	99.728578007591
7	417	980.696025397851	99.122044196899
7	421	983.904243212783	96.566638183016
7	433	997.002808746486	105.05439877162
7	434	1002.189618805349	109.73835346403
7	439	1013.820544213171	117.53352110515
7	447	1021.167859143489	113.57941990925
7	448	1022.700642546869	113.0858204949
7	449	1029.12114276073	116.60158545511
7	454	1039.12904075314	126.40928948373
7	457	1055.1319140062	139.4284449268
7	458	1056.020556319984	135.24895366887
7	459	1057.720306150031	126.09269707082
7	460	1062.434160330031	122.07804271635
7	471	1104.02755288485	149.33793756982
7	479	1114.087489360486	149.81401465941
7	480	1127.794972127168	160.48866762318
7	481	1131.648277275102	160.35475689188
7	484	1150.515264656523	168.68645957646
7	500	1182.638361982693	190.74639512055
7	501	1183.960530047514	191.96683931429
7	507	1200.685828818512	205.62494236373
7	508	1209.087107313963	200.77232699833
7	509	1211.401141483099	198.4349268722
7	512	1215.652723849571	199.4030997547
7	513	1219.893683637215	201.67410785989
7	516	1228.625157235372	210.24691082926
7	517	1231.181284867719	197.72122471019
7	518	1234.512938632366	196.82583793114
7	519	1246.519810775335	192.53780554505
7	520	1246.660851985805	168.73214673689
7	525	1253.029359013306	165.90999930144
7	526	1254.082390189652	151.54189852904
7	527	1263.323704367505	158.60346558134
7	530	1269.971901666249	162.38732324825
7	531	1273.562823238534	159.87066631408
7	532	1275.866567414527	127.79263545279
7	533	1278.32091894702	119.38710935222
7	541	1288.42658553397	128.55661431688
7	544	1294.675592146288	124.40499929006
7	545	1299.566236370755	126.68009045387
7	548	1314.783613231317	136.35253955828
7	549	1315.799017466553	135.61875693267
7	552	1318.578804737278	131.19195572586
7	557	1328.845904800031	139.84918174301
7	565	1346.62649356427	125.73172502724
7	566	1350.451031592882	103.55259484591
7	576	1366.534242905231	100.47802011441
7	579	1374.204125151314	95.833910833312
7	580	1375.377429237683	96.389231294077
7	585	1396.111440119419	111.66245237595
7	586	1398.070479107654	103.93431307568
7	589	1406.191021455222	104.22843890643
7	597	1421.779841454987	100.69036914291
7	598	1426.192378415851	98.95197451871
7	599	1430.418715955626	98.71963905005
7	600	1433.9022553081	94.59032542342
7	606	1449.950670301981	95.811572384758
7	607	1457.252592646063	102.92600564966
7	616	1470.435511486002	108.03387116862
7	620	1475.510127058678	82.032292542453
7	633	1506.84007116059	97.395251178305
7	634	1514.318869412756	103.62804764039
7	641	1523.1501974919	109.23372838547
7	642	1524.056203474379	81.654393393863
7	643	1525.438930458656	82.596030691954
7	644	1528.74956056158	70.485909884787
7	645	1532.038165936923	71.792779075245
7	654	1560.620439064615	78.189161778617
7	664	1577.625142900273	78.275018404891
7	665	1580.805292345879	76.797614088531
7	666	1582.690580242042	66.087300791409
7	667	1586.048527648876	65.217838915667
7	670	1594.47379785212	72.576357735849
7	671	1594.768361968694	60.727304975438
7	672	1595.607256837024	54.679858005153
7	673	1598.860009574126	55.024280958006
7	676	1607.773358405614	39.840286273769
7	681	1617.898025700687	46.73778898291
7	684	1624.936998942437	49.510187808305
7	707	1668.552148929171	63.567698719211
7	717	1682.645455257327	71.033869672945
7	718	1684.161789947456	63.191210151269
7	719	1685.26601475809	58.254482546794
7	720	1686.179785250053	57.163544080457
7	724	1694.94867088023	53.747941897034
7	732	1706.889694667654	49.8912384218
7	742	1717.61453560658	46.672870220037
7	743	1719.361967024447	42.021211006051
7	744	1725.869368787845	47.892140280125
7	745	1729.241394747274	50.089788868399
7	756	1756.855888133569	58.356455679541
7	759	1762.774186828795	60.236311077582
7	760	1763.037888870049	53.063935927614
7	761	1766.047271076186	56.024071443394
7	762	1771.056977882764	59.225298896495
7	763	1782.032953154399	66.238683079232
7	764	1785.690315902963	51.516564124724
7	765	1790.961745274633	50.558934979186
7	788	1843.759615424757	89.387763581772
7	791	1848.944262231773	91.231310117527
7	806	1872.162738255861	56.97279911362
7	807	1879.351140138869	49.350262349116
7	808	1880.986176345354	36.89893378608
7	809	1881.01819360348	28.457645410654
7	815	1885.848122846746	20.495657370011
7	820	1895.540745887145	27.364912919687
7	821	1901.149875426028	32.048763018892
7	822	1904.486042278408	21.40659914291
7	830	1927.026371117487	41.049096620558
7	836	1956.64485483327	50.472631048301
7	837	1963.892009157711	38.569106083474
7	843	1971.27597931636	41.766804725332
7	844	1972.986669117261	26.534150871232
7	845	1977.410681438908	10.066717358432
7	858	1998.200530732541	15.84309839749
7	862	2006.183665446034	15.171515313768
7	866	2012.662916383255	8.87622988567
7	867	2017.748781816037	11.198359508137
7	872	2032.444261978924	10.655422116696
7	873	2036.089611565701	8.124001312908
7	876	2036.920383558913	0.250137367777
7	882	2046.26418856504	6.014553043882
7	894	2075.190508773032	21.739116849393
7	898	2080.458263909844	15.244358931445
7	913	2112.144215009447	35.896763313673
7	916	2116.42860305841	35.779224622241
7	923	2141.869573760331	42.446514102362
7	924	2142.842058957052	33.315757137988
7	925	2143.180724810616	29.279508418327
7	933	2161.495934111991	30.84623283191
7	934	2163.205494700028	13.855807210824
7	935	2168.413214890752	15.675892449152
7	936	2168.955625832884	10.630767659238
7	939	2170.160422176437	0.12748706074
7	959	2204.297702249275	28.403841493915
7	960	2205.785684491705	22.744721594379
7	965	2214.507760267675	19.994458729174
7	970	2230.597500684134	33.41631392276
7	971	2231.741514733541	29.879093046783
7	972	2234.196587121739	28.206870039381
7	975	2240.873873504737	30.238675468676
7	978	2242.673076880166	27.067080961649
7	981	2243.81772100284	22.834158852003
7	988	2258.547730599371	21.400925760484
7	989	2262.883524330911	20.210786114617
7	1003	2292.785935681116	38.703808535838
7	1004	2293.750395120074	38.474215859203
7	1008	2298.359373573511	34.500976717455
7	1009	2313.517609015645	47.805537301021
7	1013	2321.318581515091	41.945246473702
7	1016	2325.668261239477	43.36917297676
7	1017	2332.329280713563	43.771337461585
7	1024	2344.605435248058	50.147442800494
7	1025	2347.221128111256	28.077559913873
7	1048	2408.473310460164	74.306970487833
7	1049	2418.26714266434	84.02530845516
7	1050	2418.281861653166	67.599905027674
7	1061	2440.93891854108	76.841202364718
7	1062	2448.761969954077	82.344372955686
7	1063	2449.180140170496	69.84784140393
7	1064	2449.441261872778	66.827911065912
7	1067	2455.492897582476	71.995186884494
7	1071	2466.733357266303	46.668563397514
7	1078	2481.523118706612	20.213592171444
7	1079	2483.990386852435	15.160186796415
7	1080	2486.194164915975	15.159376555776
8	140	381.910508285344	1
8	142	382.12216177113	2
8	146	385.458599038288	1
8	152	401.932998597983	1
8	154	404.293112790177	2
8	169	437.903864460807	2
8	171	439.767450543379	3
8	184	467.105152708054	1
8	200	507.778352471988	1
8	202	511.970843354015	2
8	204	523.641403692857	3
8	206	523.764599663184	4
8	208	526.525142992614	5
8	215	556.097184880185	3
8	219	564.45633319999	2
8	242	627.778284939314	1
8	249	638.222539276565	1
8	259	662.431607004495	1
8	261	662.436923341715	2
8	266	669.501349085891	1
8	281	712.041199677948	1
8	293	741.260931673624	1
8	318	799.551242766425	1
8	333	822.860284331871	1
8	360	877.543810870645	1
8	367	887.337605029767	1
8	370	888.487505027603	1
8	381	907.588439234243	1
8	384	909.614822051967	1
8	393	920.771602651114	1
8	408	964.27347470108	1
8	419	981.828805080065	1
8	427	991.993690733228	1
8	441	1016.249624094874	1
8	462	1077.928705248913	1
8	464	1080.302015026252	2
8	475	1107.584578418003	1
8	486	1158.933809594803	1
8	505	1188.996723057024	1
8	537	1278.988197943606	1
8	559	1331.699076905576	1
8	570	1354.3265869964	1
8	593	1410.690821772367	1
8	602	1442.401810080516	1
8	609	1458.263650676793	1
8	611	1458.853799594753	2
8	618	1474.67750170795	1
8	622	1478.591938273987	1
8	629	1499.350124495382	1
8	649	1540.927398831871	1
8	652	1543.83572861612	1
8	658	1571.160236717777	1
8	686	1627.011532211296	1
8	693	1641.200728983196	1
8	697	1649.139788179428	2
8	700	1651.886764969815	2
8	713	1677.97722850772	1
8	722	1691.221218932796	1
8	726	1695.469903337416	1
8	734	1709.973952942435	1
8	747	1734.173751778239	1
8	752	1741.631715878164	1
8	767	1795.251777029999	1
8	769	1796.186514870931	2
8	775	1810.233699922377	3
8	782	1821.747407345427	3
8	793	1852.560548192826	1
8	796	1854.576513861016	1
8	801	1868.175832967458	1
8	804	1869.101112407136	1
8	811	1883.079443135498	1
8	824	1906.172223784969	1
8	832	1929.509174591028	1
8	839	1967.343964080476	1
8	847	1979.682068380707	1
8	850	1982.357432335051	1
8	860	2003.786686497585	1
8	864	2006.5504223079	1
8	880	2040.249635521158	1
8	884	2053.063007369747	1
8	896	2076.247451695774	1
8	900	2080.649378436169	1
8	902	2086.329528345313	2
8	918	2116.760152658708	1
8	921	2130.649701280081	1
8	927	2149.349687489204	1
8	941	2171.319197265902	1
8	948	2183.040962897326	1
8	950	2183.478361293144	2
8	991	2263.858396856056	1
8	1006	2294.457992447564	1
8	1011	2319.143568197383	1
8	1031	2364.097716176362	1
8	1035	2369.034416376807	2
8	1039	2379.332298766566	1
8	1043	2382.99845866801	2
8	1054	2420.064793868789	1
8	1058	2435.541766541786	2
8	1069	2461.309526535168	1
8	1073	2468.83020005602	1
8	1076	2471.034788360199	1
9	140	381.910508285344	0
9	143	384.971039197779	2.848877426649
9	146	385.458599038288	0
9	152	401.932998597983	0
9	161	413.7824323843	9.489319594123
9	172	445.49160086173	7.587736400923
9	175	457.384619861621	17.617169318242
9	184	467.105152708054	0
9	200	507.778352471988	0
9	211	528.281371041501	16.310527687486
9	212	533.179554435613	9.538150742756
9	213	536.167227012591	12.402627349407
9	216	557.266926190985	30.741783198371
9	217	563.56064843232	7.463463552135
9	222	573.817794461848	9.361461261858
9	242	627.778284939314	0
9	249	638.222539276565	0
9	259	662.431607004495	0
9	262	664.352179951255	1.91525660954
9	266	669.501349085891	0
9	281	712.041199677948	0
9	293	741.260931673624	0
9	318	799.551242766425	0
9	333	822.860284331871	0
9	360	877.543810870645	0
9	367	887.337605029767	0
9	370	888.487505027603	0
9	381	907.588439234243	0
9	384	909.614822051967	0
9	393	920.771602651114	0
9	408	964.27347470108	0
9	419	981.828805080065	0
9	427	991.993690733228	0
9	441	1016.249624094874	0
9	462	1077.928705248913	0
9	467	1089.353087055494	9.051072029242
9	475	1107.584578418003	0
9	486	1158.933809594803	0
9	505	1188.996723057024	0
9	537	1278.988197943606	0
9	559	1331.699076905576	0
9	570	1354.3265869964	0
9	593	1410.690821772367	0
9	602	1442.401810080516	0
9	609	1458.263650676793	0
9	614	1466.283209009988	7.429409415235
9	618	1474.67750170795	0
9	622	1478.591938273987	0
9	629	1499.350124495382	0
9	649	1540.927398831871	0
9	652	1543.83572861612	0
9	658	1571.160236717777	0
9	686	1627.011532211296	0
9	693	1641.200728983196	0
9	698	1650.985624075942	1.845835896514
9	703	1664.906565313518	13.019800343703
9	713	1677.97722850772	0
9	722	1691.221218932796	0
9	726	1695.469903337416	0
9	734	1709.973952942435	0
9	747	1734.173751778239	0
9	752	1741.631715878164	0
9	767	1795.251777029999	0
9	778	1814.16435191181	17.977837040879
9	783	1822.334657476856	12.100957554479
9	786	1835.236298225579	13.488890880152
9	793	1852.560548192826	0
9	796	1854.576513861016	0
9	801	1868.175832967458	0
9	804	1869.101112407136	0
9	811	1883.079443135498	0
9	824	1906.172223784969	0
9	832	1929.509174591028	0
9	839	1967.343964080476	0
9	847	1979.682068380707	0
9	850	1982.357432335051	0
9	860	2003.786686497585	0
9	864	2006.5504223079	0
9	880	2040.249635521158	0
9	884	2053.063007369747	0
9	896	2076.247451695774	0
9	900	2080.649378436169	0
9	905	2093.402430249246	7.072901903933
9	918	2116.760152658708	0
9	921	2130.649701280081	0
9	927	2149.349687489204	0
9	941	2171.319197265902	0
9	948	2183.040962897326	0
9	951	2192.713321185297	9.234959892153
9	991	2263.858396856056	0
9	1006	2294.457992447564	0
9	1011	2319.143568197383	0
9	1031	2364.097716176362	0
9	1036	2372.209816886562	3.175400509755
9	1039	2379.332298766566	0
9	1046	2387.626387864249	4.627929196239
9	1054	2420.064793868789	0
9	1059	2439.534449033754	3.992682491968
9	1069	2461.309526535168	0
9	1073	2468.83020005602	0
9	1076	2471.034788360199	0
10	184	467.105152708054	5
10	200	507.778352471988	6
10	242	627.778284939314	7
10	249	638.222539276565	8
10	259	662.431607004495	9
10	266	669.501349085891	10
10	281	712.041199677948	11
10	293	741.260931673624	12
10	318	799.551242766425	13
10	333	822.860284331871	14
10	360	877.543810870645	15
10	367	887.337605029767	16
10	370	888.487505027603	17
10	381	907.588439234243	18
10	384	909.614822051967	19
10	393	920.771602651114	20
10	408	964.27347470108	21
10	419	981.828805080065	22
10	427	991.993690733228	23
10	441	1016.249624094874	24
10	462	1077.928705248913	25
10	475	1107.584578418003	26
10	486	1158.933809594803	27
10	505	1188.996723057024	28
10	537	1278.988197943606	29
10	559	1331.699076905576	30
10	570	1354.3265869964	31
10	593	1410.690821772367	32
10	602	1442.401810080516	33
10	609	1458.263650676793	34
10	618	1474.67750170795	35
10	622	1478.591938273987	36
10	629	1499.350124495382	37
10	649	1540.927398831871	38
10	652	1543.83572861612	39
10	658	1571.160236717777	40
10	686	1627.011532211296	41
10	693	1641.200728983196	42
10	713	1677.97722850772	43
10	722	1691.221218932796	44
10	726	1695.469903337416	45
10	734	1709.973952942435	46
10	747	1734.173751778239	47
10	752	1741.631715878164	48
10	767	1795.251777029999	49
10	793	1852.560548192826	50
10	796	1854.576513861016	51
10	801	1868.175832967458	52
10	804	1869.101112407136	53
10	811	1883.079443135498	54
10	824	1906.172223784969	55
10	832	1929.509174591028	56
10	839	1967.343964080476	57
10	847	1979.682068380707	58
10	850	1982.357432335051	59
10	860	2003.786686497585	60
10	864	2006.5504223079	61
10	880	2040.249635521158	62
10	896	2076.247451695774	63
10	900	2080.649378436169	64
10	918	2116.760152658708	65
10	921	2130.649701280081	66
10	927	2149.349687489204	67
10	948	2183.040962897326	68
10	991	2263.858396856056	69
10	1006	2294.457992447564	70
10	1011	2319.143568197383	71
10	1031	2364.097716176362	72
10	1039	2379.332298766566	73
10	1054	2420.064793868789	74
10	1069	2461.309526535168	75
10	1073	2468.83020005602	76
10	1076	2471.034788360199	77
11	1081	2500	0.096
12	1081	2500	0.048

