version 2
run experiments_medium_game_mode1-1160-20230311-09:44:02-14491
attr configname experiments_medium_game_mode1
attr datetime 20230311-09:44:02
attr experiment experiments_medium_game_mode1
attr inifile omnetpp.ini
attr iterationvars "$0=6.5, $1=7, $2=0"
attr iterationvarsf 6.5,7,0-
attr measurement "$0=6.5, $1=7, $2=0"
attr network Network
attr processid 14491
attr repetition 20
attr replication #20
attr resultdir results
attr runnumber 1160
attr seedset 20
param *.boss.arrival_mean 20
param *.boss.service_mean 6.5
param *.minion.arrival_mean 10
param *.minion.service_mean 7
param *.player.recover_rate_x 0
param **.minion.arrival_distribution 0
param **.minion.service_distribution 0
param **.boss.arrival_distribution 0
param **.boss.service_distribution 0

vector 0 Network.player minion_jobs_number_stat:vector ETV
attr source signal_minion_jobs_number
vector 1 Network.player minion_jobs_queue_number_stat:vector ETV
attr source signal_minion_jobs_queue_number
vector 2 Network.player minion_defeated_stat:vector ETV
attr source signal_minion_defeated
vector 3 Network.player minion_response_time_stat:vector ETV
attr source signal_minion_response_time
vector 4 Network.player minion_waiting_time_stat:vector ETV
attr source signal_minion_waiting_time
vector 5 Network.player boss_jobs_number_stat:vector ETV
attr source signal_boss_jobs_number
vector 6 Network.player boss_jobs_queue_number_stat:vector ETV
attr source signal_boss_jobs_queue_number
vector 7 Network.player boss_waiting_time_stat:vector ETV
attr source signal_boss_waiting_time
vector 8 Network.player boss_defeated_stat:vector ETV
attr source signal_boss_defeated
vector 9 Network.player boss_response_time_stat:vector ETV
attr source signal_boss_response_time
vector 10 Network.player minion_recovered_stat:vector ETV
attr source signal_minion_recovered
vector 11 Network.player minion_throughput:vector ETV
attr source signal_minion_throughput
vector 12 Network.player boss_throughput:vector ETV
attr source signal_boss_throughput
0	125	351.622388343199	4
0	129	371.419553612551	3
0	134	388.135003504805	1
0	137	394.479227275449	1
0	140	399.146306525564	1
0	143	413.988822543821	1
0	148	430.577270026162	1
0	155	450.445530522083	1
0	157	450.56620835316	2
0	162	475.408713424463	2
0	171	486.437007536756	2
0	175	498.555997115429	2
0	177	501.988285982108	3
0	179	509.703364310223	4
0	184	513.600066459183	5
0	186	514.15713359022	6
0	191	519.564998877551	7
0	196	533.215908580677	5
0	202	539.878935897855	5
0	204	548.938819146463	6
0	214	577.529618033691	5
0	217	579.557974420931	5
0	223	592.731171202488	5
0	225	593.55058864071	6
0	234	630.689373670167	5
0	237	633.071072181035	6
0	241	641.718310486527	5
0	243	648.166646602557	6
0	245	655.40025492798	7
0	247	656.341103306491	8
0	249	662.230043902784	9
0	251	665.788337476499	10
0	259	685.86729107709	8
0	261	686.196119499708	9
0	263	695.910049851226	10
0	265	707.471093698592	11
0	268	715.006932308413	11
0	271	722.581718362881	11
0	273	723.270042358771	12
0	278	734.751374974229	10
0	280	741.211472674072	11
0	283	753.920601265808	11
0	285	756.594634923728	12
0	289	764.623435358197	13
0	291	772.160604516826	14
0	293	774.071990694695	15
0	297	775.152744174367	16
0	304	785.307600720807	16
0	306	786.942921322346	17
0	314	797.09977832489	16
0	323	826.761855315949	13
0	326	828.290630599038	13
0	340	864.900909431776	5
0	344	869.296317033724	4
0	346	870.095271929389	5
0	352	877.303564958754	5
0	359	894.524278214403	4
0	363	897.031583970565	5
0	367	897.990713342699	6
0	379	910.282773328017	7
0	383	922.829214870719	8
0	385	928.517990817427	9
0	388	937.661194746362	10
0	393	938.921492845077	9
0	395	940.807101129187	10
0	397	940.888475363258	11
0	405	953.439267330921	9
0	410	968.490972588345	7
0	412	971.503727450048	8
0	417	984.186528692564	6
0	428	1005.612945911564	4
0	435	1024.854099848457	3
0	440	1030.420885112026	4
0	442	1030.957897223123	5
0	452	1055.219178313221	6
0	456	1059.382982854219	7
0	459	1059.677862170415	8
0	462	1072.85833096112	9
0	464	1086.246841942987	10
0	467	1089.551555733131	10
0	471	1101.151465513359	9
0	473	1106.996923130926	10
0	485	1137.352345430937	10
0	487	1141.436760111395	11
0	493	1151.179425746158	11
0	497	1152.175517040964	12
0	512	1187.17272262204	7
0	515	1189.424970695631	7
0	518	1192.533627381932	7
0	523	1203.302241465891	8
0	531	1220.812244237658	7
0	534	1234.347939546879	8
0	550	1269.088791886225	5
0	552	1272.714705661772	6
0	554	1283.334619908255	7
0	557	1288.530882385772	7
0	563	1297.094530094093	6
0	567	1311.989261226055	6
0	577	1336.754811539309	2
0	581	1339.732416055611	1
0	584	1364.47486934779	1
0	591	1389.302338466047	1
0	593	1389.356319300211	2
0	599	1394.566364497482	3
0	604	1403.518675238298	4
0	606	1404.694806600534	5
0	608	1404.852961057188	6
0	615	1430.727179762105	6
0	619	1433.091413502472	7
0	623	1437.020347705088	8
0	630	1449.90412542955	9
0	633	1465.955019363685	10
0	635	1467.506373875806	11
0	638	1469.215140595482	12
0	642	1481.167644321588	13
0	644	1490.291597345038	14
0	646	1495.266496138839	15
0	658	1537.269121263159	11
0	665	1546.184688885546	10
0	667	1551.133470663509	11
0	671	1574.451870873792	10
0	673	1576.661279157441	11
0	676	1582.588381782212	11
0	683	1615.450621114488	7
0	690	1638.486088535091	6
0	694	1648.236390267948	5
0	700	1656.34415129383	4
0	711	1672.905130772566	5
0	715	1691.838251683883	5
0	728	1729.356735850355	2
0	731	1735.632081704876	3
0	737	1750.571729774423	1
0	741	1752.749879502452	2
0	743	1754.497168605077	3
0	747	1758.131037364403	3
0	749	1763.258324434591	4
0	756	1772.330127963047	5
0	764	1794.719592688274	6
0	770	1815.399537977048	7
0	774	1819.198265695798	8
0	778	1853.15170595002	9
0	783	1857.616409104527	10
0	785	1860.184358818221	11
0	787	1866.431420662804	12
0	791	1881.681538224715	13
0	794	1885.810627302625	13
0	797	1889.141712582087	13
0	801	1903.688043812331	12
0	803	1917.695757394173	13
0	805	1922.988217533722	14
0	810	1927.579023849307	12
0	813	1938.968957736981	12
0	815	1939.109767001134	13
0	818	1946.899267347758	13
0	823	1964.178587675239	14
0	838	1991.361850611606	10
0	840	1992.765572211126	11
0	843	1996.788229995003	12
0	846	2002.047557914531	12
0	858	2033.308601769378	13
0	860	2035.061598774934	14
0	868	2061.650522616734	15
0	874	2075.881688337426	14
0	882	2081.250934196827	14
0	888	2092.21891531825	12
0	890	2093.546632012052	13
0	897	2110.232550114886	12
0	901	2125.025042442512	11
0	905	2135.780505177154	10
0	907	2143.432189153927	11
0	910	2147.368887047278	11
0	917	2158.697907223824	12
0	924	2169.793596511885	12
0	927	2177.966476356023	12
0	932	2192.237003296487	13
0	934	2192.526528785365	14
0	936	2193.89219335034	15
0	940	2198.863269161615	16
0	942	2199.80173145826	17
0	948	2207.823081186459	17
0	950	2210.260514635551	18
0	952	2211.473737698128	19
0	957	2229.269808158822	18
0	960	2241.463295715837	18
0	962	2243.450415741441	19
0	968	2251.410543237281	18
0	970	2252.303868267804	19
0	974	2261.212790082337	19
0	976	2263.19599754186	20
0	978	2264.838738721981	21
0	980	2269.089093589709	22
0	983	2270.340727560053	22
0	989	2275.468221962577	23
0	994	2287.788219280594	23
0	997	2293.884694717913	23
0	1001	2307.12418334048	22
0	1004	2317.934288927024	22
0	1006	2319.079817402268	23
0	1014	2340.056222556711	21
0	1016	2342.415901409725	22
0	1018	2342.550957990015	23
0	1020	2348.3582601627	24
0	1026	2362.338393119318	21
0	1028	2363.923299114632	22
0	1034	2376.652841269851	22
0	1042	2402.150942015303	23
0	1044	2404.652442841859	24
0	1050	2434.371982535805	21
0	1058	2448.40079655025	18
0	1060	2451.235542157211	19
0	1064	2453.828115139602	20
0	1068	2454.607073960215	21
0	1070	2456.032009824172	22
0	1074	2460.057925107308	23
0	1076	2461.573896518026	24
0	1079	2468.858740301552	25
0	1081	2470.076086231798	26
1	125	351.622388343199	3
1	126	367.069372398523	3
1	127	369.040055525029	2
1	129	371.419553612551	2
1	130	374.805942087775	2
1	131	380.318249613975	1
1	132	384.595799918793	0
1	134	388.135003504805	0
1	135	389.228056941814	0
1	137	394.479227275449	0
1	138	395.183632373108	0
1	140	399.146306525564	0
1	141	403.317550309495	0
1	143	413.988822543821	0
1	144	424.592743521714	0
1	148	430.577270026162	0
1	153	438.937887825282	0
1	155	450.445530522083	0
1	157	450.56620835316	1
1	158	462.333559354683	1
1	162	475.408713424463	1
1	164	480.023640719349	1
1	171	486.437007536756	1
1	173	491.713517040979	1
1	175	498.555997115429	1
1	177	501.988285982108	2
1	179	509.703364310223	3
1	184	513.600066459183	4
1	186	514.15713359022	5
1	191	519.564998877551	6
1	192	524.005679530888	6
1	193	528.798341773565	5
1	194	530.097998252808	4
1	196	533.215908580677	4
1	197	533.887803601766	4
1	202	539.878935897855	4
1	204	548.938819146463	5
1	205	551.039647049114	5
1	209	569.568524199084	4
1	214	577.529618033691	4
1	215	577.691146182521	4
1	217	579.557974420931	4
1	218	585.577270407374	4
1	223	592.731171202488	4
1	225	593.55058864071	5
1	226	606.037320490179	5
1	230	622.123845670097	4
1	234	630.689373670167	4
1	237	633.071072181035	5
1	238	639.87291270002	5
1	239	641.563662025179	4
1	241	641.718310486527	4
1	243	648.166646602557	5
1	245	655.40025492798	6
1	247	656.341103306491	7
1	249	662.230043902784	8
1	251	665.788337476499	9
1	252	668.678048037919	9
1	253	672.135278947442	8
1	257	676.901303860457	7
1	259	685.86729107709	7
1	261	686.196119499708	8
1	263	695.910049851226	9
1	265	707.471093698592	10
1	266	708.311918195293	10
1	268	715.006932308413	10
1	269	720.057720288726	10
1	271	722.581718362881	10
1	273	723.270042358771	11
1	274	729.13826173542	11
1	275	729.187843713028	10
1	276	732.00170049473	9
1	278	734.751374974229	9
1	280	741.211472674072	10
1	281	753.535202400237	10
1	283	753.920601265808	10
1	285	756.594634923728	11
1	289	764.623435358197	12
1	291	772.160604516826	13
1	293	774.071990694695	14
1	297	775.152744174367	15
1	300	781.183410826779	15
1	304	785.307600720807	15
1	306	786.942921322346	16
1	308	788.667676191948	16
1	312	794.021734197766	15
1	314	797.09977832489	15
1	315	803.927898332569	15
1	316	805.484980128756	14
1	317	805.567963478078	13
1	318	811.631955669915	12
1	323	826.761855315949	12
1	324	827.744470815475	12
1	326	828.290630599038	12
1	327	832.050704460428	12
1	328	832.612580091844	11
1	329	835.41941428894	10
1	330	837.177662723514	9
1	331	837.770114437332	8
1	332	839.592577731414	7
1	333	840.380627818193	6
1	337	853.794401613588	5
1	338	858.174294532834	4
1	340	864.900909431776	4
1	341	866.855964542203	4
1	342	869.248222191906	3
1	344	869.296317033724	3
1	346	870.095271929389	4
1	350	874.87862439338	4
1	352	877.303564958754	4
1	356	889.455879276277	4
1	357	891.156342232054	3
1	359	894.524278214403	3
1	363	897.031583970565	4
1	367	897.990713342699	5
1	379	910.282773328017	6
1	383	922.829214870719	7
1	385	928.517990817427	8
1	388	937.661194746362	9
1	390	938.499706346601	9
1	391	938.80882703871	8
1	393	938.921492845077	8
1	395	940.807101129187	9
1	397	940.888475363258	10
1	398	942.050166155284	10
1	402	949.893355509658	9
1	403	952.832508797494	8
1	405	953.439267330921	8
1	406	959.576735202488	8
1	407	960.773606019674	7
1	408	961.21386584985	6
1	410	968.490972588345	6
1	412	971.503727450048	7
1	413	973.818262710761	7
1	414	981.400431615403	6
1	415	983.669376928162	5
1	417	984.186528692564	5
1	421	993.811812998154	5
1	422	997.903058970258	4
1	423	999.104530983209	3
1	428	1005.612945911564	3
1	429	1011.081542887175	3
1	430	1022.711079058691	2
1	435	1024.854099848457	2
1	440	1030.420885112026	3
1	442	1030.957897223123	4
1	452	1055.219178313221	5
1	456	1059.382982854219	6
1	459	1059.677862170415	7
1	462	1072.85833096112	8
1	464	1086.246841942987	9
1	465	1088.312938896972	9
1	467	1089.551555733131	9
1	468	1091.211364269448	9
1	469	1094.519380688922	8
1	471	1101.151465513359	8
1	473	1106.996923130926	9
1	474	1122.296971323045	9
1	485	1137.352345430937	9
1	487	1141.436760111395	10
1	491	1148.239117062152	10
1	493	1151.179425746158	10
1	497	1152.175517040964	11
1	502	1164.472720061631	11
1	503	1164.62862206333	10
1	504	1166.842492549037	9
1	505	1169.392939206216	8
1	506	1171.538949429901	7
1	510	1185.579857883575	6
1	512	1187.17272262204	6
1	513	1189.273114528888	6
1	515	1189.424970695631	6
1	516	1192.515623089914	6
1	518	1192.533627381932	6
1	523	1203.302241465891	7
1	524	1208.75404891125	7
1	525	1209.248093504948	6
1	531	1220.812244237658	6
1	534	1234.347939546879	7
1	536	1235.090075430315	7
1	537	1241.095288035492	6
1	544	1255.936405518465	5
1	548	1268.988575222623	4
1	550	1269.088791886225	4
1	552	1272.714705661772	5
1	554	1283.334619908255	6
1	555	1286.047024566389	6
1	557	1288.530882385772	6
1	558	1293.39715369928	6
1	559	1294.122284020145	5
1	563	1297.094530094093	5
1	565	1298.840019339276	5
1	567	1311.989261226055	5
1	568	1313.352341263182	5
1	569	1322.547112933114	4
1	570	1324.546590659765	3
1	571	1326.879494316454	2
1	575	1334.610798392264	1
1	577	1336.754811539309	1
1	578	1338.265709809632	1
1	579	1338.354378637844	0
1	581	1339.732416055611	0
1	582	1341.805018913916	0
1	584	1364.47486934779	0
1	585	1366.52615739934	0
1	591	1389.302338466047	0
1	593	1389.356319300211	1
1	599	1394.566364497482	2
1	604	1403.518675238298	3
1	606	1404.694806600534	4
1	608	1404.852961057188	5
1	613	1430.229893677066	5
1	615	1430.727179762105	5
1	619	1433.091413502472	6
1	623	1437.020347705088	7
1	630	1449.90412542955	8
1	633	1465.955019363685	9
1	635	1467.506373875806	10
1	638	1469.215140595482	11
1	642	1481.167644321588	12
1	644	1490.291597345038	13
1	646	1495.266496138839	14
1	649	1525.736060304764	14
1	653	1528.542040379276	13
1	654	1530.725712129186	12
1	655	1533.582454529928	11
1	656	1535.320918948794	10
1	658	1537.269121263159	10
1	659	1537.751273437879	10
1	660	1537.933679863596	9
1	665	1546.184688885546	9
1	667	1551.133470663509	10
1	668	1554.712447437226	10
1	669	1564.01755147087	9
1	671	1574.451870873792	9
1	673	1576.661279157441	10
1	674	1582.21689750896	10
1	676	1582.588381782212	10
1	677	1603.527403102738	10
1	678	1611.019098651111	9
1	679	1612.681854145583	8
1	680	1613.226807345843	7
1	681	1615.279723324689	6
1	683	1615.450621114488	6
1	684	1616.061675714931	6
1	688	1634.880757415873	5
1	690	1638.486088535091	5
1	691	1642.463455001993	5
1	692	1643.453090325272	4
1	694	1648.236390267948	4
1	695	1649.056179104836	4
1	696	1653.962447411619	3
1	700	1656.34415129383	3
1	711	1672.905130772566	4
1	713	1677.05497172229	4
1	715	1691.838251683883	4
1	716	1700.491242507056	4
1	717	1700.783121977733	3
1	718	1704.223264385114	2
1	719	1721.203042012846	1
1	728	1729.356735850355	1
1	731	1735.632081704876	2
1	733	1745.541542227883	2
1	734	1746.794777803591	1
1	735	1747.583461796433	0
1	737	1750.571729774423	0
1	741	1752.749879502452	1
1	743	1754.497168605077	2
1	745	1757.135473768271	2
1	747	1758.131037364403	2
1	749	1763.258324434591	3
1	756	1772.330127963047	4
1	764	1794.719592688274	5
1	770	1815.399537977048	6
1	774	1819.198265695798	7
1	778	1853.15170595002	8
1	783	1857.616409104527	9
1	785	1860.184358818221	10
1	787	1866.431420662804	11
1	791	1881.681538224715	12
1	792	1882.546452816413	12
1	794	1885.810627302625	12
1	795	1886.813138218424	12
1	797	1889.141712582087	12
1	798	1896.929777620427	12
1	799	1902.856520373392	11
1	801	1903.688043812331	11
1	803	1917.695757394173	12
1	805	1922.988217533722	13
1	806	1923.081129431414	13
1	807	1923.528942641251	12
1	808	1924.135951542083	11
1	810	1927.579023849307	11
1	811	1932.936137068754	11
1	813	1938.968957736981	11
1	815	1939.109767001134	12
1	816	1945.885156515732	12
1	818	1946.899267347758	12
1	823	1964.178587675239	13
1	824	1964.598967175681	13
1	825	1967.446537005049	12
1	826	1969.861123360756	11
1	827	1973.327574415889	10
1	828	1973.904513082203	9
1	838	1991.361850611606	9
1	840	1992.765572211126	10
1	843	1996.788229995003	11
1	844	1998.86696995208	11
1	846	2002.047557914531	11
1	858	2033.308601769378	12
1	860	2035.061598774934	13
1	868	2061.650522616734	14
1	871	2070.936395663992	14
1	872	2074.517395717715	13
1	874	2075.881688337426	13
1	875	2076.287521712317	13
1	882	2081.250934196827	13
1	884	2086.766718610788	13
1	885	2087.725764231083	12
1	886	2091.479751656817	11
1	888	2092.21891531825	11
1	890	2093.546632012052	12
1	891	2099.302415562594	12
1	892	2101.002349066446	11
1	897	2110.232550114886	11
1	898	2117.465643037053	11
1	899	2119.370732341545	10
1	901	2125.025042442512	10
1	902	2125.751011958284	10
1	903	2131.760565464632	9
1	905	2135.780505177154	9
1	907	2143.432189153927	10
1	908	2146.978862979468	10
1	910	2147.368887047278	10
1	917	2158.697907223824	11
1	922	2164.01617471751	11
1	924	2169.793596511885	11
1	925	2174.118219609917	11
1	927	2177.966476356023	11
1	932	2192.237003296487	12
1	934	2192.526528785365	13
1	936	2193.89219335034	14
1	940	2198.863269161615	15
1	942	2199.80173145826	16
1	944	2202.136752302758	16
1	948	2207.823081186459	16
1	950	2210.260514635551	17
1	952	2211.473737698128	18
1	954	2219.819921871785	18
1	955	2222.127964334345	17
1	957	2229.269808158822	17
1	958	2240.230858450289	17
1	960	2241.463295715837	17
1	962	2243.450415741441	18
1	963	2244.293983932477	18
1	964	2249.759968291249	17
1	968	2251.410543237281	17
1	970	2252.303868267804	18
1	972	2259.85570574253	18
1	974	2261.212790082337	18
1	976	2263.19599754186	19
1	978	2264.838738721981	20
1	980	2269.089093589709	21
1	981	2269.752639675998	21
1	983	2270.340727560053	21
1	989	2275.468221962577	22
1	992	2284.500291598016	22
1	994	2287.788219280594	22
1	995	2291.612577278288	22
1	997	2293.884694717913	22
1	998	2300.052414802797	22
1	999	2304.197155960537	21
1	1001	2307.12418334048	21
1	1002	2317.667453297144	21
1	1004	2317.934288927024	21
1	1006	2319.079817402268	22
1	1007	2323.816531911263	22
1	1008	2331.850148644318	21
1	1009	2332.436121442137	20
1	1014	2340.056222556711	20
1	1016	2342.415901409725	21
1	1018	2342.550957990015	22
1	1020	2348.3582601627	23
1	1021	2350.583401103235	23
1	1022	2354.77721106227	22
1	1023	2355.092723472411	21
1	1024	2358.800885776976	20
1	1026	2362.338393119318	20
1	1028	2363.923299114632	21
1	1029	2364.564096955786	21
1	1034	2376.652841269851	21
1	1042	2402.150942015303	22
1	1044	2404.652442841859	23
1	1045	2414.368809771871	23
1	1046	2415.347924163842	22
1	1047	2416.332316814107	21
1	1048	2428.902502167289	20
1	1050	2434.371982535805	20
1	1051	2443.494735988894	20
1	1052	2445.827433481627	19
1	1053	2447.166988233063	18
1	1054	2447.606699612033	17
1	1058	2448.40079655025	17
1	1060	2451.235542157211	18
1	1064	2453.828115139602	19
1	1068	2454.607073960215	20
1	1070	2456.032009824172	21
1	1074	2460.057925107308	22
1	1076	2461.573896518026	23
1	1079	2468.858740301552	24
1	1081	2470.076086231798	25
2	126	367.069372398523	28
2	127	369.040055525029	29
2	130	374.805942087775	30
2	131	380.318249613975	31
2	132	384.595799918793	32
2	135	389.228056941814	33
2	138	395.183632373108	34
2	141	403.317550309495	35
2	144	424.592743521714	36
2	153	438.937887825282	37
2	158	462.333559354683	38
2	164	480.023640719349	39
2	173	491.713517040979	40
2	192	524.005679530888	41
2	193	528.798341773565	42
2	194	530.097998252808	43
2	197	533.887803601766	44
2	205	551.039647049114	45
2	209	569.568524199084	46
2	215	577.691146182521	47
2	218	585.577270407374	48
2	226	606.037320490179	49
2	230	622.123845670097	50
2	238	639.87291270002	51
2	239	641.563662025179	52
2	252	668.678048037919	53
2	253	672.135278947442	54
2	257	676.901303860457	55
2	266	708.311918195293	56
2	269	720.057720288726	57
2	274	729.13826173542	58
2	275	729.187843713028	59
2	276	732.00170049473	60
2	281	753.535202400237	61
2	300	781.183410826779	62
2	308	788.667676191948	63
2	312	794.021734197766	64
2	315	803.927898332569	65
2	316	805.484980128756	66
2	317	805.567963478078	67
2	318	811.631955669915	68
2	324	827.744470815475	69
2	327	832.050704460428	70
2	328	832.612580091844	71
2	329	835.41941428894	72
2	330	837.177662723514	73
2	331	837.770114437332	74
2	332	839.592577731414	75
2	333	840.380627818193	76
2	337	853.794401613588	77
2	338	858.174294532834	78
2	341	866.855964542203	79
2	342	869.248222191906	80
2	350	874.87862439338	81
2	356	889.455879276277	82
2	357	891.156342232054	83
2	390	938.499706346601	84
2	391	938.80882703871	85
2	398	942.050166155284	86
2	402	949.893355509658	87
2	403	952.832508797494	88
2	406	959.576735202488	89
2	407	960.773606019674	90
2	408	961.21386584985	91
2	413	973.818262710761	92
2	414	981.400431615403	93
2	415	983.669376928162	94
2	421	993.811812998154	95
2	422	997.903058970258	96
2	423	999.104530983209	97
2	429	1011.081542887175	98
2	430	1022.711079058691	99
2	465	1088.312938896972	100
2	468	1091.211364269448	101
2	469	1094.519380688922	102
2	474	1122.296971323045	103
2	491	1148.239117062152	104
2	502	1164.472720061631	105
2	503	1164.62862206333	106
2	504	1166.842492549037	107
2	505	1169.392939206216	108
2	506	1171.538949429901	109
2	510	1185.579857883575	110
2	513	1189.273114528888	111
2	516	1192.515623089914	112
2	524	1208.75404891125	113
2	525	1209.248093504948	114
2	536	1235.090075430315	115
2	537	1241.095288035492	116
2	544	1255.936405518465	117
2	548	1268.988575222623	118
2	555	1286.047024566389	119
2	558	1293.39715369928	120
2	559	1294.122284020145	121
2	565	1298.840019339276	122
2	568	1313.352341263182	123
2	569	1322.547112933114	124
2	570	1324.546590659765	125
2	571	1326.879494316454	126
2	575	1334.610798392264	127
2	578	1338.265709809632	128
2	579	1338.354378637844	129
2	582	1341.805018913916	130
2	585	1366.52615739934	131
2	613	1430.229893677066	132
2	649	1525.736060304764	133
2	653	1528.542040379276	134
2	654	1530.725712129186	135
2	655	1533.582454529928	136
2	656	1535.320918948794	137
2	659	1537.751273437879	138
2	660	1537.933679863596	139
2	668	1554.712447437226	140
2	669	1564.01755147087	141
2	674	1582.21689750896	142
2	677	1603.527403102738	143
2	678	1611.019098651111	144
2	679	1612.681854145583	145
2	680	1613.226807345843	146
2	681	1615.279723324689	147
2	684	1616.061675714931	148
2	688	1634.880757415873	149
2	691	1642.463455001993	150
2	692	1643.453090325272	151
2	695	1649.056179104836	152
2	696	1653.962447411619	153
2	713	1677.05497172229	154
2	716	1700.491242507056	155
2	717	1700.783121977733	156
2	718	1704.223264385114	157
2	719	1721.203042012846	158
2	733	1745.541542227883	159
2	734	1746.794777803591	160
2	735	1747.583461796433	161
2	745	1757.135473768271	162
2	792	1882.546452816413	163
2	795	1886.813138218424	164
2	798	1896.929777620427	165
2	799	1902.856520373392	166
2	806	1923.081129431414	167
2	807	1923.528942641251	168
2	808	1924.135951542083	169
2	811	1932.936137068754	170
2	816	1945.885156515732	171
2	824	1964.598967175681	172
2	825	1967.446537005049	173
2	826	1969.861123360756	174
2	827	1973.327574415889	175
2	828	1973.904513082203	176
2	844	1998.86696995208	177
2	871	2070.936395663992	178
2	872	2074.517395717715	179
2	875	2076.287521712317	180
2	884	2086.766718610788	181
2	885	2087.725764231083	182
2	886	2091.479751656817	183
2	891	2099.302415562594	184
2	892	2101.002349066446	185
2	898	2117.465643037053	186
2	899	2119.370732341545	187
2	902	2125.751011958284	188
2	903	2131.760565464632	189
2	908	2146.978862979468	190
2	922	2164.01617471751	191
2	925	2174.118219609917	192
2	944	2202.136752302758	193
2	954	2219.819921871785	194
2	955	2222.127964334345	195
2	958	2240.230858450289	196
2	963	2244.293983932477	197
2	964	2249.759968291249	198
2	972	2259.85570574253	199
2	981	2269.752639675998	200
2	992	2284.500291598016	201
2	995	2291.612577278288	202
2	998	2300.052414802797	203
2	999	2304.197155960537	204
2	1002	2317.667453297144	205
2	1007	2323.816531911263	206
2	1008	2331.850148644318	207
2	1009	2332.436121442137	208
2	1021	2350.583401103235	209
2	1022	2354.77721106227	210
2	1023	2355.092723472411	211
2	1024	2358.800885776976	212
2	1029	2364.564096955786	213
2	1045	2414.368809771871	214
2	1046	2415.347924163842	215
2	1047	2416.332316814107	216
2	1048	2428.902502167289	217
2	1051	2443.494735988894	218
2	1052	2445.827433481627	219
2	1053	2447.166988233063	220
2	1054	2447.606699612033	221
3	126	367.069372398523	39.129824379975
3	127	369.040055525029	22.40532270823
3	130	374.805942087775	25.416541039521
3	131	380.318249613975	28.695861270776
3	132	384.595799918793	13.176246306242
3	135	389.228056941814	1.093053437009
3	138	395.183632373108	0.704405097659
3	141	403.317550309495	4.171243783931
3	144	424.592743521714	10.603920977893
3	153	438.937887825282	8.36061779912
3	158	462.333559354683	11.8880288326
3	164	480.023640719349	13.36975874786
3	173	491.713517040979	11.324348862715
3	192	524.005679530888	22.01739354878
3	193	528.798341773565	19.094977463342
3	194	530.097998252808	18.096974260646
3	197	533.887803601766	20.287737142583
3	205	551.039647049114	36.160060940117
3	209	569.568524199084	36.352615618407
3	215	577.691146182521	37.812210284666
3	218	585.577270407374	36.638451260911
3	226	606.037320490179	35.269537098455
3	230	622.123845670097	42.565871249166
3	238	639.87291270002	47.141741497532
3	239	641.563662025179	48.013073384469
3	252	668.678048037919	61.355718680662
3	253	672.135278947442	44.112562707949
3	257	676.901303860457	43.830231679422
3	266	708.311918195293	66.593607708766
3	269	720.057720288726	71.891073686169
3	274	729.13826173542	73.73800680744
3	275	729.187843713028	72.846740406537
3	276	732.00170049473	69.771656591946
3	281	753.535202400237	87.746864923738
3	300	781.183410826779	95.316119749689
3	308	788.667676191948	92.757626340722
3	312	794.021734197766	79.014801889353
3	315	803.927898332569	81.346179969688
3	316	805.484980128756	82.214937769985
3	317	805.567963478078	70.816588503849
3	318	811.631955669915	70.420482995843
3	324	827.744470815475	71.149835891747
3	327	832.050704460428	67.580199555322
3	328	832.612580091844	67.989144733647
3	329	835.41941428894	63.258809772114
3	330	837.177662723514	63.105672028819
3	331	837.770114437332	62.617370262965
3	332	839.592577731414	56.467725905116
3	333	840.380627818193	55.073027097386
3	337	853.794401613588	62.072826979727
3	338	858.174294532834	61.074516207944
3	341	866.855964542203	42.075074458299
3	342	869.248222191906	42.486366875957
3	350	874.87862439338	26.185668807543
3	356	889.455879276277	20.159562242553
3	357	891.156342232054	21.061070302665
3	390	938.499706346601	61.196141387847
3	391	938.80882703871	59.134839336946
3	398	942.050166155284	47.525887940881
3	402	949.893355509658	52.861771539093
3	403	952.832508797494	54.841795454795
3	406	959.576735202488	49.293961874471
3	407	960.773606019674	37.944391148955
3	408	961.21386584985	32.695875032423
3	413	973.818262710761	36.157067964399
3	414	981.400431615403	42.478938770326
3	415	983.669376928162	42.862275798975
3	421	993.811812998154	46.78995871117
3	422	997.903058970258	44.463791639337
3	423	999.104530983209	30.613558394864
3	429	1011.081542887175	26.895014194611
3	430	1022.711079058691	35.258003371524
3	465	1088.312938896972	63.399380432577
3	468	1091.211364269448	60.790479157422
3	469	1094.519380688922	63.561483465799
3	474	1122.296971323045	90.625457967482
3	491	1148.239117062152	88.856134207933
3	502	1164.472720061631	91.614389100511
3	503	1164.62862206333	78.381780120343
3	504	1166.842492549037	77.290936815906
3	505	1169.392939206216	68.241473692857
3	506	1171.538949429901	64.542026298975
3	510	1185.579857883575	48.227512452638
3	513	1189.273114528888	47.836354417493
3	516	1192.515623089914	50.831317750302
3	524	1208.75404891125	56.810570330082
3	525	1209.248093504948	57.072576463984
3	536	1235.090075430315	47.917352808275
3	537	1241.095288035492	51.670317339861
3	544	1255.936405518465	52.634164052574
3	548	1268.988575222623	48.176330984965
3	555	1286.047024566389	51.69908501951
3	558	1293.39715369928	50.431734569677
3	559	1294.122284020145	41.45076583976
3	565	1298.840019339276	29.751227453051
3	568	1313.352341263182	40.63763560141
3	569	1322.547112933114	39.212493024859
3	570	1324.546590659765	36.015708273993
3	571	1326.879494316454	31.86747864184
3	575	1334.610798392264	22.621537166209
3	578	1338.265709809632	11.043570014936
3	579	1338.354378637844	1.599567098535
3	582	1341.805018913916	2.072602858305
3	585	1366.52615739934	2.05128805155
3	613	1430.229893677066	40.927555211019
3	649	1525.736060304764	131.16969580728
3	653	1528.542040379276	123.84723377874
3	654	1530.725712129186	125.872751072
3	655	1533.582454529928	102.85527476782
3	656	1535.320918948794	102.7673977209
3	659	1537.751273437879	104.65985993541
3	660	1537.933679863596	100.91333215851
3	668	1554.712447437226	88.757428073541
3	669	1564.01755147087	96.511177595064
3	674	1582.21689750896	113.00175691348
3	677	1603.527403102738	122.35975878115
3	678	1611.019098651111	120.72750130607
3	679	1612.681854145583	117.41535800674
3	680	1613.226807345843	87.007632659697
3	681	1615.279723324689	78.01060206153
3	684	1616.061675714931	74.389543657812
3	688	1634.880757415873	83.747286752364
3	691	1642.463455001993	68.011584128201
3	692	1643.453090325272	66.791811167831
3	695	1649.056179104836	66.467797322624
3	696	1653.962447411619	38.511826297131
3	713	1677.05497172229	28.818581454342
3	716	1700.491242507056	45.387576911001
3	717	1700.783121977733	44.438970683903
3	718	1704.223264385114	47.169420116128
3	719	1721.203042012846	48.29791124028
3	733	1745.541542227883	24.216420295983
3	734	1746.794777803591	17.438041953236
3	735	1747.583461796433	11.951380091557
3	745	1757.135473768271	5.544981284543
3	792	1882.546452816413	124.41541545201
3	795	1886.813138218424	123.55481378383
3	798	1896.929777620427	129.77091163842
3	799	1902.856520373392	131.45017904266
3	806	1923.081129431414	150.75100146837
3	807	1923.528942641251	128.80934995298
3	808	1924.135951542083	108.73641356503
3	811	1932.936137068754	113.73787137296
3	816	1945.885156515732	92.733450565712
3	824	1964.598967175681	104.41460835746
3	825	1967.446537005049	101.01511634224
3	826	1969.861123360756	88.179585136041
3	827	1973.327574415889	87.516947113264
3	828	1973.904513082203	84.762800500116
3	844	1998.86696995208	81.171212557907
3	871	2070.936395663992	143.35737181468
3	872	2074.517395717715	135.54843798073
3	875	2076.287521712317	137.17775471118
3	884	2086.766718610788	131.20112810734
3	885	2087.725764231083	123.54717655584
3	886	2091.479751656817	116.8546571083
3	891	2099.302415562594	107.94056495099
3	892	2101.002349066446	108.23677685532
3	898	2117.465643037053	115.41808512252
3	899	2119.370732341545	113.24416887727
3	902	2125.751011958284	92.442410188906
3	903	2131.760565464632	96.698966689698
3	908	2146.978862979468	85.328340362734
3	922	2164.01617471751	82.765240520683
3	925	2174.118219609917	81.899304291667
3	944	2202.136752302758	91.904202187872
3	954	2219.819921871785	84.039416694631
3	955	2222.127964334345	78.695775180418
3	958	2240.230858450289	92.861971403011
3	963	2244.293983932477	94.920297602931
3	964	2249.759968291249	96.641388378583
3	972	2259.85570574253	90.062109230645
3	981	2269.752639675998	91.786163319975
3	992	2284.500291598016	92.263288301529
3	995	2291.612577278288	99.086048492923
3	998	2300.052414802797	106.16022145246
3	999	2304.197155960537	106.79844577827
3	1002	2317.667453297144	118.80418413553
3	1007	2323.816531911263	124.014800453
3	1008	2331.850148644318	125.90760511604
3	1009	2332.436121442137	124.61304025568
3	1021	2350.583401103235	139.10966340511
3	1022	2354.77721106227	125.50740290345
3	1023	2355.092723472411	113.62942775657
3	1024	2358.800885776976	115.35047003553
3	1029	2364.564096955786	113.25787865613
3	1045	2414.368809771871	151.17281223001
3	1046	2415.347924163842	150.50918544186
3	1047	2416.332316814107	147.2432232244
3	1048	2428.902502167289	158.56177460724
3	1051	2443.494735988894	173.11189355597
3	1052	2445.827433481627	170.35921151905
3	1053	2447.166988233063	159.37876895247
3	1054	2447.606699612033	153.72200489412
4	126	367.069372398523	20.434639581724
4	127	369.040055525029	19.650654476775
4	130	374.805942087775	23.183553744576
4	131	380.318249613975	8.898696001424
4	134	388.135003504805	0
4	137	394.479227275449	0
4	140	399.146306525564	0
4	143	413.988822543821	0
4	152	434.554170996073	3.976900969911
4	155	450.445530522083	0
4	158	462.333559354683	11.767351001523
4	163	475.495653397419	8.84177142593
4	164	480.023640719349	4.614927294886
4	172	488.569346415649	8.180178237385
4	173	491.713517040979	5.276509504223
4	182	512.027762315935	13.471765200506
4	189	517.143201628747	15.154915646639
4	192	524.005679530888	14.302315220665
4	193	528.798341773565	16.797317781403
4	194	530.097998252808	16.497931793625
4	197	533.887803601766	19.730670011546
4	200	535.263615731327	20.38402962233
4	205	551.039647049114	31.474648171563
4	208	559.767632879121	26.551724298444
4	209	569.568524199084	34.438304580506
4	212	574.933245943507	35.054310045652
4	215	577.691146182521	28.752327036058
4	218	585.577270407374	31.356052478129
4	221	589.059750735808	18.291967344084
4	226	606.037320490179	28.507702456488
4	229	617.797324928868	38.239350507937
4	230	622.123845670097	33.377856254278
4	235	631.204645763165	38.473474560677
4	238	639.87291270002	46.32232405931
4	239	641.563662025179	34.241332667922
4	252	668.678048037919	40.655331798426
4	253	672.135278947442	41.445905277275
4	256	676.667032743875	43.59596056284
4	257	676.901303860457	35.18299337393
4	266	708.311918195293	60.145271592736
4	269	720.057720288726	64.657465360746
4	274	729.13826173542	72.797158428929
4	275	729.187843713028	66.957799810244
4	276	732.00170049473	66.213363018231
4	281	753.535202400237	78.760126052044
4	299	778.997724206152	93.130433129062
4	300	781.183410826779	94.987291327071
4	307	787.91011745697	92.000067605744
4	308	788.667676191948	81.196582493356
4	311	792.586290204544	77.579357896131
4	312	794.021734197766	71.440015834885
4	315	803.927898332569	80.657855973798
4	316	805.484980128756	70.733605154527
4	317	805.567963478078	64.356490804006
4	318	811.631955669915	57.711354404107
4	321	825.667624364659	69.072989440931
4	324	827.744470815475	63.273965910369
4	327	832.050704460428	67.427269102231
4	328	832.612580091844	60.451975575018
4	329	835.41941428894	61.347423594245
4	330	837.177662723514	62.024918549147
4	331	837.770114437332	54.645262611034
4	332	839.592577731414	54.284977010607
4	333	840.380627818193	53.437706495847
4	336	851.821214272241	60.09963963838
4	337	853.794401613588	56.694623288698
4	338	858.174294532834	33.39340444893
4	341	866.855964542203	40.094109226254
4	342	869.248222191906	40.957591592868
4	349	874.405821123253	25.712865537416
4	350	874.87862439338	9.977714961604
4	355	886.691631618103	17.395314584379
4	356	889.455879276277	19.360607346888
4	357	891.156342232054	20.23460744687
4	389	938.228350439509	60.924785480755
4	390	938.499706346601	58.825718644837
4	391	938.80882703871	44.284548824307
4	398	942.050166155284	46.92630654626
4	401	948.371087515247	51.339503544682
4	402	949.893355509658	51.902642166959
4	403	952.832508797494	42.549735469477
4	406	959.576735202488	36.747520331769
4	407	960.773606019674	32.255615202247
4	408	961.21386584985	23.552671103488
4	413	973.818262710761	34.896769865684
4	414	981.400431615403	40.593330486216
4	415	983.669376928162	42.780901564904
4	420	989.510546709378	42.488692422394
4	421	993.811812998154	40.372545667233
4	422	997.903058970258	29.412086381913
4	423	999.104530983209	27.600803533161
4	426	1005.369531348096	21.183002655532
4	429	1011.081542887175	23.628467200008
4	430	1022.711079058691	17.521711489185
4	433	1024.397171461141	18.784225549577
4	438	1026.673353020275	3.352903014632
4	445	1038.014820963313	13.160721114856
4	460	1061.508684503713	36.595126039318
4	465	1088.312938896972	57.892053784946
4	468	1091.211364269448	60.253467046325
4	469	1094.519380688922	62.847867333359
4	474	1122.296971323045	82.19027760028
4	483	1136.538593575607	81.319415262386
4	490	1148.146387773811	88.763404919592
4	491	1148.239117062152	88.561254891737
4	501	1155.032315381722	82.173984420602
4	502	1164.472720061631	78.225878118644
4	503	1164.62862206333	75.077066330199
4	504	1166.842492549037	65.691027035678
4	505	1169.392939206216	62.39601607529
4	506	1171.538949429901	45.704504569518
4	509	1172.104987954277	34.75264252334
4	510	1185.579857883575	44.14309777218
4	513	1189.273114528888	47.588809189276
4	516	1192.515623089914	41.336197343756
4	521	1203.014114649164	51.070636067996
4	524	1208.75404891125	56.578531870286
4	525	1209.248093504948	37.275265071329
4	535	1235.041232652496	47.868510030456
4	536	1235.090075430315	45.665104734684
4	537	1241.095288035492	48.56166065356
4	540	1245.323373674067	51.019805210785
4	543	1255.225239381459	51.922997915568
4	544	1255.936405518465	42.816014742821
4	547	1268.351150234496	47.538905996838
4	548	1268.988575222623	34.640635675744
4	555	1286.047024566389	43.081605436786
4	558	1293.39715369928	40.725635518895
4	559	1294.122284020145	33.870748806175
4	564	1297.491014173305	28.40222228708
4	565	1298.840019339276	26.125313677504
4	568	1313.352341263182	30.017721354927
4	569	1322.547112933114	34.016230547342
4	570	1324.546590659765	29.534574985151
4	571	1326.879494316454	29.784964222361
4	574	1330.635919288996	18.646658062941
4	575	1334.610798392264	7.388658597568
4	578	1338.265709809632	1.510898270323
4	581	1339.732416055611	0
4	584	1364.47486934779	0
4	612	1419.024427001502	29.722088535455
4	613	1430.229893677066	40.873574376855
4	648	1516.080705142843	121.51434064536
4	649	1525.736060304764	122.21738506647
4	652	1527.516026152737	122.8212195522
4	653	1528.542040379276	123.68907932209
4	654	1530.725712129186	99.998532367081
4	655	1533.582454529928	101.02893330204
4	656	1535.320918948794	102.22950544632
4	659	1537.751273437879	100.73092573279
4	660	1537.933679863596	88.029554434046
4	663	1544.803983619073	78.848964255388
4	668	1554.712447437226	87.20607356142
4	669	1564.01755147087	94.802410875388
4	674	1582.21689750896	101.04925318737
4	677	1603.527403102738	113.2358057577
4	678	1611.019098651111	115.75260251227
4	679	1612.681854145583	86.462679459437
4	680	1613.226807345843	75.957686082684
4	681	1615.279723324689	73.60759126757
4	684	1616.061675714931	69.876986829385
4	687	1631.654302126021	80.520831462512
4	688	1634.880757415873	60.428886542081
4	691	1642.463455001993	65.802175844552
4	692	1643.453090325272	60.86470854306
4	695	1649.056179104836	33.605557990348
4	696	1653.962447411619	23.282773440167
4	701	1656.868365600698	18.382277065607
4	712	1674.795466350937	26.559076082989
4	713	1677.05497172229	21.951306126235
4	716	1700.491242507056	44.147091213226
4	717	1700.783121977733	43.729277708747
4	718	1704.223264385114	31.318133612548
4	719	1721.203042012846	29.364790328963
4	732	1738.346474404672	17.021352472772
4	733	1745.541542227883	16.184806377528
4	734	1746.794777803591	11.162696098715
4	737	1750.571729774423	0
4	744	1756.094376838022	4.503884354294
4	745	1757.135473768271	4.385594265819
4	752	1768.824763114033	14.327594508956
4	789	1876.676064526561	118.54502716216
4	792	1882.546452816413	119.28812838182
4	795	1886.813138218424	119.65427223642
4	798	1896.929777620427	125.52343628969
4	799	1902.856520373392	130.52639241035
4	806	1923.081129431414	128.36153674314
4	807	1923.528942641251	108.1294046642
4	808	1924.135951542083	104.93768584628
4	811	1932.936137068754	79.784431118734
4	816	1945.885156515732	88.268747411205
4	821	1962.63125033797	102.44689151975
4	824	1964.598967175681	98.167546512877
4	825	1967.446537005049	85.764998780334
4	826	1969.861123360756	84.050496058131
4	827	1973.327574415889	84.185861833802
4	828	1973.904513082203	70.216469269872
4	841	1996.738028371023	79.04227097685
4	844	1998.86696995208	75.878752418358
4	870	2069.751707750425	142.17268390112
4	871	2070.936395663992	131.96743792701
4	872	2074.517395717715	135.40762871658
4	875	2076.287521712317	129.38825436456
4	883	2083.88712587113	128.32153536769
4	884	2086.766718610788	122.58813093555
4	885	2087.725764231083	113.10066968256
4	886	2091.479751656817	100.11790104521
4	891	2099.302415562594	106.53684335147
4	892	2101.002349066446	104.21411907144
4	895	2109.851484926368	107.80392701184
4	898	2117.465643037053	111.33907957278
4	899	2119.370732341545	86.062130572167
4	902	2125.751011958284	90.68941318335
4	903	2131.760565464632	70.110042847898
4	908	2146.978862979468	71.097174642042
4	913	2149.754412130102	73.230763567937
4	921	2163.020374819534	81.769440622707
4	922	2164.01617471751	71.79725939926
4	925	2174.118219609917	80.571587597865
4	930	2186.353391296864	84.727489789281
4	943	2201.804302794092	91.571752679206
4	944	2202.136752302758	77.111709860246
4	953	2215.606734588487	79.826229411333
4	954	2219.819921871785	76.387732717858
4	955	2222.127964334345	74.759077287067
4	958	2240.230858450289	90.857172120743
4	963	2244.293983932477	91.175404019811
4	964	2249.759968291249	91.062061067425
4	971	2254.473764154896	84.680167643011
4	972	2259.85570574253	81.889229386507
4	981	2269.752639675998	89.75580784363
4	991	2279.974690316725	87.737687020238
4	992	2284.500291598016	91.973762812651
4	995	2291.612577278288	97.720383927948
4	998	2300.052414802797	102.65370462053
4	999	2304.197155960537	105.33388679892
4	1002	2317.667453297144	117.86572183888
4	1007	2323.816531911263	117.87398838298
4	1008	2331.850148644318	124.02706745786
4	1009	2332.436121442137	122.17560680659
4	1012	2334.615881461041	123.14214376291
4	1021	2350.583401103235	121.31359294441
4	1022	2354.77721106227	113.31391534643
4	1023	2355.092723472411	111.64230773097
4	1024	2358.800885776976	107.49466747731
4	1029	2364.564096955786	113.1535537185
4	1032	2367.383314552848	115.07944628504
4	1037	2399.670697763789	138.45790768145
4	1040	2402.10911899769	138.91312145583
4	1045	2414.368809771871	149.53007104989
4	1046	2415.347924163842	146.25883057413
4	1047	2416.332316814107	145.99158925405
4	1048	2428.902502167289	158.51965973437
4	1051	2443.494735988894	168.02651402632
4	1052	2445.827433481627	158.03921420103
4	1053	2447.166988233063	153.28229351515
4	1054	2447.606699612033	140.48251627155
4	1087	2489.579530532512	171.64524160549
5	146	429.805982642391	1
5	150	430.916857740633	2
5	160	466.653881971489	1
5	166	480.389168178264	1
5	168	484.948397214337	2
5	181	512.001023992162	1
5	188	514.879586108997	1
5	199	535.130219618578	1
5	207	554.221217929245	1
5	211	570.767783391724	1
5	220	588.745989415819	1
5	228	607.322329357257	1
5	232	628.022716239493	1
5	255	674.775076348193	1
5	287	764.470504905106	1
5	295	774.960595730851	2
5	302	783.124851826298	1
5	310	791.721574633861	1
5	320	824.780890083904	1
5	335	848.692955585837	1
5	348	870.921734785184	1
5	354	879.673987701764	1
5	361	895.123859609024	1
5	365	897.087892095928	2
5	369	898.52874520143	3
5	371	902.91848991985	4
5	373	904.793744658038	5
5	375	905.939782639788	6
5	400	947.021854286984	1
5	419	987.453075687167	1
5	425	1005.189367569506	1
5	432	1023.320450005643	1
5	437	1024.913558464395	1
5	444	1031.671513355563	1
5	447	1040.106693722765	1
5	449	1046.858083196316	2
5	454	1055.983033979393	2
5	476	1125.834444860383	1
5	478	1126.073229754912	2
5	481	1130.022379586988	2
5	489	1141.684305339612	1
5	495	1151.943478581168	1
5	499	1153.044067096581	2
5	508	1171.972828433619	1
5	520	1194.303568463282	1
5	527	1213.120390775644	1
5	529	1213.776412320688	2
5	539	1242.965419129603	1
5	542	1252.671518180385	1
5	546	1260.25153521397	1
5	561	1295.012015674614	1
5	573	1327.222139794696	1
5	587	1372.895957883817	1
5	589	1381.917485442831	2
5	595	1389.920731222985	3
5	597	1392.698472785622	4
5	601	1394.746713787062	5
5	617	1432.553521227889	1
5	621	1436.728348757593	2
5	626	1439.464295754499	2
5	628	1443.061154915565	3
5	640	1470.841717359854	2
5	651	1526.219174686146	1
5	662	1541.672132057119	1
5	686	1630.679673971452	1
5	698	1655.103665596055	1
5	703	1657.053844268986	1
5	705	1659.651746286242	2
5	708	1665.733231704901	2
5	721	1721.3251219319	1
5	723	1724.171842528881	2
5	725	1726.073576885084	3
5	739	1751.590492483728	1
5	751	1767.158865982002	1
5	754	1771.406341330737	1
5	758	1783.417919866976	2
5	760	1783.722003023927	3
5	762	1791.971053425055	4
5	766	1795.316317058822	5
5	768	1809.741195744578	6
5	781	1856.116173852789	2
5	820	1955.565590503443	1
5	830	1974.625094548522	1
5	832	1977.29678444029	2
5	834	1979.329242199321	3
5	848	2006.126563464277	1
5	850	2009.768996666181	2
5	852	2024.933254232398	3
5	854	2025.029423131321	4
5	862	2047.149323694852	3
5	865	2059.631904285061	3
5	877	2076.523648562165	1
5	879	2077.975665000054	2
5	894	2101.625901507583	1
5	912	2149.373686329546	1
5	915	2153.118579912666	1
5	919	2159.544133062312	2
5	929	2179.996831832368	1
5	938	2197.398710182264	1
5	946	2205.942543528282	1
5	966	2251.306218299661	1
5	985	2270.38284243292	1
5	987	2273.847229097608	2
5	1011	2332.685519984248	1
5	1031	2366.358492865929	1
5	1036	2389.953426147872	1
5	1039	2400.252778801939	1
5	1056	2447.619588604821	1
5	1062	2452.902374295182	2
5	1066	2454.586400927438	3
5	1072	2457.141402415183	4
5	1085	2483.620657694845	2
5	1089	2491.727201881822	1
6	146	429.805982642391	0
6	150	430.916857740633	1
6	151	432.984221837602	1
6	152	434.554170996073	0
6	160	466.653881971489	0
6	163	475.495653397419	0
6	166	480.389168178264	0
6	168	484.948397214337	1
6	169	486.411094216088	1
6	172	488.569346415649	0
6	181	512.001023992162	0
6	182	512.027762315935	0
6	188	514.879586108997	0
6	189	517.143201628747	0
6	199	535.130219618578	0
6	200	535.263615731327	0
6	207	554.221217929245	0
6	208	559.767632879121	0
6	211	570.767783391724	0
6	212	574.933245943507	0
6	220	588.745989415819	0
6	221	589.059750735808	0
6	228	607.322329357257	0
6	229	617.797324928868	0
6	232	628.022716239493	0
6	235	631.204645763165	0
6	255	674.775076348193	0
6	256	676.667032743875	0
6	287	764.470504905106	0
6	295	774.960595730851	1
6	298	776.165631073303	1
6	299	778.997724206152	0
6	302	783.124851826298	0
6	307	787.91011745697	0
6	310	791.721574633861	0
6	311	792.586290204544	0
6	320	824.780890083904	0
6	321	825.667624364659	0
6	335	848.692955585837	0
6	336	851.821214272241	0
6	348	870.921734785184	0
6	349	874.405821123253	0
6	354	879.673987701764	0
6	355	886.691631618103	0
6	361	895.123859609024	0
6	365	897.087892095928	1
6	369	898.52874520143	2
6	371	902.91848991985	3
6	373	904.793744658038	4
6	375	905.939782639788	5
6	376	906.299857537583	5
6	377	908.105310106795	4
6	380	910.852113450797	3
6	381	914.425395925203	2
6	386	930.515101595538	1
6	389	938.228350439509	0
6	400	947.021854286984	0
6	401	948.371087515247	0
6	419	987.453075687167	0
6	420	989.510546709378	0
6	425	1005.189367569506	0
6	426	1005.369531348096	0
6	432	1023.320450005643	0
6	433	1024.397171461141	0
6	437	1024.913558464395	0
6	438	1026.673353020275	0
6	444	1031.671513355563	0
6	445	1038.014820963313	0
6	447	1040.106693722765	0
6	449	1046.858083196316	1
6	450	1048.375322588231	1
6	454	1055.983033979393	1
6	457	1059.47000538214	1
6	460	1061.508684503713	0
6	476	1125.834444860383	0
6	478	1126.073229754912	1
6	479	1126.477490001654	1
6	481	1130.022379586988	1
6	482	1131.908787689623	1
6	483	1136.538593575607	0
6	489	1141.684305339612	0
6	490	1148.146387773811	0
6	495	1151.943478581168	0
6	499	1153.044067096581	1
6	500	1153.479000896369	1
6	501	1155.032315381722	0
6	508	1171.972828433619	0
6	509	1172.104987954277	0
6	520	1194.303568463282	0
6	521	1203.014114649164	0
6	527	1213.120390775644	0
6	529	1213.776412320688	1
6	532	1232.272731899142	1
6	535	1235.041232652496	0
6	539	1242.965419129603	0
6	540	1245.323373674067	0
6	542	1252.671518180385	0
6	543	1255.225239381459	0
6	546	1260.25153521397	0
6	547	1268.351150234496	0
6	561	1295.012015674614	0
6	564	1297.491014173305	0
6	573	1327.222139794696	0
6	574	1330.635919288996	0
6	587	1372.895957883817	0
6	589	1381.917485442831	1
6	595	1389.920731222985	2
6	597	1392.698472785622	3
6	601	1394.746713787062	4
6	602	1396.056267150156	4
6	609	1414.738090457066	3
6	610	1415.530106207058	2
6	611	1416.408636343928	1
6	612	1419.024427001502	0
6	617	1432.553521227889	0
6	621	1436.728348757593	1
6	624	1438.48158529364	1
6	626	1439.464295754499	1
6	628	1443.061154915565	2
6	631	1463.40012634657	2
6	636	1469.190599844431	1
6	640	1470.841717359854	1
6	647	1507.211133384621	1
6	648	1516.080705142843	0
6	651	1526.219174686146	0
6	652	1527.516026152737	0
6	662	1541.672132057119	0
6	663	1544.803983619073	0
6	686	1630.679673971452	0
6	687	1631.654302126021	0
6	698	1655.103665596055	0
6	701	1656.868365600698	0
6	703	1657.053844268986	0
6	705	1659.651746286242	1
6	706	1665.109704175801	1
6	708	1665.733231704901	1
6	709	1667.840444000962	1
6	712	1674.795466350937	0
6	721	1721.3251219319	0
6	723	1724.171842528881	1
6	725	1726.073576885084	2
6	726	1728.779034782952	2
6	729	1734.919932872001	1
6	732	1738.346474404672	0
6	739	1751.590492483728	0
6	744	1756.094376838022	0
6	751	1767.158865982002	0
6	752	1768.824763114033	0
6	754	1771.406341330737	0
6	758	1783.417919866976	1
6	760	1783.722003023927	2
6	762	1791.971053425055	3
6	766	1795.316317058822	4
6	768	1809.741195744578	5
6	771	1818.231034857023	5
6	772	1818.250348188982	4
6	775	1826.992477130964	3
6	776	1840.695817932879	2
6	779	1855.43852217388	1
6	781	1856.116173852789	1
6	788	1871.517957119146	1
6	789	1876.676064526561	0
6	820	1955.565590503443	0
6	821	1962.63125033797	0
6	830	1974.625094548522	0
6	832	1977.29678444029	1
6	834	1979.329242199321	2
6	835	1983.806237198359	2
6	836	1990.398460040159	1
6	841	1996.738028371023	0
6	848	2006.126563464277	0
6	850	2009.768996666181	1
6	852	2024.933254232398	2
6	854	2025.029423131321	3
6	855	2028.449464184251	3
6	856	2029.95785359363	2
6	862	2047.149323694852	2
6	863	2047.418543877403	2
6	865	2059.631904285061	2
6	866	2060.69768523123	2
6	869	2066.899635712965	1
6	870	2069.751707750425	0
6	877	2076.523648562165	0
6	879	2077.975665000054	1
6	880	2078.749028629412	1
6	883	2083.88712587113	0
6	894	2101.625901507583	0
6	895	2109.851484926368	0
6	912	2149.373686329546	0
6	913	2149.754412130102	0
6	915	2153.118579912666	0
6	919	2159.544133062312	1
6	920	2160.633962076127	1
6	921	2163.020374819534	0
6	929	2179.996831832368	0
6	930	2186.353391296864	0
6	938	2197.398710182264	0
6	943	2201.804302794092	0
6	946	2205.942543528282	0
6	953	2215.606734588487	0
6	966	2251.306218299661	0
6	971	2254.473764154896	0
6	985	2270.38284243292	0
6	987	2273.847229097608	1
6	990	2275.680822359809	1
6	991	2279.974690316725	0
6	1011	2332.685519984248	0
6	1012	2334.615881461041	0
6	1031	2366.358492865929	0
6	1032	2367.383314552848	0
6	1036	2389.953426147872	0
6	1037	2399.670697763789	0
6	1039	2400.252778801939	0
6	1040	2402.10911899769	0
6	1056	2447.619588604821	0
6	1062	2452.902374295182	1
6	1066	2454.586400927438	2
6	1072	2457.141402415183	3
6	1077	2464.231854390653	3
6	1082	2479.007104122556	2
6	1083	2481.403433286899	1
6	1085	2483.620657694845	1
6	1086	2488.134526899416	1
6	1087	2489.579530532512	0
6	1089	2491.727201881822	0
7	146	429.805982642391	0
7	151	432.984221837602	2.067364096969
7	160	466.653881971489	0
7	166	480.389168178264	0
7	169	486.411094216088	1.462697001751
7	181	512.001023992162	0
7	188	514.879586108997	0
7	199	535.130219618578	0
7	207	554.221217929245	0
7	211	570.767783391724	0
7	220	588.745989415819	0
7	228	607.322329357257	0
7	232	628.022716239493	0
7	255	674.775076348193	0
7	287	764.470504905106	0
7	298	776.165631073303	1.205035342452
7	302	783.124851826298	0
7	310	791.721574633861	0
7	320	824.780890083904	0
7	335	848.692955585837	0
7	348	870.921734785184	0
7	354	879.673987701764	0
7	361	895.123859609024	0
7	376	906.299857537583	9.211965441655
7	377	908.105310106795	9.576564905365
7	380	910.852113450797	7.933623530947
7	381	914.425395925203	9.631651267165
7	386	930.515101595538	24.57531895575
7	400	947.021854286984	0
7	419	987.453075687167	0
7	425	1005.189367569506	0
7	432	1023.320450005643	0
7	437	1024.913558464395	0
7	444	1031.671513355563	0
7	447	1040.106693722765	0
7	450	1048.375322588231	1.517239391915
7	457	1059.47000538214	3.486971402747
7	476	1125.834444860383	0
7	479	1126.477490001654	0.404260246742
7	482	1131.908787689623	1.886408102635
7	489	1141.684305339612	0
7	495	1151.943478581168	0
7	500	1153.479000896369	0.434933799788
7	508	1171.972828433619	0
7	520	1194.303568463282	0
7	527	1213.120390775644	0
7	532	1232.272731899142	18.496319578454
7	539	1242.965419129603	0
7	542	1252.671518180385	0
7	546	1260.25153521397	0
7	561	1295.012015674614	0
7	573	1327.222139794696	0
7	587	1372.895957883817	0
7	602	1396.056267150156	14.138781707325
7	609	1414.738090457066	24.817359234081
7	610	1415.530106207058	22.831633421436
7	611	1416.408636343928	21.661922556866
7	617	1432.553521227889	0
7	624	1438.48158529364	1.753236536047
7	631	1463.40012634657	23.935830592071
7	636	1469.190599844431	26.129444928866
7	647	1507.211133384621	36.369416024767
7	651	1526.219174686146	0
7	662	1541.672132057119	0
7	686	1630.679673971452	0
7	698	1655.103665596055	0
7	703	1657.053844268986	0
7	706	1665.109704175801	5.457957889559
7	709	1667.840444000962	2.107212296061
7	721	1721.3251219319	0
7	726	1728.779034782952	4.607192254071
7	729	1734.919932872001	8.846355986917
7	739	1751.590492483728	0
7	751	1767.158865982002	0
7	754	1771.406341330737	0
7	771	1818.231034857023	34.813114990047
7	772	1818.250348188982	34.528345165055
7	775	1826.992477130964	35.021423705909
7	776	1840.695817932879	45.379500874057
7	779	1855.43852217388	45.697326429302
7	788	1871.517957119146	15.401783266357
7	820	1955.565590503443	0
7	830	1974.625094548522	0
7	835	1983.806237198359	6.509452758069
7	836	1990.398460040159	11.069217840838
7	848	2006.126563464277	0
7	855	2028.449464184251	18.68046751807
7	856	2029.95785359363	5.024599361232
7	863	2047.418543877403	22.389120746082
7	866	2060.69768523123	13.548361536378
7	869	2066.899635712965	7.267731427904
7	877	2076.523648562165	0
7	880	2078.749028629412	0.773363629358
7	894	2101.625901507583	0
7	912	2149.373686329546	0
7	915	2153.118579912666	0
7	920	2160.633962076127	1.089829013815
7	929	2179.996831832368	0
7	938	2197.398710182264	0
7	946	2205.942543528282	0
7	966	2251.306218299661	0
7	985	2270.38284243292	0
7	990	2275.680822359809	1.833593262201
7	1011	2332.685519984248	0
7	1031	2366.358492865929	0
7	1036	2389.953426147872	0
7	1039	2400.252778801939	0
7	1056	2447.619588604821	0
7	1077	2464.231854390653	11.329480095471
7	1082	2479.007104122556	24.420703195118
7	1083	2481.403433286899	24.262030871716
7	1086	2488.134526899416	4.513869204571
7	1089	2491.727201881822	0
8	151	432.984221837602	13
8	152	434.554170996073	14
8	163	475.495653397419	15
8	169	486.411094216088	16
8	172	488.569346415649	17
8	182	512.027762315935	18
8	189	517.143201628747	19
8	200	535.263615731327	20
8	208	559.767632879121	21
8	212	574.933245943507	22
8	221	589.059750735808	23
8	229	617.797324928868	24
8	235	631.204645763165	25
8	256	676.667032743875	26
8	298	776.165631073303	27
8	299	778.997724206152	28
8	307	787.91011745697	29
8	311	792.586290204544	30
8	321	825.667624364659	31
8	336	851.821214272241	32
8	349	874.405821123253	33
8	355	886.691631618103	34
8	376	906.299857537583	35
8	377	908.105310106795	36
8	380	910.852113450797	37
8	381	914.425395925203	38
8	386	930.515101595538	39
8	389	938.228350439509	40
8	401	948.371087515247	41
8	420	989.510546709378	42
8	426	1005.369531348096	43
8	433	1024.397171461141	44
8	438	1026.673353020275	45
8	445	1038.014820963313	46
8	450	1048.375322588231	47
8	457	1059.47000538214	48
8	460	1061.508684503713	49
8	479	1126.477490001654	50
8	482	1131.908787689623	51
8	483	1136.538593575607	52
8	490	1148.146387773811	53
8	500	1153.479000896369	54
8	501	1155.032315381722	55
8	509	1172.104987954277	56
8	521	1203.014114649164	57
8	532	1232.272731899142	58
8	535	1235.041232652496	59
8	540	1245.323373674067	60
8	543	1255.225239381459	61
8	547	1268.351150234496	62
8	564	1297.491014173305	63
8	574	1330.635919288996	64
8	602	1396.056267150156	65
8	609	1414.738090457066	66
8	610	1415.530106207058	67
8	611	1416.408636343928	68
8	612	1419.024427001502	69
8	624	1438.48158529364	70
8	631	1463.40012634657	71
8	636	1469.190599844431	72
8	647	1507.211133384621	73
8	648	1516.080705142843	74
8	652	1527.516026152737	75
8	663	1544.803983619073	76
8	687	1631.654302126021	77
8	701	1656.868365600698	78
8	706	1665.109704175801	79
8	709	1667.840444000962	80
8	712	1674.795466350937	81
8	726	1728.779034782952	82
8	729	1734.919932872001	83
8	732	1738.346474404672	84
8	744	1756.094376838022	85
8	752	1768.824763114033	86
8	771	1818.231034857023	87
8	772	1818.250348188982	88
8	775	1826.992477130964	89
8	776	1840.695817932879	90
8	779	1855.43852217388	91
8	788	1871.517957119146	92
8	789	1876.676064526561	93
8	821	1962.63125033797	94
8	835	1983.806237198359	95
8	836	1990.398460040159	96
8	841	1996.738028371023	97
8	855	2028.449464184251	98
8	856	2029.95785359363	99
8	863	2047.418543877403	100
8	866	2060.69768523123	101
8	869	2066.899635712965	102
8	870	2069.751707750425	103
8	880	2078.749028629412	104
8	883	2083.88712587113	105
8	895	2109.851484926368	106
8	913	2149.754412130102	107
8	920	2160.633962076127	108
8	921	2163.020374819534	109
8	930	2186.353391296864	110
8	943	2201.804302794092	111
8	953	2215.606734588487	112
8	971	2254.473764154896	113
8	990	2275.680822359809	114
8	991	2279.974690316725	115
8	1012	2334.615881461041	116
8	1032	2367.383314552848	117
8	1037	2399.670697763789	118
8	1040	2402.10911899769	119
8	1077	2464.231854390653	120
8	1082	2479.007104122556	121
8	1083	2481.403433286899	122
8	1086	2488.134526899416	123
8	1087	2489.579530532512	124
9	151	432.984221837602	3.178239195211
9	152	434.554170996073	3.63731325544
9	163	475.495653397419	8.84177142593
9	169	486.411094216088	6.021926037824
9	172	488.569346415649	3.620949201312
9	182	512.027762315935	0.026738323773
9	189	517.143201628747	2.26361551975
9	200	535.263615731327	0.133396112749
9	208	559.767632879121	5.546414949876
9	212	574.933245943507	4.165462551783
9	221	589.059750735808	0.313761319989
9	229	617.797324928868	10.474995571611
9	235	631.204645763165	3.181929523672
9	256	676.667032743875	1.891956395682
9	298	776.165631073303	11.695126168197
9	299	778.997724206152	4.037128475301
9	307	787.91011745697	4.785265630672
9	311	792.586290204544	0.864715570683
9	321	825.667624364659	0.886734280755
9	336	851.821214272241	3.128258686404
9	349	874.405821123253	3.484086338069
9	355	886.691631618103	7.017643916339
9	376	906.299857537583	11.175997928559
9	377	908.105310106795	11.017418010867
9	380	910.852113450797	12.323368249367
9	381	914.425395925203	11.506906005353
9	386	930.515101595538	25.7213569375
9	389	938.228350439509	32.288567799721
9	401	948.371087515247	1.349233228263
9	420	989.510546709378	2.057471022211
9	426	1005.369531348096	0.18016377859
9	433	1024.397171461141	1.076721455498
9	438	1026.673353020275	1.75979455588
9	445	1038.014820963313	6.34330760775
9	450	1048.375322588231	8.268628865466
9	457	1059.47000538214	12.611922185824
9	460	1061.508684503713	5.52565052432
9	479	1126.477490001654	0.643045141271
9	482	1131.908787689623	5.835557934711
9	483	1136.538593575607	6.516213988619
9	490	1148.146387773811	6.462082434199
9	500	1153.479000896369	1.535522315201
9	501	1155.032315381722	1.988248285141
9	509	1172.104987954277	0.132159520658
9	521	1203.014114649164	8.710546185882
9	532	1232.272731899142	19.152341123498
9	535	1235.041232652496	21.264820331808
9	540	1245.323373674067	2.357954544464
9	543	1255.225239381459	2.553721201074
9	547	1268.351150234496	8.099615020526
9	564	1297.491014173305	2.478998498691
9	574	1330.635919288996	3.4137794943
9	602	1396.056267150156	23.160309266339
9	609	1414.738090457066	32.820605014235
9	610	1415.530106207058	25.609374984073
9	611	1416.408636343928	23.710163558306
9	612	1419.024427001502	24.27771321444
9	624	1438.48158529364	5.928064065751
9	631	1463.40012634657	26.671777588977
9	636	1469.190599844431	29.726304089932
9	647	1507.211133384621	64.149978469056
9	648	1516.080705142843	45.238987782989
9	652	1527.516026152737	1.296851466591
9	663	1544.803983619073	3.131851561954
9	687	1631.654302126021	0.974628154569
9	701	1656.868365600698	1.764700004643
9	706	1665.109704175801	8.055859906815
9	709	1667.840444000962	8.18869771472
9	712	1674.795466350937	9.062234646036
9	726	1728.779034782952	7.453912851052
9	729	1734.919932872001	10.74809034312
9	732	1738.346474404672	12.272897519588
9	744	1756.094376838022	4.503884354294
9	752	1768.824763114033	1.665897132031
9	771	1818.231034857023	46.824693526286
9	772	1818.250348188982	34.832428322006
9	775	1826.992477130964	43.270474107037
9	776	1840.695817932879	48.724764507824
9	779	1855.43852217388	60.122205115058
9	788	1871.517957119146	61.776761374568
9	789	1876.676064526561	20.559890673772
9	821	1962.63125033797	7.065659834527
9	835	1983.806237198359	9.181142649837
9	836	1990.398460040159	13.101675599869
9	841	1996.738028371023	17.408786171702
9	855	2028.449464184251	22.322900719974
9	856	2029.95785359363	20.188856927449
9	863	2047.418543877403	22.485289645005
9	866	2060.69768523123	35.668262099909
9	869	2066.899635712965	19.750312018113
9	870	2069.751707750425	10.119803465364
9	880	2078.749028629412	2.225380067247
9	883	2083.88712587113	5.911460871076
9	895	2109.851484926368	8.225583418785
9	913	2149.754412130102	0.380725800556
9	920	2160.633962076127	7.515382163461
9	921	2163.020374819534	3.476241757222
9	930	2186.353391296864	6.356559464496
9	943	2201.804302794092	4.405592611828
9	953	2215.606734588487	9.664191060205
9	971	2254.473764154896	3.167545855235
9	990	2275.680822359809	5.297979926889
9	991	2279.974690316725	6.127461219117
9	1012	2334.615881461041	1.930361476793
9	1032	2367.383314552848	1.024821686919
9	1037	2399.670697763789	9.717271615917
9	1040	2402.10911899769	1.856340195751
9	1077	2464.231854390653	16.612265785832
9	1082	2479.007104122556	26.104729827374
9	1083	2481.403433286899	26.817032359461
9	1086	2488.134526899416	30.993124484233
9	1087	2489.579530532512	5.958872837667
10	160	466.653881971489	9
10	166	480.389168178264	10
10	181	512.001023992162	11
10	188	514.879586108997	12
10	199	535.130219618578	13
10	207	554.221217929245	14
10	211	570.767783391724	15
10	220	588.745989415819	16
10	228	607.322329357257	17
10	232	628.022716239493	18
10	255	674.775076348193	19
10	287	764.470504905106	20
10	302	783.124851826298	21
10	310	791.721574633861	22
10	320	824.780890083904	23
10	335	848.692955585837	24
10	348	870.921734785184	25
10	354	879.673987701764	26
10	361	895.123859609024	27
10	400	947.021854286984	28
10	419	987.453075687167	29
10	425	1005.189367569506	30
10	432	1023.320450005643	31
10	437	1024.913558464395	32
10	444	1031.671513355563	33
10	447	1040.106693722765	34
10	476	1125.834444860383	35
10	489	1141.684305339612	36
10	495	1151.943478581168	37
10	508	1171.972828433619	38
10	520	1194.303568463282	39
10	527	1213.120390775644	40
10	539	1242.965419129603	41
10	542	1252.671518180385	42
10	546	1260.25153521397	43
10	561	1295.012015674614	44
10	573	1327.222139794696	45
10	617	1432.553521227889	46
10	651	1526.219174686146	47
10	662	1541.672132057119	48
10	686	1630.679673971452	49
10	698	1655.103665596055	50
10	703	1657.053844268986	51
10	721	1721.3251219319	52
10	739	1751.590492483728	53
10	751	1767.158865982002	54
10	754	1771.406341330737	55
10	820	1955.565590503443	56
10	830	1974.625094548522	57
10	848	2006.126563464277	58
10	877	2076.523648562165	59
10	894	2101.625901507583	60
10	912	2149.373686329546	61
10	915	2153.118579912666	62
10	929	2179.996831832368	63
10	938	2197.398710182264	64
10	946	2205.942543528282	65
10	966	2251.306218299661	66
10	985	2270.38284243292	67
10	1011	2332.685519984248	68
10	1031	2366.358492865929	69
10	1036	2389.953426147872	70
10	1039	2400.252778801939	71
10	1056	2447.619588604821	72
10	1089	2491.727201881822	73
11	1090	2500	0.0884
12	1090	2500	0.0496

