version 2
run experiments_medium_game_mode1-1781-20230311-09:46:29-17604
attr configname experiments_medium_game_mode1
attr datetime 20230311-09:46:29
attr experiment experiments_medium_game_mode1
attr inifile omnetpp.ini
attr iterationvars "$0=7.5, $1=7, $2=100"
attr iterationvarsf 7.5,7,100-
attr measurement "$0=7.5, $1=7, $2=100"
attr network Network
attr processid 17604
attr repetition 11
attr replication #11
attr resultdir results
attr runnumber 1781
attr seedset 11
param *.boss.arrival_mean 20
param *.boss.service_mean 7.5
param *.minion.arrival_mean 10
param *.minion.service_mean 7
param *.player.recover_rate_x 100
param **.minion.arrival_distribution 0
param **.minion.service_distribution 0
param **.boss.arrival_distribution 0
param **.boss.service_distribution 0

vector 0 Network.player minion_jobs_number_stat:vector ETV
attr source signal_minion_jobs_number
vector 1 Network.player minion_jobs_queue_number_stat:vector ETV
attr source signal_minion_jobs_queue_number
vector 2 Network.player boss_jobs_number_stat:vector ETV
attr source signal_boss_jobs_number
vector 3 Network.player boss_jobs_queue_number_stat:vector ETV
attr source signal_boss_jobs_queue_number
vector 4 Network.player boss_defeated_stat:vector ETV
attr source signal_boss_defeated
vector 5 Network.player boss_response_time_stat:vector ETV
attr source signal_boss_response_time
vector 6 Network.player boss_waiting_time_stat:vector ETV
attr source signal_boss_waiting_time
vector 7 Network.player minion_waiting_time_stat:vector ETV
attr source signal_minion_waiting_time
vector 8 Network.player minion_defeated_stat:vector ETV
attr source signal_minion_defeated
vector 9 Network.player minion_response_time_stat:vector ETV
attr source signal_minion_response_time
vector 10 Network.player minion_recovered_stat:vector ETV
attr source signal_minion_recovered
vector 11 Network.player minion_throughput:vector ETV
attr source signal_minion_throughput
vector 12 Network.player boss_throughput:vector ETV
attr source signal_boss_throughput
0	135	350.303694308731	16
0	139	352.709450616181	17
0	141	359.137739579226	18
0	146	369.266637427107	19
0	148	369.375412817191	20
0	150	370.873719345442	21
0	158	387.024720403828	22
0	160	393.162611874545	23
0	163	394.679426205505	23
0	167	415.383307801732	22
0	170	418.87213829018	22
0	174	421.862269267216	23
0	185	441.130071532625	24
0	189	452.061875109923	24
0	201	468.155898046976	24
0	205	488.009898807156	23
0	209	492.900364237022	24
0	212	494.512010483134	25
0	225	512.775260977005	21
0	227	521.052336852026	22
0	229	525.543254130801	23
0	231	527.276736677588	24
0	243	551.162666912064	21
0	245	553.060902280298	22
0	247	555.656423412936	23
0	249	556.754828330883	24
0	254	563.370178863217	22
0	256	565.638401836711	23
0	260	576.375778673491	22
0	264	582.448947497491	23
0	267	584.883224644294	24
0	269	600.709963063835	25
0	280	640.85141684619	23
0	290	687.76161823421	20
0	294	688.727931328968	21
0	298	705.076370722239	22
0	301	715.9480092005	23
0	303	720.686766845378	24
0	307	723.799091568504	25
0	309	731.050371694015	26
0	311	738.21519073483	27
0	313	738.822238024502	28
0	318	744.068287236785	29
0	329	756.484884622359	27
0	331	761.473385222325	28
0	333	762.226094275914	29
0	346	799.724576325184	28
0	357	821.147247013063	29
0	359	823.801422505266	30
0	363	836.749804546185	31
0	366	853.078903192315	32
0	376	870.998470699558	32
0	382	880.830733923947	32
0	388	893.217435194636	33
0	392	906.668866996905	34
0	394	918.623290573403	35
0	396	919.248349479899	36
0	402	945.855647726051	33
0	404	946.688111488124	34
0	408	968.031123308084	33
0	411	970.152406719344	33
0	413	971.150300432477	34
0	419	988.393433997575	33
0	421	994.490623682818	34
0	429	1027.125225611619	30
0	432	1033.912215976126	30
0	435	1043.308456436593	30
0	437	1044.462267627308	31
0	439	1045.632848180084	32
0	444	1047.302069123249	33
0	446	1047.837859487353	34
0	461	1089.368639708313	25
0	465	1100.071111898213	26
0	471	1103.239614144073	26
0	479	1121.983322707557	27
0	490	1144.728342827038	28
0	500	1167.137292667847	29
0	503	1168.93136648433	30
0	515	1208.632144335726	31
0	517	1210.051908615118	32
0	520	1219.258910902078	32
0	522	1223.076690675915	33
0	525	1234.450591372613	33
0	528	1238.123943579705	33
0	530	1242.928870294732	34
0	534	1248.411639262905	33
0	536	1251.379423845751	34
0	540	1255.399082031035	35
0	542	1263.372586817724	36
0	547	1271.767628511126	37
0	553	1293.504490813738	38
0	557	1294.505840097558	37
0	562	1310.016883361914	38
0	569	1326.010644670228	34
0	571	1326.130165290046	35
0	573	1329.258883718323	36
0	577	1339.996337954665	37
0	586	1364.234255218975	38
0	593	1385.251721740677	39
0	600	1408.453509734647	38
0	602	1410.541351761165	39
0	604	1410.701200519422	40
0	610	1437.916239710075	41
0	616	1457.135986058949	41
0	621	1463.863081362695	39
0	625	1475.121051293377	38
0	627	1485.698678768333	39
0	629	1486.082764281978	40
0	631	1488.654620302366	41
0	633	1492.350019974408	42
0	635	1494.481659191787	43
0	639	1502.788513431867	42
0	642	1521.305385869116	42
0	647	1530.321319216425	43
0	652	1541.740056958835	41
0	656	1553.159850998384	40
0	666	1568.578782640119	39
0	670	1578.587247343035	40
0	673	1589.573930396353	41
0	681	1617.49409152528	39
0	683	1622.843226805875	40
0	687	1636.203787737193	39
0	689	1636.223604907962	40
0	699	1649.882857743454	39
0	701	1652.748665399068	40
0	704	1653.901490038131	40
0	706	1656.281657010804	41
0	709	1663.086637639268	41
0	714	1676.909461828521	41
0	719	1697.064821415371	40
0	726	1713.323205912301	39
0	728	1713.507443854502	40
0	730	1714.315219406149	41
0	732	1716.335202817096	42
0	743	1734.695155229784	40
0	745	1735.890649832329	41
0	747	1738.477290119343	42
0	760	1757.670786796485	43
0	763	1759.030456891294	44
0	765	1759.527130891979	45
0	767	1773.983693338513	46
0	769	1780.903749549798	47
0	776	1790.216823658163	48
0	778	1797.21028462533	49
0	780	1799.390672298627	50
0	786	1813.860765463794	51
0	793	1823.203980516358	52
0	796	1827.473098799169	53
0	801	1841.446792750422	54
0	807	1868.244179735752	51
0	819	1887.669891032764	49
0	821	1891.225302871141	50
0	824	1893.784441518926	51
0	826	1901.79464966945	52
0	828	1903.376461398091	53
0	830	1903.969241316446	54
0	833	1905.924883769131	55
0	835	1914.971144170305	56
0	840	1921.532423523295	57
0	843	1931.833855161237	57
0	855	1961.983118157343	56
0	859	1975.499884752887	57
0	861	1976.122818012844	58
0	863	1977.164348844541	59
0	865	1979.50393054575	60
0	867	1983.731705496404	61
0	879	1999.351922660245	62
0	881	2011.039717619805	63
0	883	2026.168821835072	64
0	886	2028.179732084205	65
0	894	2033.048172808381	66
0	896	2033.073617590761	67
0	904	2050.459045601385	68
0	908	2053.572704547533	69
0	910	2053.957049572369	70
0	913	2065.96774147428	71
0	915	2066.468224913352	72
0	917	2071.897140969689	73
0	921	2095.309211991189	74
0	923	2099.152242455596	75
0	928	2111.494773923332	76
0	930	2113.8798162556	77
0	932	2116.269377278582	78
0	935	2120.023954379216	79
0	937	2123.122902361805	80
0	941	2127.750241830486	79
0	946	2130.078567183926	77
0	948	2131.495155404478	78
0	950	2132.624774988384	79
0	955	2143.935080643314	77
0	958	2150.616198935546	77
0	961	2157.745754046788	77
0	967	2176.601181932338	77
0	975	2196.080128418496	74
0	977	2196.648671677225	75
0	979	2196.652310126947	76
0	981	2197.452306147215	77
0	987	2212.554795247171	75
0	989	2220.065471877854	76
0	992	2235.781844994769	76
0	1001	2247.258262670889	77
0	1003	2247.921152751817	78
0	1009	2262.60975715086	77
0	1012	2268.231280023979	77
0	1020	2284.362463945471	76
0	1023	2288.616964143479	77
0	1025	2288.768008539858	78
0	1032	2307.199077728286	79
0	1036	2320.835344432854	80
0	1043	2327.454243526653	81
0	1045	2334.651959635471	82
0	1047	2337.646540715213	83
0	1062	2382.030018921152	83
0	1064	2383.273477274161	84
0	1066	2384.450095936471	85
0	1069	2394.024967628115	86
0	1072	2397.913866535143	86
0	1076	2402.248345995042	85
0	1082	2423.668402161838	82
0	1085	2430.87271779238	82
0	1087	2431.065062749537	83
0	1089	2435.567579352682	84
0	1095	2447.658637715971	84
0	1103	2487.122538059349	83
1	135	350.303694308731	15
1	139	352.709450616181	16
1	141	359.137739579226	17
1	146	369.266637427107	18
1	148	369.375412817191	19
1	150	370.873719345442	20
1	158	387.024720403828	21
1	160	393.162611874545	22
1	161	393.273873941538	22
1	163	394.679426205505	22
1	164	397.722655901945	22
1	165	409.491287991718	21
1	167	415.383307801732	21
1	168	416.23302902179	21
1	170	418.87213829018	21
1	174	421.862269267216	22
1	185	441.130071532625	23
1	187	449.084912336868	23
1	189	452.061875109923	23
1	199	466.401981781444	23
1	201	468.155898046976	23
1	202	474.228003346983	23
1	203	481.243983566908	22
1	205	488.009898807156	22
1	209	492.900364237022	23
1	212	494.512010483134	24
1	213	497.923340691245	24
1	214	497.959414002327	23
1	215	500.353764306799	22
1	219	506.915320180542	21
1	223	512.116313899761	20
1	225	512.775260977005	20
1	227	521.052336852026	21
1	229	525.543254130801	22
1	231	527.276736677588	23
1	232	530.026169776916	23
1	233	531.828094014191	22
1	234	533.253541525439	21
1	241	549.28974826047	20
1	243	551.162666912064	20
1	245	553.060902280298	21
1	247	555.656423412936	22
1	249	556.754828330883	23
1	250	559.182404348989	23
1	251	561.128912559999	22
1	252	561.702558831889	21
1	254	563.370178863217	21
1	256	565.638401836711	22
1	257	574.267901033157	22
1	258	576.342555559389	21
1	260	576.375778673491	21
1	264	582.448947497491	22
1	267	584.883224644294	23
1	269	600.709963063835	24
1	270	609.947997556288	24
1	271	615.291767053578	23
1	272	615.411462295157	22
1	280	640.85141684619	22
1	281	659.857512961252	22
1	282	660.399769447276	21
1	283	667.443766551693	20
1	284	672.906397217787	19
1	290	687.76161823421	19
1	294	688.727931328968	20
1	298	705.076370722239	21
1	301	715.9480092005	22
1	303	720.686766845378	23
1	307	723.799091568504	24
1	309	731.050371694015	25
1	311	738.21519073483	26
1	313	738.822238024502	27
1	318	744.068287236785	28
1	320	746.678651390318	28
1	321	750.23986524348	27
1	322	751.488822780036	26
1	329	756.484884622359	26
1	331	761.473385222325	27
1	333	762.226094275914	28
1	335	765.670113769229	28
1	336	769.284366701724	27
1	346	799.724576325184	27
1	357	821.147247013063	28
1	359	823.801422505266	29
1	363	836.749804546185	30
1	366	853.078903192315	31
1	371	868.181896587456	31
1	376	870.998470699558	31
1	377	872.172813895873	31
1	382	880.830733923947	31
1	388	893.217435194636	32
1	392	906.668866996905	33
1	394	918.623290573403	34
1	396	919.248349479899	35
1	397	928.378550000218	35
1	398	934.133042114989	34
1	399	938.231099497278	33
1	400	940.245157952136	32
1	402	945.855647726051	32
1	404	946.688111488124	33
1	405	962.123515949638	33
1	406	966.407557813525	32
1	408	968.031123308084	32
1	409	968.265636318599	32
1	411	970.152406719344	32
1	413	971.150300432477	33
1	414	973.971775449295	33
1	415	978.755282406572	32
1	419	988.393433997575	32
1	421	994.490623682818	33
1	423	997.216043081193	33
1	424	1000.620893742618	32
1	425	1001.438528723302	31
1	426	1009.793846293708	30
1	427	1021.281156762974	29
1	429	1027.125225611619	29
1	430	1029.764143405667	29
1	432	1033.912215976126	29
1	433	1040.505984287764	29
1	435	1043.308456436593	29
1	437	1044.462267627308	30
1	439	1045.632848180084	31
1	444	1047.302069123249	32
1	446	1047.837859487353	33
1	447	1052.762531881534	33
1	448	1055.360727810614	32
1	449	1055.468091242451	31
1	453	1065.574246061005	30
1	454	1077.805254930108	29
1	455	1078.828737513411	28
1	456	1083.034839126494	27
1	457	1083.177343069577	26
1	458	1085.596428437065	25
1	459	1086.288513771795	24
1	461	1089.368639708313	24
1	465	1100.071111898213	25
1	467	1101.473982905186	25
1	471	1103.239614144073	25
1	479	1121.983322707557	26
1	490	1144.728342827038	27
1	500	1167.137292667847	28
1	503	1168.93136648433	29
1	515	1208.632144335726	30
1	517	1210.051908615118	31
1	518	1213.757606759199	31
1	520	1219.258910902078	31
1	522	1223.076690675915	32
1	523	1226.008160166527	32
1	525	1234.450591372613	32
1	526	1235.485062240521	32
1	528	1238.123943579705	32
1	530	1242.928870294732	33
1	531	1246.392759960217	33
1	532	1247.302980784336	32
1	534	1248.411639262905	32
1	536	1251.379423845751	33
1	540	1255.399082031035	34
1	542	1263.372586817724	35
1	547	1271.767628511126	36
1	553	1293.504490813738	37
1	554	1293.74642305156	37
1	555	1294.231410470795	36
1	557	1294.505840097558	36
1	562	1310.016883361914	37
1	563	1315.915975031332	37
1	564	1317.338949632954	36
1	565	1323.803670300851	35
1	566	1325.126275644177	34
1	567	1325.528643778076	33
1	569	1326.010644670228	33
1	571	1326.130165290046	34
1	573	1329.258883718323	35
1	577	1339.996337954665	36
1	586	1364.234255218975	37
1	593	1385.251721740677	38
1	595	1394.602581053485	38
1	596	1400.547429033732	37
1	600	1408.453509734647	37
1	602	1410.541351761165	38
1	604	1410.701200519422	39
1	610	1437.916239710075	40
1	614	1450.131235693757	40
1	616	1457.135986058949	40
1	617	1457.241793006353	40
1	618	1458.912770907785	39
1	619	1462.816149328533	38
1	621	1463.863081362695	38
1	622	1464.842219666065	38
1	623	1469.225482206663	37
1	625	1475.121051293377	37
1	627	1485.698678768333	38
1	629	1486.082764281978	39
1	631	1488.654620302366	40
1	633	1492.350019974408	41
1	635	1494.481659191787	42
1	636	1498.187664441537	42
1	637	1498.389016451364	41
1	639	1502.788513431867	41
1	640	1506.338754709661	41
1	642	1521.305385869116	41
1	647	1530.321319216425	42
1	648	1531.755987258894	42
1	649	1537.267805542622	41
1	650	1537.732072791747	40
1	652	1541.740056958835	40
1	653	1547.872613044699	40
1	654	1551.979937326533	39
1	656	1553.159850998384	39
1	657	1560.91330984834	39
1	658	1562.537643127874	38
1	666	1568.578782640119	38
1	670	1578.587247343035	39
1	673	1589.573930396353	40
1	674	1603.812316418834	40
1	675	1606.538665933775	39
1	676	1614.174252042983	38
1	681	1617.49409152528	38
1	683	1622.843226805875	39
1	684	1624.122666361734	39
1	685	1630.912274882071	38
1	687	1636.203787737193	38
1	689	1636.223604907962	39
1	690	1639.924069519454	39
1	697	1649.047287510386	38
1	699	1649.882857743454	38
1	701	1652.748665399068	39
1	702	1653.469446383697	39
1	704	1653.901490038131	39
1	706	1656.281657010804	40
1	707	1662.926359956038	40
1	709	1663.086637639268	40
1	710	1664.381952881501	40
1	714	1676.909461828521	40
1	716	1683.382840059889	40
1	717	1685.843531911471	39
1	719	1697.064821415371	39
1	723	1705.01579311131	39
1	724	1706.073114757548	38
1	726	1713.323205912301	38
1	728	1713.507443854502	39
1	730	1714.315219406149	40
1	732	1716.335202817096	41
1	739	1729.543592245576	41
1	740	1730.853214219529	40
1	741	1732.422650167481	39
1	743	1734.695155229784	39
1	745	1735.890649832329	40
1	747	1738.477290119343	41
1	760	1757.670786796485	42
1	763	1759.030456891294	43
1	765	1759.527130891979	44
1	767	1773.983693338513	45
1	769	1780.903749549798	46
1	776	1790.216823658163	47
1	778	1797.21028462533	48
1	780	1799.390672298627	49
1	786	1813.860765463794	50
1	793	1823.203980516358	51
1	796	1827.473098799169	52
1	801	1841.446792750422	53
1	802	1842.604628684391	53
1	803	1843.835767325762	52
1	804	1859.398934778073	51
1	805	1861.944965580709	50
1	807	1868.244179735752	50
1	808	1872.840102164951	50
1	809	1875.627742052141	49
1	810	1882.126200439536	48
1	819	1887.669891032764	48
1	821	1891.225302871141	49
1	824	1893.784441518926	50
1	826	1901.79464966945	51
1	828	1903.376461398091	52
1	830	1903.969241316446	53
1	833	1905.924883769131	54
1	835	1914.971144170305	55
1	840	1921.532423523295	56
1	841	1930.90526499827	56
1	843	1931.833855161237	56
1	844	1936.144864434946	56
1	845	1945.391544374644	55
1	855	1961.983118157343	55
1	859	1975.499884752887	56
1	861	1976.122818012844	57
1	863	1977.164348844541	58
1	865	1979.50393054575	59
1	867	1983.731705496404	60
1	879	1999.351922660245	61
1	881	2011.039717619805	62
1	883	2026.168821835072	63
1	886	2028.179732084205	64
1	894	2033.048172808381	65
1	896	2033.073617590761	66
1	904	2050.459045601385	67
1	908	2053.572704547533	68
1	910	2053.957049572369	69
1	913	2065.96774147428	70
1	915	2066.468224913352	71
1	917	2071.897140969689	72
1	921	2095.309211991189	73
1	923	2099.152242455596	74
1	928	2111.494773923332	75
1	930	2113.8798162556	76
1	932	2116.269377278582	77
1	935	2120.023954379216	78
1	937	2123.122902361805	79
1	938	2124.583743817166	79
1	939	2124.865268464286	78
1	941	2127.750241830486	78
1	942	2128.229635244176	78
1	943	2129.44979592357	77
1	944	2129.808317544592	76
1	946	2130.078567183926	76
1	948	2131.495155404478	77
1	950	2132.624774988384	78
1	951	2139.57159747479	78
1	952	2140.036312650538	77
1	953	2140.892858924494	76
1	955	2143.935080643314	76
1	956	2145.008701575277	76
1	958	2150.616198935546	76
1	959	2152.464110829318	76
1	961	2157.745754046788	76
1	962	2165.282234485067	76
1	967	2176.601181932338	76
1	968	2180.837400599181	76
1	969	2186.545163894702	75
1	970	2188.843745446583	74
1	971	2190.015167450095	73
1	975	2196.080128418496	73
1	977	2196.648671677225	74
1	979	2196.652310126947	75
1	981	2197.452306147215	76
1	983	2198.599757736549	76
1	984	2208.683403285126	75
1	985	2211.38917708941	74
1	987	2212.554795247171	74
1	989	2220.065471877854	75
1	990	2223.838657843389	75
1	992	2235.781844994769	75
1	1001	2247.258262670889	76
1	1003	2247.921152751817	77
1	1006	2259.862920583705	77
1	1007	2259.9941472405	76
1	1009	2262.60975715086	76
1	1010	2266.987956381154	76
1	1012	2268.231280023979	76
1	1013	2276.069492328884	76
1	1014	2281.844645806519	75
1	1020	2284.362463945471	75
1	1023	2288.616964143479	76
1	1025	2288.768008539858	77
1	1032	2307.199077728286	78
1	1036	2320.835344432854	79
1	1043	2327.454243526653	80
1	1045	2334.651959635471	81
1	1047	2337.646540715213	82
1	1058	2377.815714610935	82
1	1062	2382.030018921152	82
1	1064	2383.273477274161	83
1	1066	2384.450095936471	84
1	1069	2394.024967628115	85
1	1070	2396.979650621045	85
1	1072	2397.913866535143	85
1	1073	2398.928553884437	85
1	1074	2399.087942908762	84
1	1076	2402.248345995042	84
1	1077	2407.168061602719	84
1	1078	2412.191422555673	83
1	1079	2412.969781065264	82
1	1080	2418.117308495639	81
1	1082	2423.668402161838	81
1	1083	2424.605907863289	81
1	1085	2430.87271779238	81
1	1087	2431.065062749537	82
1	1089	2435.567579352682	83
1	1090	2436.938248583319	83
1	1095	2447.658637715971	83
1	1096	2449.241730111193	83
1	1097	2473.485775846537	82
1	1103	2487.122538059349	82
2	137	350.810908640399	3
2	143	362.43827406384	4
2	152	372.457831806101	4
2	172	421.231036863725	1
2	176	422.258155636236	2
2	180	434.397689262197	1
2	183	439.610663971992	1
2	191	453.793526523054	1
2	194	457.822166656212	1
2	196	459.596779139852	2
2	207	490.031856445978	1
2	217	501.146565597212	1
2	221	507.998940490456	1
2	236	535.385086866618	1
2	238	536.647697750317	2
2	262	577.008063714078	1
2	274	625.155745667831	1
2	277	632.977105340681	1
2	286	682.961103942653	1
2	288	685.159062044213	2
2	292	688.41788609212	3
2	305	720.818567622802	1
2	316	742.34700746987	1
2	324	752.391989375619	1
2	327	755.897324484502	1
2	338	775.662088383508	1
2	341	790.080534832881	1
2	343	790.813576755962	2
2	348	807.051325263327	2
2	350	814.182191414584	3
2	353	819.651339178744	3
2	355	820.627860029246	4
2	368	860.996806993361	2
2	373	870.307832749627	1
2	379	874.759940419569	1
2	384	880.847424649465	1
2	386	893.070156380368	2
2	417	986.254666555407	1
2	441	1045.839946687533	1
2	451	1055.895288500736	1
2	463	1094.128034977528	1
2	469	1101.478109745127	1
2	473	1103.51526631821	2
2	475	1108.512747814944	3
2	477	1112.452693155669	4
2	482	1126.078054653729	4
2	484	1137.278937592869	5
2	487	1138.471287941422	5
2	494	1150.749150558914	3
2	496	1157.590509079489	4
2	498	1163.830009180747	5
2	505	1169.18630106408	5
2	508	1188.666672010308	5
2	538	1254.837442024195	1
2	544	1264.436041734011	2
2	550	1283.561317743566	1
2	559	1294.924141858317	1
2	575	1334.618986807489	1
2	579	1351.449230121806	2
2	581	1353.337317539997	3
2	584	1364.007868382867	3
2	588	1367.234470496	4
2	598	1407.623308105574	1
2	607	1429.953231197204	1
2	612	1445.290017857441	1
2	644	1522.546985036706	1
2	660	1564.732089783015	1
2	662	1565.20203831387	2
2	664	1567.158129871605	3
2	678	1614.815752662296	1
2	692	1641.723510214391	1
2	694	1642.919599835408	2
2	712	1672.309207478826	1
2	721	1700.493543879694	1
2	734	1725.771804747797	1
2	736	1727.107486985558	2
2	749	1741.765106934903	1
2	752	1747.672227176383	1
2	754	1750.165771003638	2
2	758	1753.882913231852	1
2	771	1785.856777205899	1
2	774	1790.198200156219	1
2	782	1801.790227424367	2
2	784	1804.043678835036	3
2	789	1816.226235181707	3
2	798	1830.93854574318	1
2	812	1884.186922687865	1
2	814	1884.312240102275	2
2	816	1884.679389480801	3
2	837	1915.950055390832	1
2	847	1947.126132806161	1
2	849	1950.112634598494	2
2	851	1951.560215154763	3
2	853	1953.826841268356	4
2	857	1975.34125048369	5
2	869	1986.569639472766	6
2	871	1989.237686142385	7
2	875	1994.180594181578	6
2	877	1996.175709749868	7
2	888	2032.315413499591	7
2	890	2032.713617515447	8
2	892	2032.831458324909	9
2	902	2050.075995185237	6
2	906	2053.286951205201	7
2	964	2166.547424019246	1
2	973	2190.516773128762	1
2	994	2238.342644924639	1
2	997	2241.536865042855	1
2	999	2242.466596596854	2
2	1016	2283.392076793466	1
2	1018	2283.943439539722	2
2	1027	2298.37380560479	2
2	1030	2304.187980098955	2
2	1034	2315.248738444814	3
2	1038	2320.865879407701	4
2	1040	2321.248891173496	5
2	1049	2341.447019352221	5
2	1054	2355.084277993321	3
2	1060	2379.095213703034	1
2	1092	2437.703142205419	1
2	1099	2475.022752058164	1
2	1101	2483.50970015636	2
2	1105	2493.644976029564	3
3	137	350.810908640399	2
3	143	362.43827406384	3
3	144	368.393030503189	3
3	152	372.457831806101	3
3	153	376.172191245153	3
3	154	379.948206751657	2
3	155	383.964151043836	1
3	156	386.709053379076	0
3	172	421.231036863725	0
3	176	422.258155636236	1
3	177	430.41314445729	1
3	178	432.37928207229	0
3	180	434.397689262197	0
3	181	436.52187322389	0
3	183	439.610663971992	0
3	186	447.157219148443	0
3	191	453.793526523054	0
3	192	456.011307072538	0
3	194	457.822166656212	0
3	196	459.596779139852	1
3	197	463.233899445139	1
3	198	463.416181902912	0
3	207	490.031856445978	0
3	210	493.857971938583	0
3	217	501.146565597212	0
3	218	501.92615992487	0
3	221	507.998940490456	0
3	222	511.281195018023	0
3	236	535.385086866618	0
3	238	536.647697750317	1
3	239	538.064826459195	1
3	240	548.850239549268	0
3	262	577.008063714078	0
3	265	584.688296005219	0
3	274	625.155745667831	0
3	275	625.553209140293	0
3	277	632.977105340681	0
3	278	635.893965899552	0
3	286	682.961103942653	0
3	288	685.159062044213	1
3	292	688.41788609212	2
3	295	692.876920426129	2
3	296	694.415722782643	1
3	299	705.43386905372	0
3	305	720.818567622802	0
3	314	739.502937298963	0
3	316	742.34700746987	0
3	319	744.895344158838	0
3	324	752.391989375619	0
3	325	754.761786262916	0
3	327	755.897324484502	0
3	334	764.849928208871	0
3	338	775.662088383508	0
3	339	778.058958747431	0
3	341	790.080534832881	0
3	343	790.813576755962	1
3	344	795.421519941793	1
3	348	807.051325263327	1
3	350	814.182191414584	2
3	351	818.582462649431	2
3	353	819.651339178744	2
3	355	820.627860029246	3
3	360	830.878521685171	3
3	361	831.898153919684	2
3	364	851.151393782339	1
3	368	860.996806993361	1
3	369	861.466992563375	1
3	370	864.873799713528	0
3	373	870.307832749627	0
3	374	870.347220661234	0
3	379	874.759940419569	0
3	380	880.160304451875	0
3	384	880.847424649465	0
3	386	893.070156380368	1
3	389	895.423280475422	1
3	390	906.104624211632	0
3	417	986.254666555407	0
3	422	995.184042990994	0
3	441	1045.839946687533	0
3	442	1046.875012066064	0
3	451	1055.895288500736	0
3	452	1061.934694899474	0
3	463	1094.128034977528	0
3	466	1100.082937838483	0
3	469	1101.478109745127	0
3	473	1103.51526631821	1
3	475	1108.512747814944	2
3	477	1112.452693155669	3
3	480	1122.005626597044	3
3	482	1126.078054653729	3
3	484	1137.278937592869	4
3	485	1137.781731923654	4
3	487	1138.471287941422	4
3	488	1143.172120066934	4
3	491	1148.098514156792	3
3	492	1149.565087031018	2
3	494	1150.749150558914	2
3	496	1157.590509079489	3
3	498	1163.830009180747	4
3	501	1167.595896876376	4
3	505	1169.18630106408	4
3	506	1173.368934795788	4
3	508	1188.666672010308	4
3	509	1191.062466632355	4
3	510	1193.667780709837	3
3	511	1193.885062669294	2
3	512	1193.965002563939	1
3	513	1198.482433238837	0
3	538	1254.837442024195	0
3	544	1264.436041734011	1
3	545	1270.980806911744	1
3	548	1274.175356750639	0
3	550	1283.561317743566	0
3	551	1291.573628300029	0
3	559	1294.924141858317	0
3	560	1308.045273452758	0
3	575	1334.618986807489	0
3	579	1351.449230121806	1
3	581	1353.337317539997	2
3	582	1356.007001958274	2
3	584	1364.007868382867	2
3	588	1367.234470496	3
3	589	1369.900496765513	3
3	590	1380.147576112653	2
3	591	1383.389620486534	1
3	594	1385.721345844316	0
3	598	1407.623308105574	0
3	605	1427.339877659879	0
3	607	1429.953231197204	0
3	608	1433.322246878285	0
3	612	1445.290017857441	0
3	613	1448.070104942151	0
3	644	1522.546985036706	0
3	645	1528.152488071848	0
3	660	1564.732089783015	0
3	662	1565.20203831387	1
3	664	1567.158129871605	2
3	667	1570.426028838351	2
3	668	1576.363098277249	1
3	671	1578.965658699617	0
3	678	1614.815752662296	0
3	679	1617.060576552435	0
3	692	1641.723510214391	0
3	694	1642.919599835408	1
3	695	1643.267952080219	1
3	696	1644.707436020443	0
3	712	1672.309207478826	0
3	715	1682.843739866573	0
3	721	1700.493543879694	0
3	722	1703.849025092428	0
3	734	1725.771804747797	0
3	736	1727.107486985558	1
3	737	1727.713869897604	1
3	738	1728.846631284498	0
3	749	1741.765106934903	0
3	750	1743.000647281146	0
3	752	1747.672227176383	0
3	754	1750.165771003638	1
3	755	1751.368130184625	1
3	756	1752.223211750958	0
3	758	1753.882913231852	0
3	761	1758.671269779061	0
3	771	1785.856777205899	0
3	772	1786.471983982686	0
3	774	1790.198200156219	0
3	782	1801.790227424367	1
3	784	1804.043678835036	2
3	787	1816.209704671637	2
3	789	1816.226235181707	2
3	790	1820.473339084582	2
3	791	1821.653221929485	1
3	794	1824.851084081561	0
3	798	1830.93854574318	0
3	799	1836.354077625689	0
3	812	1884.186922687865	0
3	814	1884.312240102275	1
3	816	1884.679389480801	2
3	817	1887.636002634518	2
3	822	1893.261294484353	1
3	831	1905.192464036658	0
3	837	1915.950055390832	0
3	838	1918.681498660802	0
3	847	1947.126132806161	0
3	849	1950.112634598494	1
3	851	1951.560215154763	2
3	853	1953.826841268356	3
3	857	1975.34125048369	4
3	869	1986.569639472766	5
3	871	1989.237686142385	6
3	872	1990.884558549833	6
3	873	1992.189305503359	5
3	875	1994.180594181578	5
3	877	1996.175709749868	6
3	884	2026.303446077013	6
3	888	2032.315413499591	6
3	890	2032.713617515447	7
3	892	2032.831458324909	8
3	897	2033.117940033021	8
3	898	2046.296235881305	7
3	899	2047.117577742288	6
3	900	2049.823111130947	5
3	902	2050.075995185237	5
3	906	2053.286951205201	6
3	911	2056.117494966578	6
3	918	2086.27018870173	5
3	919	2089.932134718383	4
3	924	2100.067486483958	3
3	925	2100.731442642589	2
3	926	2111.10983115589	1
3	933	2117.301339793718	0
3	964	2166.547424019246	0
3	965	2175.320393570881	0
3	973	2190.516773128762	0
3	982	2198.349231371773	0
3	994	2238.342644924639	0
3	995	2240.769650340048	0
3	997	2241.536865042855	0
3	999	2242.466596596854	1
3	1004	2249.670719917743	1
3	1005	2251.338333394137	0
3	1016	2283.392076793466	0
3	1018	2283.943439539722	1
3	1021	2284.965476743911	1
3	1027	2298.37380560479	1
3	1028	2302.545062690931	1
3	1030	2304.187980098955	1
3	1034	2315.248738444814	2
3	1038	2320.865879407701	3
3	1040	2321.248891173496	4
3	1041	2325.656200474155	4
3	1049	2341.447019352221	4
3	1050	2344.318516923168	4
3	1051	2344.774802918969	3
3	1052	2348.820923935502	2
3	1054	2355.084277993321	2
3	1055	2364.735801349216	2
3	1056	2366.082455522881	1
3	1057	2377.567639595982	0
3	1060	2379.095213703034	0
3	1067	2386.705511204695	0
3	1092	2437.703142205419	0
3	1093	2439.885572900756	0
3	1099	2475.022752058164	0
3	1101	2483.50970015636	1
3	1105	2493.644976029564	2
4	144	368.393030503189	12
4	153	376.172191245153	13
4	154	379.948206751657	14
4	155	383.964151043836	15
4	156	386.709053379076	16
4	177	430.41314445729	17
4	178	432.37928207229	18
4	181	436.52187322389	19
4	186	447.157219148443	20
4	192	456.011307072538	21
4	197	463.233899445139	22
4	198	463.416181902912	23
4	210	493.857971938583	24
4	218	501.92615992487	25
4	222	511.281195018023	26
4	239	538.064826459195	27
4	240	548.850239549268	28
4	265	584.688296005219	29
4	275	625.553209140293	30
4	278	635.893965899552	31
4	295	692.876920426129	32
4	296	694.415722782643	33
4	299	705.43386905372	34
4	314	739.502937298963	35
4	319	744.895344158838	36
4	325	754.761786262916	37
4	334	764.849928208871	38
4	339	778.058958747431	39
4	344	795.421519941793	40
4	351	818.582462649431	41
4	360	830.878521685171	42
4	361	831.898153919684	43
4	364	851.151393782339	44
4	369	861.466992563375	45
4	370	864.873799713528	46
4	374	870.347220661234	47
4	380	880.160304451875	48
4	389	895.423280475422	49
4	390	906.104624211632	50
4	422	995.184042990994	51
4	442	1046.875012066064	52
4	452	1061.934694899474	53
4	466	1100.082937838483	54
4	480	1122.005626597044	55
4	485	1137.781731923654	56
4	488	1143.172120066934	57
4	491	1148.098514156792	58
4	492	1149.565087031018	59
4	501	1167.595896876376	60
4	506	1173.368934795788	61
4	509	1191.062466632355	62
4	510	1193.667780709837	63
4	511	1193.885062669294	64
4	512	1193.965002563939	65
4	513	1198.482433238837	66
4	545	1270.980806911744	67
4	548	1274.175356750639	68
4	551	1291.573628300029	69
4	560	1308.045273452758	70
4	582	1356.007001958274	71
4	589	1369.900496765513	72
4	590	1380.147576112653	73
4	591	1383.389620486534	74
4	594	1385.721345844316	75
4	605	1427.339877659879	76
4	608	1433.322246878285	77
4	613	1448.070104942151	78
4	645	1528.152488071848	79
4	667	1570.426028838351	80
4	668	1576.363098277249	81
4	671	1578.965658699617	82
4	679	1617.060576552435	83
4	695	1643.267952080219	84
4	696	1644.707436020443	85
4	715	1682.843739866573	86
4	722	1703.849025092428	87
4	737	1727.713869897604	88
4	738	1728.846631284498	89
4	750	1743.000647281146	90
4	755	1751.368130184625	91
4	756	1752.223211750958	92
4	761	1758.671269779061	93
4	772	1786.471983982686	94
4	787	1816.209704671637	95
4	790	1820.473339084582	96
4	791	1821.653221929485	97
4	794	1824.851084081561	98
4	799	1836.354077625689	99
4	817	1887.636002634518	100
4	822	1893.261294484353	101
4	831	1905.192464036658	102
4	838	1918.681498660802	103
4	872	1990.884558549833	104
4	873	1992.189305503359	105
4	884	2026.303446077013	106
4	897	2033.117940033021	107
4	898	2046.296235881305	108
4	899	2047.117577742288	109
4	900	2049.823111130947	110
4	911	2056.117494966578	111
4	918	2086.27018870173	112
4	919	2089.932134718383	113
4	924	2100.067486483958	114
4	925	2100.731442642589	115
4	926	2111.10983115589	116
4	933	2117.301339793718	117
4	965	2175.320393570881	118
4	982	2198.349231371773	119
4	995	2240.769650340048	120
4	1004	2249.670719917743	121
4	1005	2251.338333394137	122
4	1021	2284.965476743911	123
4	1028	2302.545062690931	124
4	1041	2325.656200474155	125
4	1050	2344.318516923168	126
4	1051	2344.774802918969	127
4	1052	2348.820923935502	128
4	1055	2364.735801349216	129
4	1056	2366.082455522881	130
4	1057	2377.567639595982	131
4	1067	2386.705511204695	132
4	1093	2439.885572900756	133
5	144	368.393030503189	20.290616870456
5	153	376.172191245153	27.193551570952
5	154	379.948206751657	29.137298111258
5	155	383.964151043836	21.525876979996
5	156	386.709053379076	14.251221572975
5	177	430.41314445729	9.182107593565
5	178	432.37928207229	10.121126436054
5	181	436.52187322389	2.124183961693
5	186	447.157219148443	7.546555176451
5	192	456.011307072538	2.217780549484
5	197	463.233899445139	5.411732788927
5	198	463.416181902912	3.81940276306
5	210	493.857971938583	3.826115492605
5	218	501.92615992487	0.779594327658
5	222	511.281195018023	3.282254527567
5	239	538.064826459195	2.679739592577
5	240	548.850239549268	12.202541798951
5	265	584.688296005219	7.680232291141
5	275	625.553209140293	0.397463472462
5	278	635.893965899552	2.916860558871
5	295	692.876920426129	9.915816483476
5	296	694.415722782643	9.25666073843
5	299	705.43386905372	17.0159829616
5	314	739.502937298963	18.684369676161
5	319	744.895344158838	2.548336688968
5	325	754.761786262916	2.369796887297
5	334	764.849928208871	8.952603724369
5	339	778.058958747431	2.396870363923
5	344	795.421519941793	5.340985108912
5	351	818.582462649431	27.768885893469
5	360	830.878521685171	23.827196421844
5	361	831.898153919684	17.7159625051
5	364	851.151393782339	31.500054603595
5	369	861.466992563375	40.839132534129
5	370	864.873799713528	3.876992720167
5	374	870.347220661234	0.039387911607
5	380	880.160304451875	5.400364032306
5	389	895.423280475422	14.575855825957
5	390	906.104624211632	13.034467831264
5	422	995.184042990994	8.929376435587
5	442	1046.875012066064	1.035065378531
5	452	1061.934694899474	6.039406398738
5	466	1100.082937838483	5.954902860955
5	480	1122.005626597044	20.527516851917
5	485	1137.781731923654	34.266465605444
5	488	1143.172120066934	34.65937225199
5	491	1148.098514156792	35.645821001123
5	492	1149.565087031018	23.487032377289
5	501	1167.595896876376	30.316959283507
5	506	1173.368934795788	34.897646854366
5	509	1191.062466632355	40.313316073441
5	510	1193.667780709837	36.077271630348
5	511	1193.885062669294	30.055053488547
5	512	1193.965002563939	24.778701499859
5	513	1198.482433238837	9.815761228529
5	545	1270.980806911744	16.143364887549
5	548	1274.175356750639	9.739315016628
5	551	1291.573628300029	8.012310556463
5	560	1308.045273452758	13.121131594441
5	582	1356.007001958274	21.388015150785
5	589	1369.900496765513	18.451266643707
5	590	1380.147576112653	26.810258572656
5	591	1383.389620486534	19.381752103667
5	594	1385.721345844316	18.486875348316
5	605	1427.339877659879	19.716569554305
5	608	1433.322246878285	3.369015681081
5	613	1448.070104942151	2.78008708471
5	645	1528.152488071848	5.605503035142
5	667	1570.426028838351	5.693939055336
5	668	1576.363098277249	11.161059963379
5	671	1578.965658699617	11.807528828012
5	679	1617.060576552435	2.244823890139
5	695	1643.267952080219	1.544441865828
5	696	1644.707436020443	1.787836185035
5	715	1682.843739866573	10.534532387747
5	722	1703.849025092428	3.355481212734
5	737	1727.713869897604	1.942065149807
5	738	1728.846631284498	1.73914429894
5	750	1743.000647281146	1.235540346243
5	755	1751.368130184625	3.695903008242
5	756	1752.223211750958	2.05744074732
5	761	1758.671269779061	4.788356547209
5	772	1786.471983982686	0.615206776787
5	787	1816.209704671637	26.011504515418
5	790	1820.473339084582	18.683111660215
5	791	1821.653221929485	17.609543094449
5	794	1824.851084081561	8.624848899854
5	799	1836.354077625689	5.415531882509
5	817	1887.636002634518	3.449079946653
5	822	1893.261294484353	8.949054382078
5	831	1905.192464036658	20.513074555857
5	838	1918.681498660802	2.73144326997
5	872	1990.884558549833	43.758425743672
5	873	1992.189305503359	42.076670904865
5	884	2026.303446077013	74.74323092225
5	897	2033.117940033021	79.291098764665
5	898	2046.296235881305	70.954985397615
5	899	2047.117577742288	60.547938269522
5	900	2049.823111130947	60.585424988562
5	911	2056.117494966578	61.936900785
5	918	2086.27018870173	90.094478951862
5	919	2089.932134718383	57.616721218792
5	924	2100.067486483958	67.353868968511
5	925	2100.731442642589	67.89998431768
5	926	2111.10983115589	61.033835970653
5	933	2117.301339793718	64.014388588517
5	965	2175.320393570881	8.772969551635
5	982	2198.349231371773	7.832458243011
5	995	2240.769650340048	2.427005415409
5	1004	2249.670719917743	8.133854874888
5	1005	2251.338333394137	8.871736797283
5	1021	2284.965476743911	1.573399950445
5	1028	2302.545062690931	18.601623151209
5	1041	2325.656200474155	27.282394869365
5	1050	2344.318516923168	40.130536824213
5	1051	2344.774802918969	29.526064474155
5	1052	2348.820923935502	27.955044527801
5	1055	2364.735801349216	43.48691017572
5	1056	2366.082455522881	24.63543617066
5	1057	2377.567639595982	22.483361602661
5	1067	2386.705511204695	7.610297501661
5	1093	2439.885572900756	2.182430695337
6	144	368.393030503189	19.414390828988
6	153	376.172191245153	25.361282604754
6	154	379.948206751657	17.509932687817
6	155	383.964151043836	11.506319237735
6	172	421.231036863725	0
6	177	430.41314445729	8.154988821054
6	180	434.397689262197	0
6	183	439.610663971992	0
6	191	453.793526523054	0
6	194	457.822166656212	0
6	197	463.233899445139	3.637120305287
6	207	490.031856445978	0
6	217	501.146565597212	0
6	221	507.998940490456	0
6	236	535.385086866618	0
6	239	538.064826459195	1.417128708878
6	262	577.008063714078	0
6	274	625.155745667831	0
6	277	632.977105340681	0
6	286	682.961103942653	0
6	295	692.876920426129	7.717858381916
6	296	694.415722782643	5.997836690523
6	305	720.818567622802	0
6	316	742.34700746987	0
6	324	752.391989375619	0
6	327	755.897324484502	0
6	338	775.662088383508	0
6	341	790.080534832881	0
6	344	795.421519941793	4.607943185831
6	351	818.582462649431	11.531137386104
6	360	830.878521685171	16.696330270587
6	361	831.898153919684	12.24681474094
6	364	851.151393782339	30.523533753093
6	369	861.466992563375	0.470185570014
6	373	870.307832749627	0
6	379	874.759940419569	0
6	384	880.847424649465	0
6	389	895.423280475422	2.353124095054
6	417	986.254666555407	0
6	441	1045.839946687533	0
6	451	1055.895288500736	0
6	463	1094.128034977528	0
6	469	1101.478109745127	0
6	480	1122.005626597044	18.490360278834
6	485	1137.781731923654	29.26898410871
6	488	1143.172120066934	30.719426911265
6	491	1148.098514156792	22.020459503063
6	492	1149.565087031018	12.286149438149
6	501	1167.595896876376	29.124608934954
6	506	1173.368934795788	22.619784236874
6	509	1191.062466632355	33.471957552866
6	510	1193.667780709837	29.83777152909
6	511	1193.885062669294	24.698761605214
6	512	1193.965002563939	5.298330553631
6	538	1254.837442024195	0
6	545	1270.980806911744	6.544765177733
6	550	1283.561317743566	0
6	559	1294.924141858317	0
6	575	1334.618986807489	0
6	582	1356.007001958274	4.557771836468
6	589	1369.900496765513	16.563179225516
6	590	1380.147576112653	16.139707729786
6	591	1383.389620486534	16.155149990534
6	598	1407.623308105574	0
6	607	1429.953231197204	0
6	612	1445.290017857441	0
6	644	1522.546985036706	0
6	660	1564.732089783015	0
6	667	1570.426028838351	5.223990524481
6	668	1576.363098277249	9.204968405644
6	678	1614.815752662296	0
6	692	1641.723510214391	0
6	695	1643.267952080219	0.348352244811
6	712	1672.309207478826	0
6	721	1700.493543879694	0
6	734	1725.771804747797	0
6	737	1727.713869897604	0.606382912046
6	749	1741.765106934903	0
6	752	1747.672227176383	0
6	755	1751.368130184625	1.202359180987
6	758	1753.882913231852	0
6	771	1785.856777205899	0
6	774	1790.198200156219	0
6	787	1816.209704671637	14.41947724727
6	790	1820.473339084582	16.429660249546
6	791	1821.653221929485	5.426986747778
6	798	1830.93854574318	0
6	812	1884.186922687865	0
6	817	1887.636002634518	3.323762532243
6	822	1893.261294484353	8.581905003552
6	837	1915.950055390832	0
6	847	1947.126132806161	0
6	872	1990.884558549833	40.771923951339
6	873	1992.189305503359	40.629090348596
6	884	2026.303446077013	72.476604808657
6	897	2033.117940033021	57.776689549331
6	898	2046.296235881305	59.726596408539
6	899	2047.117577742288	57.879891599903
6	900	2049.823111130947	55.642516949369
6	911	2056.117494966578	59.94178521671
6	918	2086.27018870173	53.954775202139
6	919	2089.932134718383	57.218517202936
6	924	2100.067486483958	67.236028159049
6	925	2100.731442642589	50.655447457352
6	926	2111.10983115589	57.822879950689
6	964	2166.547424019246	0
6	973	2190.516773128762	0
6	994	2238.342644924639	0
6	997	2241.536865042855	0
6	1004	2249.670719917743	7.204123320889
6	1016	2283.392076793466	0
6	1021	2284.965476743911	1.022037204189
6	1028	2302.545062690931	4.171257086141
6	1041	2325.656200474155	21.4682203752
6	1050	2344.318516923168	29.069778478354
6	1051	2344.774802918969	23.908923511268
6	1052	2348.820923935502	27.572032762006
6	1055	2364.735801349216	23.288781996995
6	1056	2366.082455522881	10.99817752956
6	1060	2379.095213703034	0
6	1092	2437.703142205419	0
6	1099	2475.022752058164	0
7	156	386.709053379076	161.91198641259
7	161	393.273873941538	167.27247490689
7	164	397.722655901945	169.80004083864
7	165	409.491287991718	179.11096063675
7	168	416.23302902179	183.89912823772
7	178	432.37928207229	168.46944014962
7	181	436.52187322389	169.1623213257
7	186	447.157219148443	170.01399551868
7	187	449.084912336868	143.2329282864
7	192	456.011307072538	145.05371394892
7	198	463.416181902912	140.68872476861
7	199	466.401981781444	134.08856278618
7	202	474.228003346983	134.73899016187
7	203	481.243983566908	133.14156993418
7	210	493.857971938583	143.97277053862
7	213	497.923340691245	147.61964638251
7	214	497.959414002327	145.24996338615
7	215	500.353764306799	141.21602472757
7	218	501.92615992487	132.65952249776
7	219	506.915320180542	137.53990736335
7	222	511.281195018023	140.40747567258
7	223	512.116313899761	125.09159349593
7	232	530.026169776916	136.86355790237
7	233	531.828094014191	137.14866780869
7	234	533.253541525439	117.87023372371
7	240	548.850239549268	129.97810125909
7	241	549.28974826047	128.05871139674
7	250	559.182404348989	137.32013508177
7	251	561.128912559999	126.7312232978
7	252	561.702558831889	122.0918948599
7	257	574.267901033157	133.13782950053
7	258	576.342555559389	124.28068044947
7	265	584.688296005219	130.89476948217
7	270	609.947997556288	152.12583090008
7	271	615.291767053578	147.1358690066
7	272	615.411462295157	127.401563488
7	275	625.553209140293	135.52135269431
7	278	635.893965899552	142.99360166253
7	281	659.857512961252	165.34550247812
7	282	660.399769447276	159.25320385006
7	283	667.443766551693	159.44482606124
7	284	672.906397217787	160.13113624078
7	299	705.43386905372	184.38153220169
7	314	739.502937298963	213.95968316816
7	319	744.895344158838	217.61860748125
7	320	746.678651390318	211.2935645237
7	321	750.23986524348	199.07719833142
7	322	751.488822780036	198.42792049974
7	325	754.761786262916	199.10536284998
7	334	764.849928208871	208.09509987799
7	335	765.670113769229	202.29993490601
7	336	769.284366701724	203.64596486501
7	339	778.058958747431	201.68318007394
7	370	864.873799713528	287.86573599945
7	371	868.181896587456	285.73294908997
7	374	870.347220661234	285.46399601694
7	377	872.172813895873	271.46285083204
7	380	880.160304451875	255.00455878404
7	390	906.104624211632	273.12751887095
7	397	928.378550000218	287.52713315403
7	398	934.133042114989	251.17193817234
7	399	938.231099497278	250.46948126307
7	400	940.245157952136	251.51722662317
7	405	962.123515949638	257.0471452274
7	406	966.407557813525	250.45954861302
7	409	968.265636318599	247.57886947322
7	414	973.971775449295	253.15320782649
7	415	978.755282406572	254.95619083807
7	422	995.184042990994	264.13367129698
7	423	997.216043081193	259.00085234636
7	424	1000.620893742618	261.79865571812
7	425	1001.438528723302	259.09152125343
7	426	1009.793846293708	265.72555905692
7	427	1021.281156762974	268.88916738735
7	430	1029.764143405667	273.86681892117
7	433	1040.505984287764	284.02109966541
7	442	1046.875012066064	285.40162684374
7	447	1052.762531881534	290.53643760562
7	448	1055.360727810614	279.69863942711
7	449	1055.468091242451	265.38755640957
7	452	1061.934694899474	262.21011857429
7	453	1065.574246061005	244.42699904794
7	454	1077.805254930108	254.00383242484
7	455	1078.828737513411	242.07893296723
7	456	1083.034839126494	229.95593593418
7	457	1083.177343069577	212.86951031995
7	458	1085.596428437065	214.59795773751
7	459	1086.288513771795	211.52857335223
7	466	1100.082937838483	219.25220391454
7	467	1101.473982905186	220.62655825572
7	513	1198.482433238837	305.2649980442
7	518	1213.757606759199	307.08873976229
7	523	1226.008160166527	307.38486959312
7	526	1235.485062240521	316.23671276062
7	531	1246.392759960217	300.53711223417
7	532	1247.302980784336	300.61486929621
7	548	1274.175356750639	306.14423344255
7	551	1291.573628300029	321.42122158068
7	554	1293.74642305156	322.59612261908
7	555	1294.231410470795	307.97674391539
7	560	1308.045273452758	319.65183945518
7	563	1315.915975031332	321.42535134851
7	564	1317.338949632954	290.21372402133
7	565	1323.803670300851	289.89145432472
7	566	1325.126275644177	281.81781920758
7	567	1325.528643778076	281.06637615077
7	594	1385.721345844316	340.08849766423
7	595	1394.602581053485	348.76263436595
7	596	1400.547429033732	353.24535991048
7	605	1427.339877659879	379.50201817253
7	608	1433.322246878285	377.42695837755
7	613	1448.070104942151	358.70146523384
7	614	1450.131235693757	356.00320071623
7	617	1457.241793006353	357.17068110814
7	618	1458.912770907785	357.43466116266
7	619	1462.816149328533	359.57653518446
7	622	1464.842219666065	342.85889695851
7	623	1469.225482206663	324.49713937962
7	636	1498.187664441537	331.05037177369
7	637	1498.389016451364	329.45764996703
7	640	1506.338754709661	297.70661037394
7	645	1528.152488071848	318.10057945673
7	648	1531.755987258894	312.49707635682
7	649	1537.267805542622	314.19111486671
7	650	1537.732072791747	303.28148141913
7	653	1547.872613044699	309.74866946499
7	654	1551.979937326533	309.0510670318
7	657	1560.91330984834	312.50167058544
7	658	1562.537643127874	311.15821928212
7	671	1578.965658699617	324.12821667542
7	674	1603.812316418834	348.4132343878
7	675	1606.538665933775	343.16607911605
7	676	1614.174252042983	342.40662353186
7	679	1617.060576552435	333.49925880887
7	684	1624.122666361734	330.618175548
7	685	1630.912274882071	336.40643478451
7	690	1639.924069519454	344.99992766114
7	696	1644.707436020443	334.69055265853
7	697	1649.047287510386	323.03664284016
7	702	1653.469446383697	327.33928109365
7	707	1662.926359956038	333.66747623771
7	710	1664.381952881501	329.76296607401
7	715	1682.843739866573	342.84740191191
7	716	1683.382840059889	319.14858484091
7	717	1685.843531911471	300.59181017079
7	722	1703.849025092428	296.22571698685
7	723	1705.01579311131	296.56228337666
7	724	1706.073114757548	295.53176299638
7	738	1728.846631284498	318.14543076508
7	739	1729.543592245576	299.59036104837
7	740	1730.853214219529	292.93697450945
7	741	1732.422650167481	287.13263231004
7	750	1743.000647281146	285.8646612222
7	756	1752.223211750958	288.36013038826
7	761	1758.671269779061	283.55021848568
7	772	1786.471983982686	300.77330521435
7	794	1824.851084081561	338.76831979958
7	799	1836.354077625689	347.69945732332
7	802	1842.604628684391	350.25460870998
7	803	1843.835767325762	349.35410813397
7	804	1859.398934778073	356.61042134621
7	805	1861.944965580709	340.63957971159
7	808	1872.840102164951	350.29311712825
7	809	1875.627742052141	345.30642283572
7	810	1882.126200439536	340.3861434807
7	831	1905.192464036658	352.03261303827
7	838	1918.681498660802	353.94940887779
7	841	1930.90526499827	362.32648235815
7	844	1936.144864434946	357.55761709191
7	845	1945.391544374644	355.81761397829
7	933	2117.301339793718	502.48558713142
7	938	2124.583743817166	507.08965229189
7	939	2124.865268464286	502.02204165841
7	942	2128.229635244176	492.02584750698
7	943	2129.44979592357	493.22619101561
7	944	2129.808317544592	488.0848073302
7	951	2139.57159747479	489.68873973134
7	952	2140.036312650538	487.28764725147
7	953	2140.892858924494	486.99136888636
7	956	2145.008701575277	488.72704456447
7	959	2152.464110829318	489.37747319005
7	962	2165.282234485067	492.97302700624
7	965	2175.320393570881	498.41093174236
7	968	2180.837400599181	483.77257918381
7	969	2186.545163894702	486.05162001501
7	970	2188.843745446583	475.52053953428
7	971	2190.015167450095	476.50772359559
7	982	2198.349231371773	484.03401196562
7	983	2198.599757736549	482.26455491945
7	984	2208.683403285126	482.91159853733
7	985	2211.38917708941	476.69402185963
7	990	2223.838657843389	487.94800801106
7	995	2240.769650340048	502.29236022071
7	1005	2251.338333394137	509.57322645923
7	1006	2259.862920583705	512.19069340732
7	1007	2259.9941472405	506.11123400865
7	1010	2266.987956381154	509.31716958467
7	1013	2276.069492328884	517.03903543759
7	1014	2281.844645806519	522.31751491454
7	1057	2377.567639595982	603.58394625747
7	1058	2377.815714610935	596.91196506114
7	1067	2386.705511204695	600.8487339988
7	1070	2396.979650621045	606.78145046483
7	1073	2398.928553884437	608.71173022627
7	1074	2399.087942908762	601.87765828343
7	1077	2407.168061602719	607.77738930409
7	1078	2412.191422555673	598.33065709188
7	1079	2412.969781065264	589.76580054891
7	1080	2418.117308495639	590.64420969647
7	1083	2424.605907863289	593.66736212011
7	1090	2436.938248583319	595.4914558329
7	1093	2439.885572900756	571.641393165
7	1096	2449.241730111193	565.05480742333
7	1097	2473.485775846537	585.81588481377
8	161	393.273873941538	23
8	164	397.722655901945	24
8	165	409.491287991718	25
8	168	416.23302902179	26
8	187	449.084912336868	27
8	199	466.401981781444	28
8	202	474.228003346983	29
8	203	481.243983566908	30
8	213	497.923340691245	31
8	214	497.959414002327	32
8	215	500.353764306799	33
8	219	506.915320180542	34
8	223	512.116313899761	35
8	232	530.026169776916	36
8	233	531.828094014191	37
8	234	533.253541525439	38
8	241	549.28974826047	39
8	250	559.182404348989	40
8	251	561.128912559999	41
8	252	561.702558831889	42
8	257	574.267901033157	43
8	258	576.342555559389	44
8	270	609.947997556288	45
8	271	615.291767053578	46
8	272	615.411462295157	47
8	281	659.857512961252	48
8	282	660.399769447276	49
8	283	667.443766551693	50
8	284	672.906397217787	51
8	320	746.678651390318	52
8	321	750.23986524348	53
8	322	751.488822780036	54
8	335	765.670113769229	55
8	336	769.284366701724	56
8	371	868.181896587456	57
8	377	872.172813895873	58
8	397	928.378550000218	59
8	398	934.133042114989	60
8	399	938.231099497278	61
8	400	940.245157952136	62
8	405	962.123515949638	63
8	406	966.407557813525	64
8	409	968.265636318599	65
8	414	973.971775449295	66
8	415	978.755282406572	67
8	423	997.216043081193	68
8	424	1000.620893742618	69
8	425	1001.438528723302	70
8	426	1009.793846293708	71
8	427	1021.281156762974	72
8	430	1029.764143405667	73
8	433	1040.505984287764	74
8	447	1052.762531881534	75
8	448	1055.360727810614	76
8	449	1055.468091242451	77
8	453	1065.574246061005	78
8	454	1077.805254930108	79
8	455	1078.828737513411	80
8	456	1083.034839126494	81
8	457	1083.177343069577	82
8	458	1085.596428437065	83
8	459	1086.288513771795	84
8	467	1101.473982905186	85
8	518	1213.757606759199	86
8	523	1226.008160166527	87
8	526	1235.485062240521	88
8	531	1246.392759960217	89
8	532	1247.302980784336	90
8	554	1293.74642305156	91
8	555	1294.231410470795	92
8	563	1315.915975031332	93
8	564	1317.338949632954	94
8	565	1323.803670300851	95
8	566	1325.126275644177	96
8	567	1325.528643778076	97
8	595	1394.602581053485	98
8	596	1400.547429033732	99
8	614	1450.131235693757	100
8	617	1457.241793006353	101
8	618	1458.912770907785	102
8	619	1462.816149328533	103
8	622	1464.842219666065	104
8	623	1469.225482206663	105
8	636	1498.187664441537	106
8	637	1498.389016451364	107
8	640	1506.338754709661	108
8	648	1531.755987258894	109
8	649	1537.267805542622	110
8	650	1537.732072791747	111
8	653	1547.872613044699	112
8	654	1551.979937326533	113
8	657	1560.91330984834	114
8	658	1562.537643127874	115
8	674	1603.812316418834	116
8	675	1606.538665933775	117
8	676	1614.174252042983	118
8	684	1624.122666361734	119
8	685	1630.912274882071	120
8	690	1639.924069519454	121
8	697	1649.047287510386	122
8	702	1653.469446383697	123
8	707	1662.926359956038	124
8	710	1664.381952881501	125
8	716	1683.382840059889	126
8	717	1685.843531911471	127
8	723	1705.01579311131	128
8	724	1706.073114757548	129
8	739	1729.543592245576	130
8	740	1730.853214219529	131
8	741	1732.422650167481	132
8	802	1842.604628684391	133
8	803	1843.835767325762	134
8	804	1859.398934778073	135
8	805	1861.944965580709	136
8	808	1872.840102164951	137
8	809	1875.627742052141	138
8	810	1882.126200439536	139
8	841	1930.90526499827	140
8	844	1936.144864434946	141
8	845	1945.391544374644	142
8	938	2124.583743817166	143
8	939	2124.865268464286	144
8	942	2128.229635244176	145
8	943	2129.44979592357	146
8	944	2129.808317544592	147
8	951	2139.57159747479	148
8	952	2140.036312650538	149
8	953	2140.892858924494	150
8	956	2145.008701575277	151
8	959	2152.464110829318	152
8	962	2165.282234485067	153
8	968	2180.837400599181	154
8	969	2186.545163894702	155
8	970	2188.843745446583	156
8	971	2190.015167450095	157
8	983	2198.599757736549	158
8	984	2208.683403285126	159
8	985	2211.38917708941	160
8	990	2223.838657843389	161
8	1006	2259.862920583705	162
8	1007	2259.9941472405	163
8	1010	2266.987956381154	164
8	1013	2276.069492328884	165
8	1014	2281.844645806519	166
8	1058	2377.815714610935	167
8	1070	2396.979650621045	168
8	1073	2398.928553884437	169
8	1074	2399.087942908762	170
8	1077	2407.168061602719	171
8	1078	2412.191422555673	172
8	1079	2412.969781065264	173
8	1080	2418.117308495639	174
8	1083	2424.605907863289	175
8	1090	2436.938248583319	176
8	1096	2449.241730111193	177
8	1097	2473.485775846537	178
9	161	393.273873941538	168.47680697505
9	164	397.722655901945	171.72125686729
9	165	409.491287991718	181.56867292841
9	168	416.23302902179	185.85270166682
9	187	449.084912336868	171.94168870711
9	199	466.401981781444	143.67452464714
9	202	474.228003346983	141.91458435172
9	203	481.243983566908	141.7549703818
9	213	497.923340691245	148.03813929128
9	214	497.959414002327	147.6557196936
9	215	500.353764306799	147.64431369062
9	219	506.915320180542	137.64868275343
9	223	512.116313899761	141.24259455432
9	232	530.026169776916	143.00144937309
9	233	531.828094014191	138.66548213965
9	234	533.253541525439	138.57411531993
9	241	549.28974826047	130.41760997029
9	250	559.182404348989	137.95136748526
9	251	561.128912559999	139.26664329278
9	252	561.702558831889	127.30486956969
9	257	574.267901033157	134.65723706117
9	258	576.342555559389	135.21248402676
9	270	609.947997556288	156.15447103323
9	271	615.291767053578	157.46960039737
9	272	615.411462295157	147.25556424818
9	281	659.857512961252	166.95714872423
9	282	660.399769447276	165.88775896414
9	283	667.443766551693	166.29720095448
9	284	672.906397217787	164.90745672733
9	320	746.678651390318	219.40191471273
9	321	750.23986524348	214.85477837686
9	322	751.488822780036	200.32615586797
9	335	765.670113769229	208.91528543835
9	336	769.284366701724	205.91418783851
9	371	868.181896587456	291.17383287338
9	377	872.172813895873	287.28958925158
9	397	928.378550000218	295.40144465954
9	398	934.133042114989	293.2816252688
9	399	938.231099497278	255.26999555462
9	400	940.245157952136	252.48353971793
9	405	962.123515949638	273.39558462067
9	406	966.407557813525	261.33118709129
9	409	968.265636318599	252.3176271181
9	414	973.971775449295	253.28500860392
9	415	978.755282406572	257.93671478377
9	423	997.216043081193	266.16567138718
9	424	1000.620893742618	262.40570300779
9	425	1001.438528723302	262.6162906988
9	426	1009.793846293708	267.44683882384
9	427	1021.281156762974	277.21286952619
9	430	1029.764143405667	277.37215403005
9	433	1040.505984287764	284.60865980326
9	447	1052.762531881534	291.28914665921
9	448	1055.360727810614	293.1346335347
9	449	1055.468091242451	279.80600285894
9	453	1065.574246061005	265.84966973582
9	454	1077.805254930108	256.65800791704
9	455	1078.828737513411	255.02731500814
9	456	1083.034839126494	246.28503458031
9	457	1083.177343069577	230.09843987726
9	458	1085.596428437065	215.28859568744
9	459	1086.288513771795	215.29004307224
9	467	1101.473982905186	220.64324898124
9	518	1213.757606759199	320.54017156456
9	523	1226.008160166527	319.33929316962
9	526	1235.485062240521	316.86177166712
9	531	1246.392759960217	327.14441048032
9	532	1247.302980784336	301.44733305828
9	554	1293.74642305156	323.59401633222
9	555	1294.231410470795	323.08111003832
9	563	1315.915975031332	327.52254103376
9	564	1317.338949632954	322.84832595014
9	565	1323.803670300851	296.67844468923
9	566	1325.126275644177	291.21405966805
9	567	1325.528643778076	282.22018734148
9	595	1394.602581053485	348.9697328734
9	596	1400.547429033732	354.7074823462
9	614	1450.131235693757	360.76259598544
9	617	1457.241793006353	363.11375802882
9	618	1458.912770907785	358.84165900957
9	619	1462.816149328533	361.33803958341
9	622	1464.842219666065	361.60260552199
9	623	1469.225482206663	347.24215949911
9	636	1498.187664441537	353.4593216145
9	637	1498.389016451364	331.25172378352
9	640	1506.338754709661	337.40738822533
9	648	1531.755987258894	321.70407864378
9	649	1537.267805542622	318.00889464054
9	650	1537.732072791747	314.65538211583
9	653	1547.872613044699	313.42202167209
9	654	1551.979937326533	313.85599374683
9	657	1560.91330984834	317.98443955361
9	658	1562.537643127874	314.12600386497
9	674	1603.812316418834	348.97487439464
9	675	1606.538665933775	351.13958390274
9	676	1614.174252042983	350.80166522526
9	684	1624.122666361734	340.56134861817
9	685	1630.912274882071	337.40778406833
9	690	1639.924069519454	345.4182294219
9	697	1649.047287510386	339.03040414847
9	702	1653.469446383697	327.45880171347
9	707	1662.926359956038	336.79619466599
9	710	1664.381952881501	335.12306916318
9	716	1683.382840059889	343.38650210522
9	717	1685.843531911471	321.6092766925
9	723	1705.01579311131	297.39248500574
9	724	1706.073114757548	297.6196050229
9	739	1729.543592245576	318.84239172615
9	740	1730.853214219529	300.89998302232
9	741	1732.422650167481	294.50641045741
9	802	1842.604628684391	353.95000838202
9	803	1843.835767325762	351.48574735135
9	804	1859.398934778073	364.91727558629
9	805	1861.944965580709	359.15645214884
9	808	1872.840102164951	351.53471629583
9	809	1875.627742052141	353.08075701543
9	810	1882.126200439536	351.80488122311
9	841	1930.90526499827	366.17317521526
9	844	1936.144864434946	367.56608179483
9	845	1945.391544374644	366.80429703161
9	938	2124.583743817166	509.76799115487
9	939	2124.865268464286	507.37117693901
9	942	2128.229635244176	505.3864084383
9	943	2129.44979592357	493.24600818638
9	944	2129.808317544592	493.58471263663
9	951	2139.57159747479	497.8480872604
9	952	2140.036312650538	490.15345490708
9	953	2140.892858924494	488.14419352543
9	956	2145.008701575277	491.10721153715
9	959	2152.464110829318	496.18245381851
9	962	2165.282234485067	502.1955968458
9	968	2180.837400599181	503.92793877066
9	969	2186.545163894702	489.48034247933
9	970	2188.843745446583	488.35020156689
9	971	2190.015167450095	476.69196153779
9	983	2198.599757736549	484.2845383304
9	984	2208.683403285126	492.34820046803
9	985	2211.38917708941	485.61737234161
9	990	2223.838657843389	489.1435026136
9	1006	2259.862920583705	518.0978136488
9	1007	2259.9941472405	512.32192006412
9	1010	2266.987956381154	513.1050431493
9	1013	2276.069492328884	518.3987055324
9	1014	2281.844645806519	522.81418891523
9	1058	2377.815714610935	603.83202127242
9	1070	2396.979650621045	611.12287341515
9	1073	2398.928553884437	608.73035372822
9	1074	2399.087942908762	608.8711192506
9	1077	2407.168061602719	609.95777697739
9	1078	2412.191422555673	612.80075025705
9	1079	2412.969781065264	599.10901560147
9	1080	2418.117308495639	594.91332797928
9	1083	2424.605907863289	597.13280906412
9	1090	2436.938248583319	605.99970284014
9	1096	2449.241730111193	580.99755037544
9	1097	2473.485775846537	589.29885315867
10	172	421.231036863725	11
10	180	434.397689262197	12
10	183	439.610663971992	13
10	191	453.793526523054	14
10	194	457.822166656212	15
10	207	490.031856445978	16
10	217	501.146565597212	17
10	221	507.998940490456	18
10	236	535.385086866618	19
10	262	577.008063714078	20
10	274	625.155745667831	21
10	277	632.977105340681	22
10	286	682.961103942653	23
10	305	720.818567622802	24
10	316	742.34700746987	25
10	324	752.391989375619	26
10	327	755.897324484502	27
10	338	775.662088383508	28
10	341	790.080534832881	29
10	373	870.307832749627	30
10	379	874.759940419569	31
10	384	880.847424649465	32
10	417	986.254666555407	33
10	441	1045.839946687533	34
10	451	1055.895288500736	35
10	463	1094.128034977528	36
10	469	1101.478109745127	37
10	538	1254.837442024195	38
10	550	1283.561317743566	39
10	559	1294.924141858317	40
10	575	1334.618986807489	41
10	598	1407.623308105574	42
10	607	1429.953231197204	43
10	612	1445.290017857441	44
10	644	1522.546985036706	45
10	660	1564.732089783015	46
10	678	1614.815752662296	47
10	692	1641.723510214391	48
10	712	1672.309207478826	49
10	721	1700.493543879694	50
10	734	1725.771804747797	51
10	749	1741.765106934903	52
10	752	1747.672227176383	53
10	758	1753.882913231852	54
10	771	1785.856777205899	55
10	774	1790.198200156219	56
10	798	1830.93854574318	57
10	812	1884.186922687865	58
10	837	1915.950055390832	59
10	847	1947.126132806161	60
10	964	2166.547424019246	61
10	973	2190.516773128762	62
10	994	2238.342644924639	63
10	997	2241.536865042855	64
10	1016	2283.392076793466	65
10	1060	2379.095213703034	66
10	1092	2437.703142205419	67
10	1099	2475.022752058164	68
11	1106	2500	0.0712
12	1106	2500	0.0532

