version 2
run experiments_medium_game_mode1-691-20230311-09:42:20-12143
attr configname experiments_medium_game_mode1
attr datetime 20230311-09:42:20
attr experiment experiments_medium_game_mode1
attr inifile omnetpp.ini
attr iterationvars "$0=6, $1=4, $2=100"
attr iterationvarsf 6,4,100-
attr measurement "$0=6, $1=4, $2=100"
attr network Network
attr processid 12143
attr repetition 1
attr replication #1
attr resultdir results
attr runnumber 691
attr seedset 1
param *.boss.arrival_mean 20
param *.boss.service_mean 6
param *.minion.arrival_mean 10
param *.minion.service_mean 4
param *.player.recover_rate_x 100
param **.minion.arrival_distribution 0
param **.minion.service_distribution 0
param **.boss.arrival_distribution 0
param **.boss.service_distribution 0

vector 0 Network.player minion_jobs_number_stat:vector ETV
attr source signal_minion_jobs_number
vector 1 Network.player minion_jobs_queue_number_stat:vector ETV
attr source signal_minion_jobs_queue_number
vector 2 Network.player minion_waiting_time_stat:vector ETV
attr source signal_minion_waiting_time
vector 3 Network.player minion_defeated_stat:vector ETV
attr source signal_minion_defeated
vector 4 Network.player minion_response_time_stat:vector ETV
attr source signal_minion_response_time
vector 5 Network.player boss_jobs_number_stat:vector ETV
attr source signal_boss_jobs_number
vector 6 Network.player boss_jobs_queue_number_stat:vector ETV
attr source signal_boss_jobs_queue_number
vector 7 Network.player minion_recovered_stat:vector ETV
attr source signal_minion_recovered
vector 8 Network.player boss_waiting_time_stat:vector ETV
attr source signal_boss_waiting_time
vector 9 Network.player boss_defeated_stat:vector ETV
attr source signal_boss_defeated
vector 10 Network.player boss_response_time_stat:vector ETV
attr source signal_boss_response_time
vector 11 Network.player minion_throughput:vector ETV
attr source signal_minion_throughput
vector 12 Network.player boss_throughput:vector ETV
attr source signal_boss_throughput
0	134	354.557151855681	1
0	137	363.823894831212	1
0	139	365.613274632813	2
0	143	370.585233872072	3
0	146	379.681710898725	4
0	152	396.392065199602	1
0	154	396.482332329256	2
0	160	405.963380670505	1
0	164	410.850292778012	1
0	167	413.949212177533	1
0	169	414.400860177836	2
0	174	424.726697612854	3
0	182	456.111867721576	1
0	187	472.775236854993	1
0	189	478.504847620427	2
0	191	478.696928021011	3
0	206	508.451775855767	1
0	208	508.857708167273	2
0	217	524.28980936815	1
0	224	553.294729384193	1
0	229	573.415496850299	1
0	233	579.327708019238	1
0	235	581.229214307217	2
0	238	587.051509254189	2
0	240	587.830568865482	3
0	243	588.51024789307	3
0	247	597.69174064835	2
0	249	599.625904239714	3
0	251	601.464798297421	4
0	256	621.555207288251	2
0	260	634.774522045433	1
0	263	653.323311617842	1
0	266	658.573298451177	1
0	272	684.49641219479	1
0	274	692.002243623595	2
0	280	712.428054766382	1
0	284	740.165402144317	1
0	292	758.199070333875	1
0	296	765.574160589746	1
0	300	768.598356354349	2
0	302	769.743416064392	3
0	304	770.107547801784	4
0	307	771.829954097869	5
0	309	774.42754541804	6
0	312	782.306578941402	6
0	315	784.678757195726	6
0	320	792.11062420985	6
0	322	794.103925195273	7
0	324	804.254275049714	8
0	328	808.053947914704	8
0	332	813.187159306011	7
0	335	815.945202965973	7
0	341	826.437857566554	4
0	343	831.143790537557	5
0	347	836.200513181557	6
0	349	846.215295774186	7
0	353	855.994726423543	7
0	355	858.518294259223	8
0	364	873.102858222541	5
0	367	874.596576772936	5
0	369	876.56858066659	6
0	373	885.172340007252	5
0	375	889.881592834636	6
0	377	894.21520461275	7
0	382	901.197466405341	8
0	385	907.503892790405	8
0	392	919.108782958971	8
0	395	923.552397120488	9
0	398	926.478400633381	10
0	400	927.346722870158	11
0	407	935.437711264658	9
0	410	938.35340222437	10
0	414	948.159850924412	9
0	416	948.645510515757	10
0	423	971.23130375891	10
0	433	997.739497752726	8
0	435	1002.247055797812	9
0	440	1004.940780636881	9
0	445	1015.089663101238	8
0	452	1031.744717209477	6
0	454	1033.869800367338	7
0	456	1035.218628114189	8
0	464	1042.10607936867	4
0	466	1042.89333419035	5
0	468	1044.907710098221	6
0	472	1056.478227078671	7
0	484	1081.535408919244	1
0	493	1110.924019657824	2
0	495	1116.577226252923	3
0	499	1120.370427437659	4
0	511	1138.101066537554	2
0	515	1158.997769375823	1
0	517	1164.389614103138	2
0	521	1176.368381827385	1
0	530	1199.872236254162	1
0	534	1204.278596782078	2
0	539	1209.467598345595	3
0	548	1232.961859612421	1
0	551	1236.984180589291	1
0	553	1241.706954241873	2
0	560	1250.196517913514	1
0	563	1268.951555771959	1
0	571	1287.623521008735	1
0	575	1300.845123160787	1
0	578	1320.578965987141	1
0	581	1332.584785782388	1
0	584	1341.640472899657	1
0	587	1352.712257866263	1
0	589	1353.596872460635	2
0	591	1354.430462899995	3
0	596	1363.525267817574	1
0	598	1363.98202022208	2
0	601	1366.79840673552	2
0	604	1367.798799028257	2
0	608	1380.988650301259	1
0	611	1383.440373029984	1
0	619	1405.945167179226	1
0	626	1422.396675441742	1
0	628	1429.627255756317	2
0	631	1430.685088772856	2
0	635	1439.937483048556	1
0	639	1440.601567088654	2
0	641	1441.274379830186	3
0	649	1470.089611214683	2
0	653	1477.856523929648	1
0	656	1479.634303538207	1
0	658	1481.017581247421	2
0	664	1489.97936585555	1
0	667	1499.513136980461	2
0	674	1529.541644465283	1
0	679	1534.061715485615	1
0	682	1538.630925993558	2
0	686	1553.230681240834	1
0	688	1553.449239273142	2
0	690	1553.946754001386	3
0	694	1561.300505661371	4
0	696	1562.463800429604	5
0	698	1566.131236080638	6
0	701	1577.652101419888	7
0	707	1595.558615324041	7
0	710	1602.787541439405	7
0	717	1629.290346216222	3
0	719	1637.768291493497	4
0	721	1639.148682106153	5
0	731	1657.708909622613	1
0	734	1675.495492245268	1
0	737	1682.1846757928	1
0	744	1697.637724245331	1
0	749	1714.252640392117	1
0	751	1725.952996459446	2
0	758	1733.091468649534	1
0	764	1743.602300963212	1
0	773	1769.737070293725	1
0	779	1797.429649869354	1
0	782	1808.423608925901	1
0	786	1811.117469180127	2
0	788	1812.727691339913	3
0	791	1819.29507133408	4
0	795	1823.829339928366	5
0	806	1850.05842958545	1
0	814	1870.140801328938	1
0	816	1872.093750590139	2
0	819	1876.405968623866	3
0	821	1878.066848027262	4
0	823	1880.162037838015	5
0	833	1914.482613606068	1
0	835	1920.880977758516	2
0	837	1924.746660298332	3
0	840	1929.7353207484	3
0	845	1951.433106009163	1
0	848	1961.080825932835	1
0	851	1968.963691792235	1
0	854	1974.704298001108	1
0	857	1979.34222648922	1
0	860	1982.36574677823	1
0	862	1983.838293113229	2
0	867	1989.156610482477	3
0	869	1990.350194517302	4
0	874	1995.780825651345	4
0	876	1996.531113902884	5
0	883	2019.802131646665	5
0	885	2021.949410744452	6
0	894	2060.879589853667	2
0	896	2060.908898717302	3
0	901	2070.679099586889	4
0	908	2091.617982071237	1
0	910	2092.486468161446	2
0	919	2120.154046587702	1
0	927	2133.359064701743	1
0	929	2140.34363870594	2
0	934	2151.696984518615	3
0	941	2165.460219418262	4
0	948	2182.948533678196	3
0	952	2189.646182425831	4
0	954	2193.914878067786	5
0	956	2193.954164107906	6
0	958	2194.561011312908	7
0	961	2200.766102351387	8
0	964	2210.22901050779	8
0	966	2211.800957408794	9
0	968	2213.125016198576	10
0	971	2216.818198176185	10
0	977	2231.069777978458	10
0	982	2245.062037414236	8
0	992	2260.881398963393	4
0	998	2274.961049532209	4
0	1002	2280.214129127697	5
0	1015	2305.165130442435	4
0	1025	2333.953071763477	1
0	1034	2360.789919575655	1
0	1037	2362.698859064813	1
0	1039	2363.643523370556	2
0	1046	2392.218169230268	1
0	1048	2394.39108518217	2
0	1054	2400.655127529596	2
0	1060	2408.898363050178	3
0	1068	2423.295046423066	3
0	1070	2423.399860528197	4
0	1075	2437.376253249859	5
0	1077	2439.988562019943	6
0	1087	2479.732826589049	2
0	1089	2480.108407740282	3
1	134	354.557151855681	0
1	135	355.246525226324	0
1	137	363.823894831212	0
1	139	365.613274632813	1
1	143	370.585233872072	2
1	146	379.681710898725	3
1	147	382.011684372745	3
1	148	382.463790620382	2
1	149	382.933976325053	1
1	150	384.215273801942	0
1	152	396.392065199602	0
1	154	396.482332329256	1
1	155	397.305467285273	1
1	156	399.44481383053	0
1	160	405.963380670505	0
1	162	409.267466244052	0
1	164	410.850292778012	0
1	165	412.254654660876	0
1	167	413.949212177533	0
1	169	414.400860177836	1
1	174	424.726697612854	2
1	175	426.574788259711	2
1	176	434.584298868774	1
1	177	437.5509208225	0
1	182	456.111867721576	0
1	183	459.580325610747	0
1	187	472.775236854993	0
1	189	478.504847620427	1
1	191	478.696928021011	2
1	196	486.50683657748	2
1	197	491.771986331098	1
1	198	494.477250325946	0
1	206	508.451775855767	0
1	208	508.857708167273	1
1	209	509.687775265417	1
1	210	509.746527643269	0
1	217	524.28980936815	0
1	219	529.263603272479	0
1	224	553.294729384193	0
1	225	553.686782056565	0
1	229	573.415496850299	0
1	231	575.560093337739	0
1	233	579.327708019238	0
1	235	581.229214307217	1
1	236	586.33526970671	1
1	238	587.051509254189	1
1	240	587.830568865482	2
1	241	587.922662715879	2
1	243	588.51024789307	2
1	244	595.093528296758	2
1	245	595.716235715151	1
1	247	597.69174064835	1
1	249	599.625904239714	2
1	251	601.464798297421	3
1	252	604.633983896365	3
1	253	605.358215023117	2
1	254	618.039843528615	1
1	256	621.555207288251	1
1	257	631.329077363337	1
1	258	634.625173712384	0
1	260	634.774522045433	0
1	261	647.672762025102	0
1	263	653.323311617842	0
1	264	653.702966907537	0
1	266	658.573298451177	0
1	267	659.408361334603	0
1	272	684.49641219479	0
1	274	692.002243623595	1
1	275	706.571185476976	1
1	276	706.669612838741	0
1	280	712.428054766382	0
1	282	719.068039308541	0
1	284	740.165402144317	0
1	285	741.080819178449	0
1	292	758.199070333875	0
1	294	763.626234260778	0
1	296	765.574160589746	0
1	300	768.598356354349	1
1	302	769.743416064392	2
1	304	770.107547801784	3
1	307	771.829954097869	4
1	309	774.42754541804	5
1	310	775.047774696856	5
1	312	782.306578941402	5
1	313	782.463384877554	5
1	315	784.678757195726	5
1	316	788.511079759551	5
1	320	792.11062420985	5
1	322	794.103925195273	6
1	324	804.254275049714	7
1	326	805.823845199814	7
1	328	808.053947914704	7
1	329	809.136850199797	7
1	330	812.584655718068	6
1	332	813.187159306011	6
1	333	814.421145967577	6
1	335	815.945202965973	6
1	336	817.806412243907	6
1	337	817.812986323782	5
1	338	822.509751765786	4
1	339	825.408077004047	3
1	341	826.437857566554	3
1	343	831.143790537557	4
1	347	836.200513181557	5
1	349	846.215295774186	6
1	351	851.752644419216	6
1	353	855.994726423543	6
1	355	858.518294259223	7
1	356	862.148180444304	7
1	360	865.820696431589	6
1	361	866.921019966367	5
1	362	868.12056544065	4
1	364	873.102858222541	4
1	365	873.220430049514	4
1	367	874.596576772936	4
1	369	876.56858066659	5
1	370	879.708433781384	5
1	371	884.10759528514	4
1	373	885.172340007252	4
1	375	889.881592834636	5
1	377	894.21520461275	6
1	382	901.197466405341	7
1	383	907.015242378468	7
1	385	907.503892790405	7
1	386	907.906643775616	7
1	392	919.108782958971	7
1	395	923.552397120488	8
1	398	926.478400633381	9
1	400	927.346722870158	10
1	401	929.55853061157	10
1	402	929.567397292487	9
1	403	932.993957343693	8
1	407	935.437711264658	8
1	410	938.35340222437	9
1	411	938.773111386333	9
1	412	942.240461188402	8
1	414	948.159850924412	8
1	416	948.645510515757	9
1	417	951.58212943156	9
1	423	971.23130375891	9
1	426	989.52570151018	9
1	427	991.561975557578	8
1	428	992.342368294072	7
1	433	997.739497752726	7
1	435	1002.247055797812	8
1	436	1003.733859183773	8
1	440	1004.940780636881	8
1	442	1008.586201943769	8
1	443	1012.339351356791	7
1	445	1015.089663101238	7
1	446	1024.023907269371	7
1	447	1029.917492558599	6
1	448	1030.790401932186	5
1	452	1031.744717209477	5
1	454	1033.869800367338	6
1	456	1035.218628114189	7
1	458	1038.367916281142	7
1	459	1039.863256301022	6
1	460	1040.381634482094	5
1	461	1040.49980931283	4
1	462	1041.343003163542	3
1	464	1042.10607936867	3
1	466	1042.89333419035	4
1	468	1044.907710098221	5
1	472	1056.478227078671	6
1	474	1059.857986778695	6
1	475	1061.347926240073	5
1	476	1061.820600832425	4
1	477	1064.392825185972	3
1	478	1065.550199604697	2
1	479	1069.421120315324	1
1	480	1069.67804388736	0
1	484	1081.535408919244	0
1	493	1110.924019657824	1
1	495	1116.577226252923	2
1	499	1120.370427437659	3
1	507	1131.44617963792	3
1	508	1135.442326885812	2
1	509	1137.143535960447	1
1	511	1138.101066537554	1
1	512	1138.168209542368	1
1	513	1144.953865550965	0
1	515	1158.997769375823	0
1	517	1164.389614103138	1
1	518	1170.460343942778	1
1	519	1173.799942750099	0
1	521	1176.368381827385	0
1	522	1178.26298057109	0
1	530	1199.872236254162	0
1	534	1204.278596782078	1
1	539	1209.467598345595	2
1	544	1217.804583244156	2
1	545	1224.487760345195	1
1	546	1225.727537882981	0
1	548	1232.961859612421	0
1	549	1234.400015568717	0
1	551	1236.984180589291	0
1	553	1241.706954241873	1
1	557	1248.514081779955	1
1	558	1249.347866622651	0
1	560	1250.196517913514	0
1	561	1259.946783038468	0
1	563	1268.951555771959	0
1	567	1276.910546798796	0
1	571	1287.623521008735	0
1	573	1295.530406924292	0
1	575	1300.845123160787	0
1	576	1311.330891926202	0
1	578	1320.578965987141	0
1	579	1320.974725043963	0
1	581	1332.584785782388	0
1	582	1337.195785378936	0
1	584	1341.640472899657	0
1	585	1343.432179286036	0
1	587	1352.712257866263	0
1	589	1353.596872460635	1
1	591	1354.430462899995	2
1	592	1354.920277134243	2
1	593	1355.064896387257	1
1	594	1358.40697916058	0
1	596	1363.525267817574	0
1	598	1363.98202022208	1
1	599	1366.687058689306	1
1	601	1366.79840673552	1
1	602	1367.655239060573	1
1	604	1367.798799028257	1
1	605	1374.01657971534	1
1	606	1374.699880625482	0
1	608	1380.988650301259	0
1	609	1381.198638179076	0
1	611	1383.440373029984	0
1	615	1396.47693020261	0
1	619	1405.945167179226	0
1	624	1412.900793025604	0
1	626	1422.396675441742	0
1	628	1429.627255756317	1
1	629	1429.855421651356	1
1	631	1430.685088772856	1
1	632	1431.6749534579	1
1	633	1435.802680966893	0
1	635	1439.937483048556	0
1	639	1440.601567088654	1
1	641	1441.274379830186	2
1	643	1459.430080680758	2
1	644	1460.006674309019	1
1	649	1470.089611214683	1
1	650	1471.765219663054	1
1	651	1472.543067210228	0
1	653	1477.856523929648	0
1	654	1479.592568337555	0
1	656	1479.634303538207	0
1	658	1481.017581247421	1
1	659	1481.170299732985	1
1	660	1485.244453915023	0
1	664	1489.97936585555	0
1	667	1499.513136980461	1
1	668	1504.557979591804	1
1	669	1507.278232619876	0
1	674	1529.541644465283	0
1	675	1530.569403436126	0
1	679	1534.061715485615	0
1	682	1538.630925993558	1
1	683	1538.674045991647	1
1	684	1547.528251884317	0
1	686	1553.230681240834	0
1	688	1553.449239273142	1
1	690	1553.946754001386	2
1	694	1561.300505661371	3
1	696	1562.463800429604	4
1	698	1566.131236080638	5
1	701	1577.652101419888	6
1	702	1580.204222724413	6
1	707	1595.558615324041	6
1	708	1602.751188643513	6
1	710	1602.787541439405	6
1	711	1603.106972667577	6
1	712	1603.580721572594	5
1	713	1610.25289838968	4
1	714	1617.673100520736	3
1	715	1620.002196116904	2
1	717	1629.290346216222	2
1	719	1637.768291493497	3
1	721	1639.148682106153	4
1	722	1640.764526778005	4
1	723	1642.463290663427	3
1	724	1644.203215318224	2
1	725	1644.628335843634	1
1	729	1656.717773404854	0
1	731	1657.708909622613	0
1	732	1659.64310746817	0
1	734	1675.495492245268	0
1	735	1680.916692668018	0
1	737	1682.1846757928	0
1	738	1685.04097267551	0
1	744	1697.637724245331	0
1	747	1711.733494106845	0
1	749	1714.252640392117	0
1	751	1725.952996459446	1
1	752	1727.240002144991	1
1	753	1727.383163780103	0
1	758	1733.091468649534	0
1	759	1734.949225976883	0
1	764	1743.602300963212	0
1	765	1744.264928669064	0
1	773	1769.737070293725	0
1	774	1769.786856487806	0
1	779	1797.429649869354	0
1	780	1798.982293736326	0
1	782	1808.423608925901	0
1	786	1811.117469180127	1
1	788	1812.727691339913	2
1	791	1819.29507133408	3
1	795	1823.829339928366	4
1	797	1825.088522680841	4
1	798	1825.559653199007	3
1	799	1827.342832532463	2
1	800	1829.764208120905	1
1	801	1832.367157774171	0
1	806	1850.05842958545	0
1	807	1854.842426317318	0
1	814	1870.140801328938	0
1	816	1872.093750590139	1
1	819	1876.405968623866	2
1	821	1878.066848027262	3
1	823	1880.162037838015	4
1	824	1882.707674920296	4
1	825	1888.993187181096	3
1	826	1891.885452207908	2
1	830	1897.81361922031	1
1	831	1899.137425013106	0
1	833	1914.482613606068	0
1	835	1920.880977758516	1
1	837	1924.746660298332	2
1	838	1928.609823331164	2
1	840	1929.7353207484	2
1	841	1935.057114719194	2
1	842	1937.916343172469	1
1	843	1937.998751788089	0
1	845	1951.433106009163	0
1	846	1954.096004245413	0
1	848	1961.080825932835	0
1	849	1964.481140227335	0
1	851	1968.963691792235	0
1	852	1969.18326020111	0
1	854	1974.704298001108	0
1	855	1976.824220454058	0
1	857	1979.34222648922	0
1	858	1980.473444480105	0
1	860	1982.36574677823	0
1	862	1983.838293113229	1
1	867	1989.156610482477	2
1	869	1990.350194517302	3
1	870	1992.769877661576	3
1	874	1995.780825651345	3
1	876	1996.531113902884	4
1	881	2018.822052959823	4
1	883	2019.802131646665	4
1	885	2021.949410744452	5
1	886	2022.772090971302	5
1	887	2039.345908459232	4
1	888	2039.567799038891	3
1	889	2045.081509296536	2
1	890	2045.926753491145	1
1	894	2060.879589853667	1
1	896	2060.908898717302	2
1	901	2070.679099586889	3
1	903	2077.223577657329	3
1	904	2080.789353172573	2
1	905	2086.610697430416	1
1	906	2091.466009910237	0
1	908	2091.617982071237	0
1	910	2092.486468161446	1
1	914	2098.410281983078	1
1	915	2099.925218673526	0
1	919	2120.154046587702	0
1	921	2122.448730137811	0
1	927	2133.359064701743	0
1	929	2140.34363870594	1
1	934	2151.696984518615	2
1	941	2165.460219418262	3
1	945	2178.753928749821	3
1	946	2182.167882482081	2
1	948	2182.948533678196	2
1	952	2189.646182425831	3
1	954	2193.914878067786	4
1	956	2193.954164107906	5
1	958	2194.561011312908	6
1	961	2200.766102351387	7
1	962	2203.412305311002	7
1	964	2210.22901050779	7
1	966	2211.800957408794	8
1	968	2213.125016198576	9
1	969	2215.696759347984	9
1	971	2216.818198176185	9
1	972	2220.997583710558	9
1	977	2231.069777978458	9
1	978	2232.249240724728	9
1	979	2233.352627183776	8
1	980	2242.506218173315	7
1	982	2245.062037414236	7
1	983	2250.229302091032	7
1	984	2251.832724619486	6
1	985	2252.448204431917	5
1	986	2252.793655421869	4
1	990	2260.403862558628	3
1	992	2260.881398963393	3
1	993	2263.396114339537	3
1	998	2274.961049532209	3
1	1002	2280.214129127697	4
1	1004	2284.805817975329	4
1	1005	2291.039657173233	3
1	1015	2305.165130442435	3
1	1017	2311.060685391686	3
1	1021	2321.724388399028	2
1	1022	2322.272487494784	1
1	1023	2330.948724902649	0
1	1025	2333.953071763477	0
1	1029	2350.975782646348	0
1	1034	2360.789919575655	0
1	1035	2361.311803317373	0
1	1037	2362.698859064813	0
1	1039	2363.643523370556	1
1	1040	2368.576392217482	1
1	1041	2372.295014562473	0
1	1046	2392.218169230268	0
1	1048	2394.39108518217	1
1	1049	2397.911648011502	1
1	1054	2400.655127529596	1
1	1060	2408.898363050178	2
1	1063	2416.836839383155	2
1	1068	2423.295046423066	2
1	1070	2423.399860528197	3
1	1075	2437.376253249859	4
1	1077	2439.988562019943	5
1	1081	2457.4028642081	5
1	1082	2458.612889465675	4
1	1083	2465.784133337114	3
1	1084	2471.61669357794	2
1	1085	2475.249299422774	1
1	1087	2479.732826589049	1
1	1089	2480.108407740282	2
2	134	354.557151855681	0
2	137	363.823894831212	0
2	144	373.532728548564	7.919453915751
2	147	382.011684372745	12.636429055473
2	148	382.463790620382	11.87855674831
2	149	382.933976325053	3.252265426328
2	152	396.392065199602	0
2	155	397.305467285273	0.823134956017
2	161	408.760242648329	2.796861977824
2	164	410.850292778012	0
2	167	413.949212177533	0
2	172	422.610861457018	8.210001279182
2	175	426.574788259711	10.78611216791
2	176	434.584298868774	9.85760125592
2	182	456.111867721576	0
2	192	480.316730593902	7.541493738909
2	195	482.842381605759	4.337533985332
2	196	486.50683657748	7.809908556469
2	197	491.771986331098	11.339990490942
2	206	508.451775855767	0
2	209	509.687775265417	0.830067098144
2	218	527.923469235577	3.633659867427
2	224	553.294729384193	0
2	230	574.390182052135	0.974685201836
2	233	579.327708019238	0
2	236	586.33526970671	5.106055399493
2	241	587.922662715879	0.87115346169
2	244	595.093528296758	7.262959431276
2	245	595.716235715151	7.205987822081
2	252	604.633983896365	6.942243248015
2	253	605.358215023117	5.732310783403
2	254	618.039843528615	16.575045231194
2	257	631.329077363337	9.773870075086
2	260	634.774522045433	0
2	263	653.323311617842	0
2	266	658.573298451177	0
2	272	684.49641219479	0
2	275	706.571185476976	14.568941853381
2	281	716.472270417634	4.044215651252
2	284	740.165402144317	0
2	293	759.006575221405	0.80750488753
2	296	765.574160589746	0
2	305	770.730629714038	3.610237288822
2	310	775.047774696856	6.449418342507
2	313	782.463384877554	12.719968813162
2	316	788.511079759551	18.403531957767
2	325	805.731044619066	33.901090521197
2	326	805.823845199814	31.396299781774
2	329	809.136850199797	26.830271258395
2	330	812.584655718068	27.905898522342
2	333	814.421145967577	24.605356377151
2	336	817.806412243907	25.695788034057
2	337	817.812986323782	23.709061128509
2	338	822.509751765786	18.255476716072
2	339	825.408077004047	17.354129089343
2	350	847.668314676681	34.48115537067
2	351	851.752644419216	35.807441453243
2	356	862.148180444304	35.71032287775
2	359	865.797690153552	34.653899615995
2	360	865.820696431589	34.212216271744
2	361	866.921019966367	30.72050678481
2	362	868.12056544065	21.905269666464
2	365	873.220430049514	17.225703625971
2	370	879.708433781384	21.190139522161
2	371	884.10759528514	20.137521875965
2	380	898.839467028406	25.736608805865
2	383	907.015242378468	32.418665605532
2	386	907.906643775616	31.338063109026
2	396	924.786861598966	39.614521591714
2	401	929.55853061157	39.676937776934
2	402	929.567397292487	35.352192679737
2	403	932.993957343693	34.305777052754
2	408	936.237457766188	35.039991360847
2	411	938.773111386333	31.269218595928
2	412	942.240461188402	31.295683061738
2	417	951.58212943156	32.473346472589
2	425	989.258975485873	65.706578365385
2	426	989.52570151018	63.047300876799
2	427	991.561975557578	64.21525268742
2	428	992.342368294072	57.870283761644
2	431	997.011573829107	61.573862564449
2	436	1003.733859183773	65.380456959403
2	441	1005.423545601315	57.263694676903
2	442	1008.586201943769	59.940691428012
2	443	1012.339351356791	52.505057023026
2	446	1024.023907269371	52.792603510461
2	447	1029.917492558599	34.476467908309
2	448	1030.790401932186	33.05090417946
2	457	1035.714098039197	33.467042241385
2	458	1038.367916281142	34.091716984645
2	459	1039.863256301022	34.922475664141
2	460	1040.381634482094	25.291971380856
2	461	1040.49980931283	9.556656713262
2	462	1041.343003163542	9.598285954065
2	473	1059.495986691178	25.62618632384
2	474	1059.857986778695	24.639358664506
2	475	1061.347926240073	19.241846871403
2	476	1061.820600832425	18.927266642075
2	477	1064.392825185972	19.485115087751
2	478	1065.550199604697	15.43995361825
2	479	1069.421120315324	12.942893236653
2	491	1106.703220066303	25.167811147059
2	506	1130.157946247366	19.233926589542
2	507	1131.44617963792	14.868953384997
2	508	1135.442326885812	16.218611568378
2	509	1137.143535960447	16.773108522788
2	512	1138.168209542368	0.067143004814
2	515	1158.997769375823	0
2	518	1170.460343942778	6.07072983964
2	521	1176.368381827385	0
2	530	1199.872236254162	0
2	540	1210.200186493487	7.923295746795
2	543	1215.867182327111	11.588585545033
2	544	1217.804583244156	8.336984898561
2	545	1224.487760345195	12.404462098597
2	548	1232.961859612421	0
2	551	1236.984180589291	0
2	556	1247.645778875184	5.938824633311
2	557	1248.514081779955	1.503626657052
2	560	1250.196517913514	0
2	563	1268.951555771959	0
2	566	1273.651466709896	1.375340164421
2	572	1288.562853887181	0.939332878446
2	575	1300.845123160787	0
2	578	1320.578965987141	0
2	581	1332.584785782388	0
2	584	1341.640472899657	0
2	587	1352.712257866263	0
2	592	1354.920277134243	1.323404673608
2	593	1355.064896387257	0.634433487262
2	596	1363.525267817574	0
2	599	1366.687058689306	2.705038467226
2	602	1367.655239060573	0.856832325053
2	605	1374.01657971534	6.217780687083
2	608	1380.988650301259	0
2	611	1383.440373029984	0
2	614	1391.681483838542	4.049084577639
2	620	1409.118913672285	3.173746493059
2	623	1412.110893656107	2.794967172102
2	626	1422.396675441742	0
2	629	1429.855421651356	0.228165895039
2	632	1431.6749534579	0.989864685044
2	635	1439.937483048556	0
2	642	1458.428622185384	18.126097025347
2	643	1459.430080680758	18.828513592104
2	644	1460.006674309019	18.732294478833
2	647	1466.448941538257	3.893646803184
2	650	1471.765219663054	1.675608448371
2	653	1477.856523929648	0
2	656	1479.634303538207	0
2	659	1481.170299732985	0.152718485564
2	665	1492.059295781577	2.079929926027
2	668	1504.557979591804	5.044842611343
2	674	1529.541644465283	0
2	680	1535.170573202428	1.108857716813
2	683	1538.674045991647	0.043119998089
2	686	1553.230681240834	0
2	699	1569.416094424424	15.966855151282
2	702	1580.204222724413	26.257468723027
2	705	1594.019760224002	35.521582885459
2	708	1602.751188643513	41.450682982142
2	711	1603.106972667577	40.643172237973
2	712	1603.580721572594	37.449485491956
2	713	1610.25289838968	32.600796969792
2	714	1617.673100520736	27.202365298687
2	715	1620.002196116904	24.443580792863
2	722	1640.764526778005	37.9769853386
2	723	1642.463290663427	13.172944447205
2	724	1644.203215318224	6.434923824727
2	725	1644.628335843634	5.479653737481
2	728	1654.657294860339	8.782876704395
2	731	1657.708909622613	0
2	734	1675.495492245268	0
2	737	1682.1846757928	0
2	746	1709.867698733043	12.229974487712
2	749	1714.252640392117	0
2	752	1727.240002144991	1.287005685545
2	758	1733.091468649534	0
2	764	1743.602300963212	0
2	773	1769.737070293725	0
2	779	1797.429649869354	0
2	782	1808.423608925901	0
2	789	1813.624697345306	3.618116209066
2	796	1824.588501197051	13.471032016924
2	797	1825.088522680841	12.360831340928
2	798	1825.559653199007	6.264581864927
2	799	1827.342832532463	7.508625290661
2	800	1829.764208120905	5.934868192539
2	806	1850.05842958545	0
2	817	1875.119727454448	4.97892612551
2	824	1882.707674920296	10.613924330157
2	825	1888.993187181096	12.58721855723
2	826	1891.885452207908	13.818604180646
2	829	1895.446865799659	15.284827961644
2	830	1897.81361922031	4.360485104326
2	833	1914.482613606068	0
2	838	1928.609823331164	7.728845572648
2	841	1935.057114719194	10.310454420862
2	842	1937.916343172469	8.181022424069
2	845	1951.433106009163	0
2	848	1961.080825932835	0
2	851	1968.963691792235	0
2	854	1974.704298001108	0
2	857	1979.34222648922	0
2	860	1982.36574677823	0
2	865	1987.128733739562	3.290440626333
2	870	1992.769877661576	8.416701235876
2	880	2012.356172050053	23.199561567576
2	881	2018.822052959823	28.471858442521
2	886	2022.772090971302	29.332320337147
2	887	2039.345908459232	43.565082807887
2	888	2039.567799038891	43.036685136007
2	889	2045.081509296536	25.279377649871
2	890	2045.926753491145	23.977342746693
2	897	2061.237289987611	3.407997719262
2	902	2074.814599264897	13.93500941123
2	903	2077.223577657329	16.314678940027
2	904	2080.789353172573	13.598082263653
2	905	2086.610697430416	15.931597843527
2	908	2091.617982071237	0
2	913	2096.796125237238	4.309657075792
2	914	2098.410281983078	4.869677299477
2	920	2121.468794396419	1.314747808717
2	944	2176.96888535555	43.609820653807
2	945	2178.753928749821	38.410290043881
2	946	2182.167882482081	30.470897963466
2	959	2197.320825971369	31.860606553107
2	962	2203.412305311002	20.463771632806
2	969	2215.696759347984	26.484251240544
2	972	2220.997583710558	31.351401284727
2	975	2230.154369015752	36.239490947966
2	978	2232.249240724728	38.295076616822
2	979	2233.352627183776	38.791615870868
2	980	2242.506218173315	41.740115821928
2	983	2250.229302091032	40.000291583242
2	984	2251.832724619486	40.031767210692
2	985	2252.448204431917	39.323188233341
2	986	2252.793655421869	35.975457245684
2	989	2260.246598148717	32.235185902131
2	990	2260.403862558628	29.33408458017
2	993	2263.396114339537	18.334076925301
2	996	2274.674093462579	17.720467804431
2	1003	2280.480633000732	19.599234037339
2	1004	2284.805817975329	14.338258051637
2	1005	2291.039657173233	16.078607641024
2	1016	2310.670065361896	33.524930704513
2	1017	2311.060685391686	30.846556263989
2	1020	2317.033885629925	24.67758067521
2	1021	2321.724388399028	16.559257956593
2	1022	2322.272487494784	9.678854832637
2	1025	2333.953071763477	0
2	1028	2347.045559619656	1.799627378136
2	1034	2360.789919575655	0
2	1037	2362.698859064813	0
2	1040	2368.576392217482	4.932868846926
2	1046	2392.218169230268	0
2	1049	2397.911648011502	3.520562829332
2	1052	2398.97702002172	0.00856738967
2	1062	2411.884665466817	11.229537937221
2	1063	2416.836839383155	12.135350266974
2	1066	2422.441897161037	13.543534110859
2	1073	2434.425592283015	15.457265368994
2	1080	2452.566214809497	29.271168386431
2	1081	2457.4028642081	34.003003679903
2	1082	2458.612889465675	31.602026521459
2	1083	2465.784133337114	28.407880087255
2	1084	2471.61669357794	31.628131557997
2	1085	2475.249299422774	31.815370829102
2	1092	2485.079602460126	5.346775871077
3	135	355.246525226324	27
3	147	382.011684372745	28
3	148	382.463790620382	29
3	149	382.933976325053	30
3	150	384.215273801942	31
3	155	397.305467285273	32
3	156	399.44481383053	33
3	162	409.267466244052	34
3	165	412.254654660876	35
3	175	426.574788259711	36
3	176	434.584298868774	37
3	177	437.5509208225	38
3	183	459.580325610747	39
3	196	486.50683657748	40
3	197	491.771986331098	41
3	198	494.477250325946	42
3	209	509.687775265417	43
3	210	509.746527643269	44
3	219	529.263603272479	45
3	225	553.686782056565	46
3	231	575.560093337739	47
3	236	586.33526970671	48
3	241	587.922662715879	49
3	244	595.093528296758	50
3	245	595.716235715151	51
3	252	604.633983896365	52
3	253	605.358215023117	53
3	254	618.039843528615	54
3	257	631.329077363337	55
3	258	634.625173712384	56
3	261	647.672762025102	57
3	264	653.702966907537	58
3	267	659.408361334603	59
3	275	706.571185476976	60
3	276	706.669612838741	61
3	282	719.068039308541	62
3	285	741.080819178449	63
3	294	763.626234260778	64
3	310	775.047774696856	65
3	313	782.463384877554	66
3	316	788.511079759551	67
3	326	805.823845199814	68
3	329	809.136850199797	69
3	330	812.584655718068	70
3	333	814.421145967577	71
3	336	817.806412243907	72
3	337	817.812986323782	73
3	338	822.509751765786	74
3	339	825.408077004047	75
3	351	851.752644419216	76
3	356	862.148180444304	77
3	360	865.820696431589	78
3	361	866.921019966367	79
3	362	868.12056544065	80
3	365	873.220430049514	81
3	370	879.708433781384	82
3	371	884.10759528514	83
3	383	907.015242378468	84
3	386	907.906643775616	85
3	401	929.55853061157	86
3	402	929.567397292487	87
3	403	932.993957343693	88
3	411	938.773111386333	89
3	412	942.240461188402	90
3	417	951.58212943156	91
3	426	989.52570151018	92
3	427	991.561975557578	93
3	428	992.342368294072	94
3	436	1003.733859183773	95
3	442	1008.586201943769	96
3	443	1012.339351356791	97
3	446	1024.023907269371	98
3	447	1029.917492558599	99
3	448	1030.790401932186	100
3	458	1038.367916281142	101
3	459	1039.863256301022	102
3	460	1040.381634482094	103
3	461	1040.49980931283	104
3	462	1041.343003163542	105
3	474	1059.857986778695	106
3	475	1061.347926240073	107
3	476	1061.820600832425	108
3	477	1064.392825185972	109
3	478	1065.550199604697	110
3	479	1069.421120315324	111
3	480	1069.67804388736	112
3	507	1131.44617963792	113
3	508	1135.442326885812	114
3	509	1137.143535960447	115
3	512	1138.168209542368	116
3	513	1144.953865550965	117
3	518	1170.460343942778	118
3	519	1173.799942750099	119
3	522	1178.26298057109	120
3	544	1217.804583244156	121
3	545	1224.487760345195	122
3	546	1225.727537882981	123
3	549	1234.400015568717	124
3	557	1248.514081779955	125
3	558	1249.347866622651	126
3	561	1259.946783038468	127
3	567	1276.910546798796	128
3	573	1295.530406924292	129
3	576	1311.330891926202	130
3	579	1320.974725043963	131
3	582	1337.195785378936	132
3	585	1343.432179286036	133
3	592	1354.920277134243	134
3	593	1355.064896387257	135
3	594	1358.40697916058	136
3	599	1366.687058689306	137
3	602	1367.655239060573	138
3	605	1374.01657971534	139
3	606	1374.699880625482	140
3	609	1381.198638179076	141
3	615	1396.47693020261	142
3	624	1412.900793025604	143
3	629	1429.855421651356	144
3	632	1431.6749534579	145
3	633	1435.802680966893	146
3	643	1459.430080680758	147
3	644	1460.006674309019	148
3	650	1471.765219663054	149
3	651	1472.543067210228	150
3	654	1479.592568337555	151
3	659	1481.170299732985	152
3	660	1485.244453915023	153
3	668	1504.557979591804	154
3	669	1507.278232619876	155
3	675	1530.569403436126	156
3	683	1538.674045991647	157
3	684	1547.528251884317	158
3	702	1580.204222724413	159
3	708	1602.751188643513	160
3	711	1603.106972667577	161
3	712	1603.580721572594	162
3	713	1610.25289838968	163
3	714	1617.673100520736	164
3	715	1620.002196116904	165
3	722	1640.764526778005	166
3	723	1642.463290663427	167
3	724	1644.203215318224	168
3	725	1644.628335843634	169
3	729	1656.717773404854	170
3	732	1659.64310746817	171
3	735	1680.916692668018	172
3	738	1685.04097267551	173
3	747	1711.733494106845	174
3	752	1727.240002144991	175
3	753	1727.383163780103	176
3	759	1734.949225976883	177
3	765	1744.264928669064	178
3	774	1769.786856487806	179
3	780	1798.982293736326	180
3	797	1825.088522680841	181
3	798	1825.559653199007	182
3	799	1827.342832532463	183
3	800	1829.764208120905	184
3	801	1832.367157774171	185
3	807	1854.842426317318	186
3	824	1882.707674920296	187
3	825	1888.993187181096	188
3	826	1891.885452207908	189
3	830	1897.81361922031	190
3	831	1899.137425013106	191
3	838	1928.609823331164	192
3	841	1935.057114719194	193
3	842	1937.916343172469	194
3	843	1937.998751788089	195
3	846	1954.096004245413	196
3	849	1964.481140227335	197
3	852	1969.18326020111	198
3	855	1976.824220454058	199
3	858	1980.473444480105	200
3	870	1992.769877661576	201
3	881	2018.822052959823	202
3	886	2022.772090971302	203
3	887	2039.345908459232	204
3	888	2039.567799038891	205
3	889	2045.081509296536	206
3	890	2045.926753491145	207
3	903	2077.223577657329	208
3	904	2080.789353172573	209
3	905	2086.610697430416	210
3	906	2091.466009910237	211
3	914	2098.410281983078	212
3	915	2099.925218673526	213
3	921	2122.448730137811	214
3	945	2178.753928749821	215
3	946	2182.167882482081	216
3	962	2203.412305311002	217
3	969	2215.696759347984	218
3	972	2220.997583710558	219
3	978	2232.249240724728	220
3	979	2233.352627183776	221
3	980	2242.506218173315	222
3	983	2250.229302091032	223
3	984	2251.832724619486	224
3	985	2252.448204431917	225
3	986	2252.793655421869	226
3	990	2260.403862558628	227
3	993	2263.396114339537	228
3	1004	2284.805817975329	229
3	1005	2291.039657173233	230
3	1017	2311.060685391686	231
3	1021	2321.724388399028	232
3	1022	2322.272487494784	233
3	1023	2330.948724902649	234
3	1029	2350.975782646348	235
3	1035	2361.311803317373	236
3	1040	2368.576392217482	237
3	1041	2372.295014562473	238
3	1049	2397.911648011502	239
3	1063	2416.836839383155	240
3	1081	2457.4028642081	241
3	1082	2458.612889465675	242
3	1083	2465.784133337114	243
3	1084	2471.61669357794	244
3	1085	2475.249299422774	245
4	135	355.246525226324	0.689373370643
4	147	382.011684372745	16.398409739932
4	148	382.463790620382	13.08853530311
4	149	382.933976325053	12.348742452981
4	150	384.215273801942	4.533562903217
4	155	397.305467285273	0.913402085671
4	156	399.44481383053	2.962481501274
4	162	409.267466244052	3.304085573547
4	165	412.254654660876	1.404361882864
4	175	426.574788259711	12.173928081875
4	176	434.584298868774	18.795622776973
4	177	437.5509208225	12.824223209646
4	183	459.580325610747	3.468457889171
4	196	486.50683657748	8.001988957053
4	197	491.771986331098	13.075058310087
4	198	494.477250325946	14.04525448579
4	209	509.687775265417	1.23599940965
4	210	509.746527643269	0.888819475996
4	219	529.263603272479	4.973793904329
4	225	553.686782056565	0.392052672372
4	231	575.560093337739	2.14459648744
4	236	586.33526970671	7.007561687472
4	241	587.922662715879	6.693448408662
4	244	595.093528296758	8.042019042569
4	245	595.716235715151	7.885666849669
4	252	604.633983896365	16.123736003295
4	253	605.358215023117	7.666474374767
4	254	618.039843528615	18.413939288901
4	257	631.329077363337	29.864279065916
4	258	634.625173712384	13.069966424133
4	261	647.672762025102	12.898239979669
4	264	653.702966907537	0.379655289695
4	267	659.408361334603	0.835062883426
4	275	706.571185476976	22.074773282186
4	276	706.669612838741	14.667369215146
4	282	719.068039308541	6.639984542159
4	285	741.080819178449	0.915417034132
4	294	763.626234260778	5.427163926903
4	310	775.047774696856	7.92738227164
4	313	782.463384877554	13.865028523205
4	316	788.511079759551	18.767663695159
4	326	805.823845199814	33.993891101945
4	329	809.136850199797	34.709304781757
4	330	812.584655718068	30.278076776666
4	333	814.421145967577	29.742388771851
4	336	817.806412243907	27.990622653481
4	337	817.812986323782	25.702362113932
4	338	822.509751765786	28.405826570513
4	339	825.408077004047	21.153801954333
4	351	851.752644419216	38.565485113205
4	356	862.148180444304	46.202977478331
4	360	865.820696431589	34.676905894032
4	361	866.921019966367	35.312539806522
4	362	868.12056544065	31.920052259093
4	365	873.220430049514	27.005134275328
4	370	879.708433781384	23.713707357841
4	371	884.10759528514	25.589301025917
4	383	907.015242378468	33.912384155927
4	386	907.906643775616	33.31006700268
4	401	929.55853061157	44.386190604318
4	402	929.567397292487	39.685804457851
4	403	932.993957343693	38.778752730943
4	411	938.773111386333	37.575644980992
4	412	942.240461188402	34.736568397997
4	417	951.58212943156	40.637351304896
4	426	989.52570151018	65.973304389692
4	427	991.561975557578	65.083574924197
4	428	992.342368294072	64.995645423914
4	436	1003.733859183773	68.296147919115
4	442	1008.586201943769	60.426351019357
4	443	1012.339351356791	63.693840841034
4	446	1024.023907269371	64.189612935606
4	447	1029.917492558599	58.686188799689
4	448	1030.790401932186	35.349377281896
4	458	1038.367916281142	36.12086048333
4	459	1039.863256301022	35.587057004525
4	460	1040.381634482094	35.440853845213
4	461	1040.49980931283	25.410146211592
4	462	1041.343003163542	10.399850563974
4	474	1059.857986778695	25.988186411357
4	475	1061.347926240073	26.129298125884
4	476	1061.820600832425	19.714521463755
4	477	1064.392825185972	21.499490995622
4	478	1065.550199604697	20.642489506476
4	479	1069.421120315324	19.310874328877
4	480	1069.67804388736	13.199816808689
4	507	1131.44617963792	20.522159980096
4	508	1135.442326885812	18.865100632889
4	509	1137.143535960447	17.919820643013
4	512	1138.168209542368	17.797782104709
4	513	1144.953865550965	6.852799013411
4	518	1170.460343942778	11.462574566955
4	519	1173.799942750099	9.410328646961
4	522	1178.26298057109	1.894598743705
4	544	1217.804583244156	13.525986462078
4	545	1224.487760345195	15.0201619996
4	546	1225.727537882981	13.644239636383
4	549	1234.400015568717	1.438155956296
4	557	1248.514081779955	6.807127538082
4	558	1249.347866622651	2.337411499748
4	561	1259.946783038468	9.750265124954
4	567	1276.910546798796	4.634420253321
4	573	1295.530406924292	7.906885915557
4	576	1311.330891926202	10.485768765415
4	579	1320.974725043963	0.395759056822
4	582	1337.195785378936	4.610999596548
4	585	1343.432179286036	1.791706386379
4	592	1354.920277134243	2.20801926798
4	593	1355.064896387257	1.468023926622
4	594	1358.40697916058	3.976516260585
4	599	1366.687058689306	3.161790871732
4	602	1367.655239060573	3.673218838493
4	605	1374.01657971534	7.21817297982
4	606	1374.699880625482	6.901081597225
4	609	1381.198638179076	0.209987877817
4	615	1396.47693020261	8.844530941707
4	624	1412.900793025604	3.584866541599
4	629	1429.855421651356	7.458746209614
4	632	1431.6749534579	2.047697701583
4	633	1435.802680966893	5.117592194037
4	643	1459.430080680758	19.127555520721
4	644	1460.006674309019	19.405107220365
4	650	1471.765219663054	9.209924927981
4	651	1472.543067210228	2.453455995545
4	654	1479.592568337555	1.736044407907
4	659	1481.170299732985	1.535996194778
4	660	1485.244453915023	4.226872667602
4	668	1504.557979591804	14.578613736254
4	669	1507.278232619876	7.765095639415
4	675	1530.569403436126	1.027758970843
4	683	1538.674045991647	4.612330506032
4	684	1547.528251884317	8.897325890759
4	702	1580.204222724413	26.754983451271
4	708	1602.751188643513	44.25301130497
4	711	1603.106972667577	41.806467006206
4	712	1603.580721572594	41.11692114299
4	713	1610.25289838968	44.121662309042
4	714	1617.673100520736	40.020999100848
4	715	1620.002196116904	29.531460894855
4	722	1640.764526778005	45.205911453964
4	723	1642.463290663427	39.675749224022
4	724	1644.203215318224	14.912869102002
4	725	1644.628335843634	6.860044350137
4	729	1656.717773404854	10.84335524891
4	732	1659.64310746817	1.934197845557
4	735	1680.916692668018	5.42120042275
4	738	1685.04097267551	2.85629688271
4	747	1711.733494106845	14.095769861514
4	752	1727.240002144991	12.987361752874
4	753	1727.383163780103	1.430167320657
4	759	1734.949225976883	1.857757327349
4	765	1744.264928669064	0.662627705852
4	774	1769.786856487806	0.049786194081
4	780	1798.982293736326	1.552643866972
4	797	1825.088522680841	13.971053500714
4	798	1825.559653199007	12.831961859094
4	799	1827.342832532463	8.047761198383
4	800	1829.764208120905	9.930000879103
4	801	1832.367157774171	8.537817845805
4	807	1854.842426317318	4.783996731868
4	824	1882.707674920296	12.566873591358
4	825	1888.993187181096	16.899436590957
4	826	1891.885452207908	15.479483584042
4	830	1897.81361922031	17.651581382295
4	831	1899.137425013106	5.684290897122
4	838	1928.609823331164	14.127209725096
4	841	1935.057114719194	14.176136960678
4	842	1937.916343172469	13.169682874137
4	843	1937.998751788089	8.263431039689
4	846	1954.096004245413	2.66289823625
4	849	1964.481140227335	3.4003142945
4	852	1969.18326020111	0.219568408875
4	855	1976.824220454058	2.11992245295
4	858	1980.473444480105	1.131217990885
4	870	1992.769877661576	8.931584548347
4	881	2018.822052959823	29.665442477346
4	886	2022.772090971302	32.421896454
4	887	2039.345908459232	45.906137825077
4	888	2039.567799038891	43.786973387546
4	889	2045.081509296536	48.550395393652
4	890	2045.926753491145	26.12462184448
4	903	2077.223577657329	16.343987803662
4	904	2080.789353172573	19.880454455271
4	905	2086.610697430416	19.419426521496
4	906	2091.466009910237	20.786910323348
4	914	2098.410281983078	5.923813821632
4	915	2099.925218673526	6.384613989925
4	921	2122.448730137811	2.294683550109
4	945	2178.753928749821	45.394864048078
4	946	2182.167882482081	41.824243776141
4	962	2203.412305311002	37.95208589274
4	969	2215.696759347984	32.748225669788
4	972	2220.997583710558	31.785075603118
4	978	2232.249240724728	38.334362656942
4	979	2233.352627183776	39.39846307587
4	980	2242.506218173315	47.945206860407
4	983	2250.229302091032	49.463199739645
4	984	2251.832724619486	41.603714111696
4	985	2252.448204431917	40.647247023123
4	986	2252.793655421869	39.668639223293
4	990	2260.403862558628	32.392450312042
4	993	2263.396114339537	32.326336361079
4	1004	2284.805817975329	23.924419011936
4	1005	2291.039657173233	20.572097249541
4	1017	2311.060685391686	33.915550734303
4	1021	2321.724388399028	29.368083444313
4	1022	2322.272487494784	17.107357052349
4	1023	2330.948724902649	18.355092240502
4	1029	2350.975782646348	5.729850404828
4	1035	2361.311803317373	0.521883741718
4	1040	2368.576392217482	5.877533152669
4	1041	2372.295014562473	8.651491191917
4	1049	2397.911648011502	5.693478781234
4	1063	2416.836839383155	16.181711853559
4	1081	2457.4028642081	34.107817785034
4	1082	2458.612889465675	35.213028937478
4	1083	2465.784133337114	38.773270392898
4	1084	2471.61669357794	34.240440328081
4	1085	2475.249299422774	35.260737402831
5	141	369.375255317272	1
5	158	404.258574086135	1
5	171	415.788676091801	1
5	179	443.919676013075	1
5	185	470.546870107225	1
5	194	480.431995840156	1
5	200	495.029730108993	1
5	203	500.513567475372	1
5	212	517.809300423735	1
5	215	521.192237302952	1
5	221	541.925002229654	1
5	227	567.695925539455	1
5	269	660.252978140038	1
5	278	709.366630100926	1
5	287	743.646848964604	1
5	290	756.458935907148	1
5	298	767.120392425216	1
5	318	789.815789590426	1
5	345	831.608480159845	1
5	358	863.970073409175	1
5	379	898.688180290939	1
5	388	910.944778126664	1
5	390	912.065066633432	2
5	405	934.472084532428	1
5	419	959.834294333765	1
5	421	963.034023953894	2
5	430	995.44102465029	1
5	438	1004.276199296497	1
5	450	1030.943152599568	1
5	470	1050.110245986447	1
5	482	1074.807943387107	1
5	486	1086.494175780376	2
5	489	1102.06552599861	2
5	497	1119.223715317434	1
5	501	1121.890324746436	2
5	504	1123.663479696237	2
5	524	1186.897939430832	1
5	526	1191.951539220539	2
5	532	1202.276890746692	1
5	536	1207.192094069512	2
5	542	1212.083298246598	1
5	555	1247.010455122903	1
5	565	1272.276126545475	1
5	569	1284.608791838486	1
5	613	1387.632399260903	1
5	617	1403.412013724196	1
5	622	1409.315926484005	1
5	637	1440.302525160037	1
5	646	1462.555294735073	1
5	662	1489.486066902343	1
5	671	1507.762238717833	1
5	677	1533.228522866138	1
5	692	1558.498177338543	1
5	704	1590.470735222049	1
5	727	1645.874418155944	1
5	740	1688.598277283569	1
5	742	1697.269698461538	2
5	755	1731.744765826945	1
5	761	1737.595552176882	1
5	767	1744.899527686484	1
5	770	1755.198627303625	1
5	776	1782.557906561692	1
5	784	1810.00658113624	1
5	793	1819.834207241802	1
5	803	1845.586409673488	1
5	809	1858.271437782732	1
5	812	1868.692586631094	1
5	828	1893.453134115984	1
5	864	1984.3531764257	1
5	872	1993.439770634155	1
5	878	2005.414674315447	2
5	892	2057.829292268349	1
5	899	2067.19127090892	1
5	912	2093.540604683601	1
5	917	2118.272495163052	1
5	923	2123.862463980623	1
5	925	2125.583614538701	2
5	931	2148.351335550223	3
5	936	2158.513685384924	3
5	938	2159.742235841395	4
5	950	2189.21250810744	1
5	974	2228.011412246586	1
5	988	2256.953625658148	1
5	995	2270.467559923692	1
5	1000	2277.145134657383	1
5	1007	2292.356304954715	1
5	1009	2296.559424856657	2
5	1012	2299.848805152245	2
5	1019	2312.593632662147	1
5	1027	2345.24593224152	1
5	1031	2353.399464487008	1
5	1043	2372.427930054302	1
5	1051	2398.96845263205	1
5	1056	2404.701489116181	1
5	1058	2408.893875339512	2
5	1065	2418.968326914021	1
5	1072	2427.010862944216	1
5	1079	2443.433928593672	1
5	1091	2480.621220096792	1
5	1094	2496.852317827315	1
6	141	369.375255317272	0
6	144	373.532728548564	0
6	158	404.258574086135	0
6	161	408.760242648329	0
6	171	415.788676091801	0
6	172	422.610861457018	0
6	179	443.919676013075	0
6	180	456.105937011118	0
6	185	470.546870107225	0
6	192	480.316730593902	0
6	194	480.431995840156	0
6	195	482.842381605759	0
6	200	495.029730108993	0
6	201	497.907059573083	0
6	203	500.513567475372	0
6	204	503.508356176756	0
6	212	517.809300423735	0
6	213	518.21856455998	0
6	215	521.192237302952	0
6	218	527.923469235577	0
6	221	541.925002229654	0
6	222	543.964293529809	0
6	227	567.695925539455	0
6	230	574.390182052135	0
6	269	660.252978140038	0
6	270	674.673614599201	0
6	278	709.366630100926	0
6	281	716.472270417634	0
6	287	743.646848964604	0
6	288	745.086949761749	0
6	290	756.458935907148	0
6	293	759.006575221405	0
6	298	767.120392425216	0
6	305	770.730629714038	0
6	318	789.815789590426	0
6	325	805.731044619066	0
6	345	831.608480159845	0
6	350	847.668314676681	0
6	358	863.970073409175	0
6	359	865.797690153552	0
6	379	898.688180290939	0
6	380	898.839467028406	0
6	388	910.944778126664	0
6	390	912.065066633432	1
6	393	919.280877725115	1
6	396	924.786861598966	0
6	405	934.472084532428	0
6	408	936.237457766188	0
6	419	959.834294333765	0
6	421	963.034023953894	1
6	424	977.824247420878	1
6	425	989.258975485873	0
6	430	995.44102465029	0
6	431	997.011573829107	0
6	438	1004.276199296497	0
6	441	1005.423545601315	0
6	450	1030.943152599568	0
6	457	1035.714098039197	0
6	470	1050.110245986447	0
6	473	1059.495986691178	0
6	482	1074.807943387107	0
6	486	1086.494175780376	1
6	487	1089.197787876334	1
6	489	1102.06552599861	1
6	490	1105.845749512119	1
6	491	1106.703220066303	0
6	497	1119.223715317434	0
6	501	1121.890324746436	1
6	502	1122.79794148703	1
6	504	1123.663479696237	1
6	505	1127.244566128022	1
6	506	1130.157946247366	0
6	524	1186.897939430832	0
6	526	1191.951539220539	1
6	527	1195.225550268829	1
6	528	1197.879649829272	0
6	532	1202.276890746692	0
6	536	1207.192094069512	1
6	537	1208.910952230562	1
6	540	1210.200186493487	0
6	542	1212.083298246598	0
6	543	1215.867182327111	0
6	555	1247.010455122903	0
6	556	1247.645778875184	0
6	565	1272.276126545475	0
6	566	1273.651466709896	0
6	569	1284.608791838486	0
6	572	1288.562853887181	0
6	613	1387.632399260903	0
6	614	1391.681483838542	0
6	617	1403.412013724196	0
6	620	1409.118913672285	0
6	622	1409.315926484005	0
6	623	1412.110893656107	0
6	637	1440.302525160037	0
6	642	1458.428622185384	0
6	646	1462.555294735073	0
6	647	1466.448941538257	0
6	662	1489.486066902343	0
6	665	1492.059295781577	0
6	671	1507.762238717833	0
6	672	1510.495439398762	0
6	677	1533.228522866138	0
6	680	1535.170573202428	0
6	692	1558.498177338543	0
6	699	1569.416094424424	0
6	704	1590.470735222049	0
6	705	1594.019760224002	0
6	727	1645.874418155944	0
6	728	1654.657294860339	0
6	740	1688.598277283569	0
6	742	1697.269698461538	1
6	745	1707.606479345181	1
6	746	1709.867698733043	0
6	755	1731.744765826945	0
6	756	1732.932376368941	0
6	761	1737.595552176882	0
6	762	1742.696117493326	0
6	767	1744.899527686484	0
6	768	1745.823442059798	0
6	770	1755.198627303625	0
6	771	1757.136817150218	0
6	776	1782.557906561692	0
6	777	1783.081118844034	0
6	784	1810.00658113624	0
6	789	1813.624697345306	0
6	793	1819.834207241802	0
6	796	1824.588501197051	0
6	803	1845.586409673488	0
6	804	1848.198662943838	0
6	809	1858.271437782732	0
6	810	1860.499639654195	0
6	812	1868.692586631094	0
6	817	1875.119727454448	0
6	828	1893.453134115984	0
6	829	1895.446865799659	0
6	864	1984.3531764257	0
6	865	1987.128733739562	0
6	872	1993.439770634155	0
6	878	2005.414674315447	1
6	879	2008.669124808008	1
6	880	2012.356172050053	0
6	892	2057.829292268349	0
6	897	2061.237289987611	0
6	899	2067.19127090892	0
6	902	2074.814599264897	0
6	912	2093.540604683601	0
6	913	2096.796125237238	0
6	917	2118.272495163052	0
6	920	2121.468794396419	0
6	923	2123.862463980623	0
6	925	2125.583614538701	1
6	931	2148.351335550223	2
6	932	2149.571055458005	2
6	936	2158.513685384924	2
6	938	2159.742235841395	3
6	939	2163.784896325074	3
6	942	2173.251659740016	2
6	943	2174.445670844145	1
6	944	2176.96888535555	0
6	950	2189.21250810744	0
6	959	2197.320825971369	0
6	974	2228.011412246586	0
6	975	2230.154369015752	0
6	988	2256.953625658148	0
6	989	2260.246598148717	0
6	995	2270.467559923692	0
6	996	2274.674093462579	0
6	1000	2277.145134657383	0
6	1003	2280.480633000732	0
6	1007	2292.356304954715	0
6	1009	2296.559424856657	1
6	1010	2298.213438343872	1
6	1012	2299.848805152245	1
6	1013	2304.250400605821	1
6	1016	2310.670065361896	0
6	1019	2312.593632662147	0
6	1020	2317.033885629925	0
6	1027	2345.24593224152	0
6	1028	2347.045559619656	0
6	1031	2353.399464487008	0
6	1032	2356.615155770678	0
6	1043	2372.427930054302	0
6	1044	2375.545100977132	0
6	1051	2398.96845263205	0
6	1052	2398.97702002172	0
6	1056	2404.701489116181	0
6	1058	2408.893875339512	1
6	1061	2411.303866228197	1
6	1062	2411.884665466817	0
6	1065	2418.968326914021	0
6	1066	2422.441897161037	0
6	1072	2427.010862944216	0
6	1073	2434.425592283015	0
6	1079	2443.433928593672	0
6	1080	2452.566214809497	0
6	1091	2480.621220096792	0
6	1092	2485.079602460126	0
6	1094	2496.852317827315	0
7	141	369.375255317272	7
7	171	415.788676091801	8
7	194	480.431995840156	9
7	298	767.120392425216	10
7	318	789.815789590426	11
7	345	831.608480159845	12
7	358	863.970073409175	13
7	379	898.688180290939	14
7	388	910.944778126664	15
7	405	934.472084532428	16
7	419	959.834294333765	17
7	430	995.44102465029	18
7	438	1004.276199296497	19
7	450	1030.943152599568	20
7	470	1050.110245986447	21
7	497	1119.223715317434	22
7	532	1202.276890746692	23
7	542	1212.083298246598	24
7	555	1247.010455122903	25
7	565	1272.276126545475	26
7	613	1387.632399260903	27
7	622	1409.315926484005	28
7	637	1440.302525160037	29
7	646	1462.555294735073	30
7	692	1558.498177338543	31
7	704	1590.470735222049	32
7	727	1645.874418155944	33
7	784	1810.00658113624	34
7	793	1819.834207241802	35
7	828	1893.453134115984	36
7	864	1984.3531764257	37
7	872	1993.439770634155	38
7	892	2057.829292268349	39
7	899	2067.19127090892	40
7	912	2093.540604683601	41
7	950	2189.21250810744	42
7	974	2228.011412246586	43
7	988	2256.953625658148	44
7	995	2270.467559923692	45
7	1000	2277.145134657383	46
7	1007	2292.356304954715	47
7	1019	2312.593632662147	48
7	1027	2345.24593224152	49
7	1051	2398.96845263205	50
7	1056	2404.701489116181	51
7	1065	2418.968326914021	52
7	1072	2427.010862944216	53
7	1079	2443.433928593672	54
7	1091	2480.621220096792	55
7	1094	2496.852317827315	56
8	141	369.375255317272	0
8	158	404.258574086135	0
8	171	415.788676091801	0
8	179	443.919676013075	0
8	185	470.546870107225	0
8	194	480.431995840156	0
8	200	495.029730108993	0
8	203	500.513567475372	0
8	212	517.809300423735	0
8	215	521.192237302952	0
8	221	541.925002229654	0
8	227	567.695925539455	0
8	269	660.252978140038	0
8	278	709.366630100926	0
8	287	743.646848964604	0
8	290	756.458935907148	0
8	298	767.120392425216	0
8	318	789.815789590426	0
8	345	831.608480159845	0
8	358	863.970073409175	0
8	379	898.688180290939	0
8	388	910.944778126664	0
8	393	919.280877725115	7.215811091683
8	405	934.472084532428	0
8	419	959.834294333765	0
8	424	977.824247420878	14.790223466984
8	430	995.44102465029	0
8	438	1004.276199296497	0
8	450	1030.943152599568	0
8	470	1050.110245986447	0
8	482	1074.807943387107	0
8	487	1089.197787876334	2.703612095958
8	490	1105.845749512119	3.780223513509
8	497	1119.223715317434	0
8	502	1122.79794148703	0.907616740594
8	505	1127.244566128022	3.581086431785
8	524	1186.897939430832	0
8	527	1195.225550268829	3.27401104829
8	532	1202.276890746692	0
8	537	1208.910952230562	1.71885816105
8	542	1212.083298246598	0
8	555	1247.010455122903	0
8	565	1272.276126545475	0
8	569	1284.608791838486	0
8	613	1387.632399260903	0
8	617	1403.412013724196	0
8	622	1409.315926484005	0
8	637	1440.302525160037	0
8	646	1462.555294735073	0
8	662	1489.486066902343	0
8	671	1507.762238717833	0
8	677	1533.228522866138	0
8	692	1558.498177338543	0
8	704	1590.470735222049	0
8	727	1645.874418155944	0
8	740	1688.598277283569	0
8	745	1707.606479345181	10.336780883643
8	755	1731.744765826945	0
8	761	1737.595552176882	0
8	767	1744.899527686484	0
8	770	1755.198627303625	0
8	776	1782.557906561692	0
8	784	1810.00658113624	0
8	793	1819.834207241802	0
8	803	1845.586409673488	0
8	809	1858.271437782732	0
8	812	1868.692586631094	0
8	828	1893.453134115984	0
8	864	1984.3531764257	0
8	872	1993.439770634155	0
8	879	2008.669124808008	3.254450492561
8	892	2057.829292268349	0
8	899	2067.19127090892	0
8	912	2093.540604683601	0
8	917	2118.272495163052	0
8	923	2123.862463980623	0
8	932	2149.571055458005	23.987440919304
8	939	2163.784896325074	15.433560774851
8	942	2173.251659740016	14.737974355092
8	943	2174.445670844145	14.70343500275
8	950	2189.21250810744	0
8	974	2228.011412246586	0
8	988	2256.953625658148	0
8	995	2270.467559923692	0
8	1000	2277.145134657383	0
8	1007	2292.356304954715	0
8	1010	2298.213438343872	1.654013487215
8	1013	2304.250400605821	4.401595453576
8	1019	2312.593632662147	0
8	1027	2345.24593224152	0
8	1031	2353.399464487008	0
8	1043	2372.427930054302	0
8	1051	2398.96845263205	0
8	1056	2404.701489116181	0
8	1061	2411.303866228197	2.409990888685
8	1065	2418.968326914021	0
8	1072	2427.010862944216	0
8	1079	2443.433928593672	0
8	1091	2480.621220096792	0
8	1094	2496.852317827315	0
9	144	373.532728548564	19
9	161	408.760242648329	20
9	172	422.610861457018	21
9	180	456.105937011118	22
9	192	480.316730593902	23
9	195	482.842381605759	24
9	201	497.907059573083	25
9	204	503.508356176756	26
9	213	518.21856455998	27
9	218	527.923469235577	28
9	222	543.964293529809	29
9	230	574.390182052135	30
9	270	674.673614599201	31
9	281	716.472270417634	32
9	288	745.086949761749	33
9	293	759.006575221405	34
9	305	770.730629714038	35
9	325	805.731044619066	36
9	350	847.668314676681	37
9	359	865.797690153552	38
9	380	898.839467028406	39
9	393	919.280877725115	40
9	396	924.786861598966	41
9	408	936.237457766188	42
9	424	977.824247420878	43
9	425	989.258975485873	44
9	431	997.011573829107	45
9	441	1005.423545601315	46
9	457	1035.714098039197	47
9	473	1059.495986691178	48
9	487	1089.197787876334	49
9	490	1105.845749512119	50
9	491	1106.703220066303	51
9	502	1122.79794148703	52
9	505	1127.244566128022	53
9	506	1130.157946247366	54
9	527	1195.225550268829	55
9	528	1197.879649829272	56
9	537	1208.910952230562	57
9	540	1210.200186493487	58
9	543	1215.867182327111	59
9	556	1247.645778875184	60
9	566	1273.651466709896	61
9	572	1288.562853887181	62
9	614	1391.681483838542	63
9	620	1409.118913672285	64
9	623	1412.110893656107	65
9	642	1458.428622185384	66
9	647	1466.448941538257	67
9	665	1492.059295781577	68
9	672	1510.495439398762	69
9	680	1535.170573202428	70
9	699	1569.416094424424	71
9	705	1594.019760224002	72
9	728	1654.657294860339	73
9	745	1707.606479345181	74
9	746	1709.867698733043	75
9	756	1732.932376368941	76
9	762	1742.696117493326	77
9	768	1745.823442059798	78
9	771	1757.136817150218	79
9	777	1783.081118844034	80
9	789	1813.624697345306	81
9	796	1824.588501197051	82
9	804	1848.198662943838	83
9	810	1860.499639654195	84
9	817	1875.119727454448	85
9	829	1895.446865799659	86
9	865	1987.128733739562	87
9	879	2008.669124808008	88
9	880	2012.356172050053	89
9	897	2061.237289987611	90
9	902	2074.814599264897	91
9	913	2096.796125237238	92
9	920	2121.468794396419	93
9	932	2149.571055458005	94
9	939	2163.784896325074	95
9	942	2173.251659740016	96
9	943	2174.445670844145	97
9	944	2176.96888535555	98
9	959	2197.320825971369	99
9	975	2230.154369015752	100
9	989	2260.246598148717	101
9	996	2274.674093462579	102
9	1003	2280.480633000732	103
9	1010	2298.213438343872	104
9	1013	2304.250400605821	105
9	1016	2310.670065361896	106
9	1020	2317.033885629925	107
9	1028	2347.045559619656	108
9	1032	2356.615155770678	109
9	1044	2375.545100977132	110
9	1052	2398.97702002172	111
9	1061	2411.303866228197	112
9	1062	2411.884665466817	113
9	1066	2422.441897161037	114
9	1073	2434.425592283015	115
9	1080	2452.566214809497	116
9	1092	2485.079602460126	117
10	144	373.532728548564	4.157473231292
10	161	408.760242648329	4.501668562194
10	172	422.610861457018	6.822185365217
10	180	456.105937011118	12.186260998043
10	192	480.316730593902	9.769860486677
10	195	482.842381605759	2.410385765603
10	201	497.907059573083	2.87732946409
10	204	503.508356176756	2.994788701384
10	213	518.21856455998	0.409264136245
10	218	527.923469235577	6.731231932625
10	222	543.964293529809	2.039291300155
10	230	574.390182052135	6.69425651268
10	270	674.673614599201	14.420636459163
10	281	716.472270417634	7.105640316708
10	288	745.086949761749	1.440100797145
10	293	759.006575221405	2.547639314257
10	305	770.730629714038	3.610237288822
10	325	805.731044619066	15.91525502864
10	350	847.668314676681	16.059834516836
10	359	865.797690153552	1.827616744377
10	380	898.839467028406	0.151286737467
10	393	919.280877725115	8.336099598451
10	396	924.786861598966	12.721794965534
10	408	936.237457766188	1.76537323376
10	424	977.824247420878	17.989953087113
10	425	989.258975485873	26.224951531979
10	431	997.011573829107	1.570549178817
10	441	1005.423545601315	1.147346304818
10	457	1035.714098039197	4.770945439629
10	473	1059.495986691178	9.385740704731
10	487	1089.197787876334	14.389844489227
10	490	1105.845749512119	19.351573731743
10	491	1106.703220066303	4.637694067693
10	502	1122.79794148703	3.574226169596
10	505	1127.244566128022	5.354241381586
10	506	1130.157946247366	6.494466551129
10	527	1195.225550268829	8.327610837997
10	528	1197.879649829272	5.928110608733
10	537	1208.910952230562	6.63406148387
10	540	1210.200186493487	3.008092423975
10	543	1215.867182327111	3.783884080513
10	556	1247.645778875184	0.635323752281
10	566	1273.651466709896	1.375340164421
10	572	1288.562853887181	3.954062048695
10	614	1391.681483838542	4.049084577639
10	620	1409.118913672285	5.706899948089
10	623	1412.110893656107	2.794967172102
10	642	1458.428622185384	18.126097025347
10	647	1466.448941538257	3.893646803184
10	665	1492.059295781577	2.573228879234
10	672	1510.495439398762	2.733200680929
10	680	1535.170573202428	1.94205033629
10	699	1569.416094424424	10.917917085881
10	705	1594.019760224002	3.549025001953
10	728	1654.657294860339	8.782876704395
10	745	1707.606479345181	19.008202061612
10	746	1709.867698733043	12.598000271505
10	756	1732.932376368941	1.187610541996
10	762	1742.696117493326	5.100565316444
10	768	1745.823442059798	0.923914373314
10	771	1757.136817150218	1.938189846593
10	777	1783.081118844034	0.523212282342
10	789	1813.624697345306	3.618116209066
10	796	1824.588501197051	4.754293955249
10	804	1848.198662943838	2.61225327035
10	810	1860.499639654195	2.228201871463
10	817	1875.119727454448	6.427140823354
10	829	1895.446865799659	1.993731683675
10	865	1987.128733739562	2.775557313862
10	879	2008.669124808008	15.229354173853
10	880	2012.356172050053	6.941497734606
10	897	2061.237289987611	3.407997719262
10	902	2074.814599264897	7.623328355977
10	913	2096.796125237238	3.255520553637
10	920	2121.468794396419	3.196299233367
10	932	2149.571055458005	25.708591477382
10	939	2163.784896325074	38.201281786373
10	942	2173.251659740016	24.900324189793
10	943	2174.445670844145	15.931985459221
10	944	2176.96888535555	17.226649514155
10	959	2197.320825971369	8.108317863929
10	975	2230.154369015752	2.142956769166
10	989	2260.246598148717	3.292972490569
10	996	2274.674093462579	4.206533538887
10	1003	2280.480633000732	3.335498343349
10	1010	2298.213438343872	5.857133389157
10	1013	2304.250400605821	7.690975749164
10	1016	2310.670065361896	10.821260209651
10	1020	2317.033885629925	4.440252967778
10	1028	2347.045559619656	1.799627378136
10	1032	2356.615155770678	3.21569128367
10	1044	2375.545100977132	3.11717092283
10	1052	2398.97702002172	0.00856738967
10	1061	2411.303866228197	6.602377112016
10	1062	2411.884665466817	2.990790127305
10	1066	2422.441897161037	3.473570247016
10	1073	2434.425592283015	7.414729338799
10	1080	2452.566214809497	9.132286215825
10	1092	2485.079602460126	4.458382363334
11	1095	2500	0.098
12	1095	2500	0.0468

