version 2
run experiments_medium_game_mode1-308-20230311-09:41:00-10220
attr configname experiments_medium_game_mode1
attr datetime 20230311-09:41:00
attr experiment experiments_medium_game_mode1
attr inifile omnetpp.ini
attr iterationvars "$0=5.5, $1=3, $2=0"
attr iterationvarsf 5.5,3,0-
attr measurement "$0=5.5, $1=3, $2=0"
attr network Network
attr processid 10220
attr repetition 8
attr replication #8
attr resultdir results
attr runnumber 308
attr seedset 8
param *.boss.arrival_mean 20
param *.boss.service_mean 5.5
param *.minion.arrival_mean 10
param *.minion.service_mean 3
param *.player.recover_rate_x 0
param **.minion.arrival_distribution 0
param **.minion.service_distribution 0
param **.boss.arrival_distribution 0
param **.boss.service_distribution 0

vector 0 Network.player minion_defeated_stat:vector ETV
attr source signal_minion_defeated
vector 1 Network.player minion_jobs_queue_number_stat:vector ETV
attr source signal_minion_jobs_queue_number
vector 2 Network.player minion_response_time_stat:vector ETV
attr source signal_minion_response_time
vector 3 Network.player minion_waiting_time_stat:vector ETV
attr source signal_minion_waiting_time
vector 4 Network.player minion_jobs_number_stat:vector ETV
attr source signal_minion_jobs_number
vector 5 Network.player boss_jobs_number_stat:vector ETV
attr source signal_boss_jobs_number
vector 6 Network.player boss_jobs_queue_number_stat:vector ETV
attr source signal_boss_jobs_queue_number
vector 7 Network.player boss_waiting_time_stat:vector ETV
attr source signal_boss_waiting_time
vector 8 Network.player boss_defeated_stat:vector ETV
attr source signal_boss_defeated
vector 9 Network.player boss_response_time_stat:vector ETV
attr source signal_boss_response_time
vector 10 Network.player minion_recovered_stat:vector ETV
attr source signal_minion_recovered
vector 11 Network.player minion_throughput:vector ETV
attr source signal_minion_throughput
vector 12 Network.player boss_throughput:vector ETV
attr source signal_boss_throughput
0	169	350.119151182427	30
0	172	360.104583452611	31
0	173	362.49600845405	32
0	178	368.872545039882	33
0	179	369.182416910415	34
0	180	371.226449074631	35
0	181	371.81352490317	36
0	182	373.350801815013	37
0	183	374.70623867713	38
0	189	384.171166126389	39
0	195	442.002367204697	40
0	208	481.862327760358	41
0	209	486.323897672966	42
0	213	499.639248822457	43
0	216	504.238953838474	44
0	227	536.609671860439	45
0	228	537.495336302537	46
0	231	539.482581591665	47
0	234	545.372761029398	48
0	239	550.418505291851	49
0	240	552.887361610491	50
0	249	624.631748247413	51
0	255	626.865791188854	52
0	258	637.352563078327	53
0	261	646.4256674663	54
0	296	732.805207371765	55
0	304	743.5440022624	56
0	307	746.802554457785	57
0	310	750.653742133788	58
0	313	751.785331814669	59
0	321	762.899766675671	60
0	329	776.078425533379	61
0	335	785.688496597293	62
0	336	789.066624251898	63
0	337	790.274676484982	64
0	338	792.503085413531	65
0	339	793.813870071928	66
0	342	797.151314505978	67
0	345	799.649660953634	68
0	346	799.786689272711	69
0	347	800.033673692839	70
0	348	806.993018441452	71
0	349	808.943207710368	72
0	350	811.378421401528	73
0	351	811.705265587634	74
0	354	814.039996757668	75
0	357	814.583230894698	76
0	363	830.465664353002	77
0	377	859.016692119377	78
0	383	870.115068489498	79
0	384	870.1619760766	80
0	387	877.18026917341	81
0	390	886.99356901671	82
0	393	895.137318030668	83
0	398	904.803046206189	84
0	399	908.520828191866	85
0	402	915.307791249262	86
0	408	922.860388957786	87
0	411	927.646154471016	88
0	420	970.031656393017	89
0	423	972.427153727949	90
0	426	982.959612095444	91
0	429	986.868150101674	92
0	432	995.92904062586	93
0	435	998.508864723771	94
0	438	1010.417600003393	95
0	441	1034.111152481092	96
0	444	1048.291893680699	97
0	449	1055.980830345782	98
0	450	1056.421634410466	99
0	460	1083.711558765262	100
0	461	1086.428618104517	101
0	464	1091.113133797484	102
0	465	1091.645382537807	103
0	470	1103.26824684189	104
0	471	1108.131673497595	105
0	479	1121.559000276433	106
0	480	1123.639201791163	107
0	523	1197.969945150005	108
0	524	1198.153957955663	109
0	525	1198.698606641782	110
0	526	1200.190685622949	111
0	527	1200.616912354801	112
0	528	1203.517892560286	113
0	529	1207.66794670974	114
0	530	1208.293420382565	115
0	531	1211.315125260927	116
0	540	1237.251624409848	117
0	545	1256.089187871165	118
0	546	1256.368764563772	119
0	552	1298.556271659111	120
0	555	1302.939351393966	121
0	558	1307.010154238743	122
0	561	1314.033271278902	123
0	569	1336.143255442098	124
0	570	1337.408662702858	125
0	575	1345.135905886215	126
0	576	1346.652846739212	127
0	584	1362.103564060644	128
0	585	1362.509685252244	129
0	588	1405.967911570323	130
0	594	1417.515141112564	131
0	606	1436.265154328823	132
0	607	1442.976965714869	133
0	608	1452.141592004389	134
0	609	1452.670244556834	135
0	615	1459.249757332881	136
0	618	1471.924472139829	137
0	621	1498.679836199003	138
0	624	1507.758723672361	139
0	642	1550.842643973706	140
0	643	1554.724897789499	141
0	644	1560.112247667203	142
0	645	1565.791977312345	143
0	648	1568.852402390716	144
0	662	1603.313054374376	145
0	663	1603.362291276869	146
0	664	1614.070243072805	147
0	670	1619.515855858311	148
0	673	1623.182471886767	149
0	674	1624.697903574226	150
0	675	1628.173796007193	151
0	680	1635.977697162715	152
0	681	1637.162507987097	153
0	684	1657.781187123751	154
0	689	1665.383434235883	155
0	697	1676.147448582323	156
0	702	1688.647516935837	157
0	703	1689.562868727835	158
0	704	1691.70410878379	159
0	705	1693.208082799372	160
0	710	1701.776052469826	161
0	711	1703.394001173533	162
0	714	1717.114135787588	163
0	717	1721.626483512301	164
0	720	1724.333406774333	165
0	723	1733.655733730509	166
0	728	1742.26222377467	167
0	729	1744.455795105125	168
0	732	1751.225420210543	169
0	742	1763.324537398268	170
0	743	1764.335028317409	171
0	744	1764.931761375279	172
0	749	1766.732150435141	173
0	750	1768.179512347953	174
0	753	1770.803977914818	175
0	758	1780.038401815613	176
0	768	1801.547976686029	177
0	771	1811.150281784692	178
0	774	1813.618071637926	179
0	775	1814.37242062154	180
0	778	1825.193126271981	181
0	779	1825.493519500998	182
0	780	1826.056091288142	183
0	791	1843.11429445875	184
0	792	1843.921485352719	185
0	795	1847.089342314364	186
0	798	1862.116859205625	187
0	804	1869.935491808728	188
0	827	1916.5372932409	189
0	828	1917.098798863142	190
0	831	1927.06079899305	191
0	832	1927.553612113279	192
0	833	1934.05451545318	193
0	834	1937.84730831988	194
0	837	1940.790684728697	195
0	840	1964.172640454601	196
0	843	1972.001479914193	197
0	846	1981.948031834254	198
0	852	1996.615901581575	199
0	859	2008.366587570525	200
0	860	2009.843059653344	201
0	863	2013.753111525999	202
0	870	2017.046618610918	203
0	873	2022.040336537862	204
0	876	2023.798926931424	205
0	893	2048.248649760223	206
0	896	2049.405316382214	207
0	902	2054.988166981461	208
0	905	2061.167768380923	209
0	908	2071.491577476843	210
0	915	2078.360730587163	211
0	916	2079.7624395283	212
0	917	2081.514107060593	213
0	918	2083.878362686513	214
0	928	2102.351024353937	215
0	935	2114.565256606429	216
0	938	2119.511040915602	217
0	939	2119.604377741203	218
0	940	2123.191004577822	219
0	941	2123.912378212658	220
0	942	2128.834081728924	221
0	949	2141.742540505466	222
0	950	2142.674465486261	223
0	951	2142.931072851444	224
0	957	2148.000796580023	225
0	966	2164.415257948833	226
0	969	2173.49129581547	227
0	978	2212.42234241104	228
0	984	2224.584394208386	229
0	987	2226.945637421134	230
0	992	2234.438203558391	231
0	993	2234.874510353571	232
0	996	2241.235308920433	233
0	1015	2290.062198403674	234
0	1018	2293.767259550845	235
0	1019	2294.466409401346	236
0	1025	2303.225388101991	237
0	1030	2306.528797769615	238
0	1031	2308.942350746807	239
0	1071	2364.201221440887	240
0	1074	2366.651463486135	241
0	1075	2369.167509037397	242
0	1079	2374.139280644335	243
0	1086	2387.062542981609	244
0	1087	2387.972908287451	245
0	1088	2390.114068181396	246
0	1093	2404.273222703237	247
0	1094	2404.91022814619	248
0	1100	2412.356381755174	249
0	1101	2420.631030356741	250
0	1105	2424.199425026199	251
0	1112	2435.352848562608	252
0	1113	2443.725476584869	253
0	1116	2447.949944969278	254
1	169	350.119151182427	5
1	171	355.039202252463	5
1	172	360.104583452611	5
1	173	362.49600845405	4
1	175	363.289814550966	4
1	177	367.830929999966	5
1	178	368.872545039882	5
1	179	369.182416910415	4
1	180	371.226449074631	3
1	181	371.81352490317	2
1	182	373.350801815013	1
1	183	374.70623867713	0
1	188	382.370602506663	0
1	189	384.171166126389	0
1	194	436.671773942098	0
1	195	442.002367204697	0
1	199	460.852668622827	0
1	201	466.374037545862	1
1	203	467.349172986839	2
1	208	481.862327760358	2
1	209	486.323897672966	1
1	213	499.639248822457	0
1	215	503.541066842519	0
1	216	504.238953838474	0
1	221	526.822290225991	0
1	225	532.841895893834	1
1	227	536.609671860439	1
1	228	537.495336302537	0
1	230	539.021558364902	0
1	231	539.482581591665	0
1	233	543.729523351123	0
1	234	545.372761029398	0
1	236	549.744660338624	0
1	238	549.757652114121	1
1	239	550.418505291851	1
1	240	552.887361610491	0
1	248	624.377629917337	0
1	249	624.631748247413	0
1	253	626.377011457473	0
1	255	626.865791188854	0
1	257	628.149441136313	0
1	258	637.352563078327	0
1	260	646.041393116059	0
1	261	646.4256674663	0
1	265	658.39845641134	0
1	267	659.690924306509	1
1	269	661.441890419892	2
1	271	673.601588221394	3
1	273	690.249866392987	4
1	278	703.275599853586	5
1	280	703.633396807882	6
1	293	729.390626542569	7
1	296	732.805207371765	7
1	300	737.045369647088	7
1	303	743.385520347509	8
1	304	743.5440022624	8
1	306	745.206737638433	8
1	307	746.802554457785	8
1	309	747.746298385527	8
1	310	750.653742133788	8
1	312	751.433923708821	8
1	313	751.785331814669	8
1	315	758.184758649513	8
1	317	758.64585161194	9
1	321	762.899766675671	9
1	325	769.930973026044	9
1	328	772.656623803539	10
1	329	776.078425533379	10
1	333	782.605538701624	10
1	335	785.688496597293	10
1	336	789.066624251898	9
1	337	790.274676484982	8
1	338	792.503085413531	7
1	339	793.813870071928	6
1	341	793.839749618144	6
1	342	797.151314505978	6
1	344	798.245995385835	6
1	345	799.649660953634	6
1	346	799.786689272711	5
1	347	800.033673692839	4
1	348	806.993018441452	3
1	349	808.943207710368	2
1	350	811.378421401528	1
1	351	811.705265587634	0
1	353	813.496170369595	0
1	354	814.039996757668	0
1	356	814.185922731608	0
1	357	814.583230894698	0
1	361	826.066970822433	0
1	363	830.465664353002	0
1	370	848.179506668075	0
1	373	852.1686892715	1
1	377	859.016692119377	1
1	381	869.016558446923	1
1	383	870.115068489498	1
1	384	870.1619760766	0
1	386	875.829374328149	0
1	387	877.18026917341	0
1	389	886.461145315321	0
1	390	886.99356901671	0
1	392	893.887069529698	0
1	393	895.137318030668	0
1	395	900.833244362583	0
1	397	904.379176149286	1
1	398	904.803046206189	1
1	399	908.520828191866	0
1	401	915.070726443792	0
1	402	915.307791249262	0
1	406	921.290312289743	0
1	408	922.860388957786	0
1	410	926.259204214721	0
1	411	927.646154471016	0
1	419	968.113474807297	0
1	420	970.031656393017	0
1	422	972.059846730416	0
1	423	972.427153727949	0
1	425	979.014042706605	0
1	426	982.959612095444	0
1	428	986.40158991055	0
1	429	986.868150101674	0
1	431	991.477771818955	0
1	432	995.92904062586	0
1	434	996.573320040998	0
1	435	998.508864723771	0
1	437	1009.5893717972	0
1	438	1010.417600003393	0
1	440	1027.29326052894	0
1	441	1034.111152481092	0
1	443	1047.195191840301	0
1	444	1048.291893680699	0
1	446	1051.588422140614	0
1	448	1051.853602663273	1
1	449	1055.980830345782	1
1	450	1056.421634410466	0
1	455	1069.570309487394	0
1	457	1072.995454593012	1
1	459	1074.329777082393	2
1	460	1083.711558765262	2
1	461	1086.428618104517	1
1	463	1089.892028406125	1
1	464	1091.113133797484	1
1	465	1091.645382537807	0
1	467	1096.28675098785	0
1	469	1102.395414654277	1
1	470	1103.26824684189	1
1	471	1108.131673497595	0
1	475	1108.589561472402	0
1	477	1108.659087345032	1
1	479	1121.559000276433	1
1	480	1123.639201791163	0
1	482	1132.072607512783	0
1	491	1137.5084282047	1
1	493	1140.765229769752	2
1	495	1144.780081559334	3
1	500	1151.861347883656	4
1	502	1161.128600888311	5
1	518	1190.182284757979	6
1	520	1194.107094991637	7
1	522	1195.810170607742	8
1	523	1197.969945150005	8
1	524	1198.153957955663	7
1	525	1198.698606641782	6
1	526	1200.190685622949	5
1	527	1200.616912354801	4
1	528	1203.517892560286	3
1	529	1207.66794670974	2
1	530	1208.293420382565	1
1	531	1211.315125260927	0
1	539	1235.57636042901	0
1	540	1237.251624409848	0
1	542	1245.750567940076	0
1	544	1254.623518575976	1
1	545	1256.089187871165	1
1	546	1256.368764563772	0
1	551	1297.576801327344	0
1	552	1298.556271659111	0
1	554	1298.981981041257	0
1	555	1302.939351393966	0
1	557	1305.174030572477	0
1	558	1307.010154238743	0
1	560	1312.534111945697	0
1	561	1314.033271278902	0
1	565	1325.294640523372	0
1	568	1329.725973787391	1
1	569	1336.143255442098	1
1	570	1337.408662702858	0
1	572	1337.918346365047	0
1	574	1338.069482505731	1
1	575	1345.135905886215	1
1	576	1346.652846739212	0
1	578	1360.008685256734	0
1	580	1361.022701143741	1
1	584	1362.103564060644	1
1	585	1362.509685252244	0
1	587	1400.284102277724	0
1	588	1405.967911570323	0
1	593	1415.619746805441	0
1	594	1417.515141112564	0
1	596	1418.960130004518	0
1	600	1424.528878770452	1
1	602	1430.718816092059	2
1	605	1432.924682107722	3
1	606	1436.265154328823	3
1	607	1442.976965714869	2
1	608	1452.141592004389	1
1	609	1452.670244556834	0
1	613	1456.557563689539	0
1	615	1459.249757332881	0
1	617	1466.341925398978	0
1	618	1471.924472139829	0
1	620	1496.569148529909	0
1	621	1498.679836199003	0
1	623	1506.793690175289	0
1	624	1507.758723672361	0
1	628	1518.465787734605	0
1	630	1521.622526505848	1
1	635	1537.236882645073	2
1	637	1538.627409021411	3
1	642	1550.842643973706	3
1	643	1554.724897789499	2
1	644	1560.112247667203	1
1	645	1565.791977312345	0
1	647	1568.805776238846	0
1	648	1568.852402390716	0
1	650	1575.206070960299	0
1	654	1587.597529532276	1
1	656	1592.550768120903	2
1	658	1594.785254698345	3
1	660	1599.978539938441	4
1	662	1603.313054374376	4
1	663	1603.362291276869	3
1	664	1614.070243072805	2
1	668	1616.404968885488	2
1	670	1619.515855858311	2
1	672	1621.123406778662	2
1	673	1623.182471886767	2
1	674	1624.697903574226	1
1	675	1628.173796007193	0
1	677	1631.254750414244	0
1	679	1634.710330765916	1
1	680	1635.977697162715	1
1	681	1637.162507987097	0
1	683	1652.543207499767	0
1	684	1657.781187123751	0
1	686	1660.592548209223	0
1	688	1661.676721405022	1
1	689	1665.383434235883	1
1	691	1667.318732504404	1
1	693	1668.839998673156	2
1	697	1676.147448582323	2
1	699	1684.153737847449	2
1	701	1685.387269729313	3
1	702	1688.647516935837	3
1	703	1689.562868727835	2
1	704	1691.70410878379	1
1	705	1693.208082799372	0
1	707	1697.452804236935	0
1	709	1701.561559358482	1
1	710	1701.776052469826	1
1	711	1703.394001173533	0
1	713	1716.540947904621	0
1	714	1717.114135787588	0
1	716	1719.13214685948	0
1	717	1721.626483512301	0
1	719	1722.526526733274	0
1	720	1724.333406774333	0
1	722	1733.047037047973	0
1	723	1733.655733730509	0
1	725	1735.408242765257	0
1	727	1740.704718278887	1
1	728	1742.26222377467	1
1	729	1744.455795105125	0
1	731	1747.718800778385	0
1	732	1751.225420210543	0
1	737	1761.665908873459	0
1	739	1763.094515336496	1
1	741	1763.213757723395	2
1	742	1763.324537398268	2
1	743	1764.335028317409	1
1	744	1764.931761375279	0
1	746	1765.093499250388	0
1	748	1765.470013413068	1
1	749	1766.732150435141	1
1	750	1768.179512347953	0
1	752	1768.286539132837	0
1	753	1770.803977914818	0
1	755	1778.599508578021	0
1	757	1779.035512282923	1
1	758	1780.038401815613	1
1	762	1788.100640411957	1
1	764	1790.667473858621	2
1	766	1793.353085389727	3
1	768	1801.547976686029	3
1	770	1803.180920255599	3
1	771	1811.150281784692	3
1	773	1812.729547793283	3
1	774	1813.618071637926	3
1	775	1814.37242062154	2
1	777	1822.789597242941	2
1	778	1825.193126271981	2
1	779	1825.493519500998	1
1	780	1826.056091288142	0
1	784	1827.729542456423	0
1	786	1835.34251097782	1
1	791	1843.11429445875	1
1	792	1843.921485352719	0
1	794	1846.315880066733	0
1	795	1847.089342314364	0
1	797	1859.610694122373	0
1	798	1862.116859205625	0
1	803	1866.708582479766	0
1	804	1869.935491808728	0
1	811	1883.591531990599	0
1	815	1887.467234090877	1
1	817	1892.164969454295	2
1	819	1896.988062328872	3
1	825	1913.33164658053	4
1	827	1916.5372932409	4
1	828	1917.098798863142	3
1	830	1918.239553569083	3
1	831	1927.06079899305	3
1	832	1927.553612113279	2
1	833	1934.05451545318	1
1	834	1937.84730831988	0
1	836	1939.413014824499	0
1	837	1940.790684728697	0
1	839	1961.906213717047	0
1	840	1964.172640454601	0
1	842	1970.746609118175	0
1	843	1972.001479914193	0
1	845	1980.244380990038	0
1	846	1981.948031834254	0
1	851	1990.911080849943	0
1	852	1996.615901581575	0
1	854	2002.226518752834	0
1	856	2005.657567967903	1
1	858	2007.076585269853	2
1	859	2008.366587570525	2
1	860	2009.843059653344	1
1	862	2011.99281693691	1
1	863	2013.753111525999	1
1	865	2015.318506437137	1
1	867	2016.680203553257	2
1	869	2016.958808805942	3
1	870	2017.046618610918	3
1	872	2019.351684363755	3
1	873	2022.040336537862	3
1	875	2022.320615006906	3
1	876	2023.798926931424	3
1	884	2036.387777157786	3
1	889	2040.160363597193	4
1	893	2048.248649760223	4
1	895	2048.808516908357	4
1	896	2049.405316382214	4
1	900	2049.768310849397	4
1	902	2054.988166981461	4
1	904	2059.760462141642	4
1	905	2061.167768380923	4
1	907	2061.907945737218	4
1	908	2071.491577476843	4
1	915	2078.360730587163	3
1	916	2079.7624395283	2
1	917	2081.514107060593	1
1	918	2083.878362686513	0
1	920	2093.505152452636	0
1	924	2097.229950162052	1
1	926	2098.219906843734	2
1	928	2102.351024353937	2
1	930	2105.383738213321	2
1	932	2106.750265175274	3
1	934	2111.236557246119	4
1	935	2114.565256606429	4
1	937	2116.456695820183	4
1	938	2119.511040915602	4
1	939	2119.604377741203	3
1	940	2123.191004577822	2
1	941	2123.912378212658	1
1	942	2128.834081728924	0
1	944	2130.162292470775	0
1	946	2132.681831277386	1
1	948	2139.266205856075	2
1	949	2141.742540505466	2
1	950	2142.674465486261	1
1	951	2142.931072851444	0
1	956	2146.850414131752	0
1	957	2148.000796580023	0
1	963	2155.214678228357	0
1	966	2164.415257948833	0
1	968	2172.968361916568	0
1	969	2173.49129581547	0
1	977	2210.235865739089	0
1	978	2212.42234241104	0
1	983	2219.504720468416	0
1	984	2224.584394208386	0
1	986	2226.20237524347	0
1	987	2226.945637421134	0
1	989	2228.252826959931	0
1	991	2231.189043554593	1
1	992	2234.438203558391	1
1	993	2234.874510353571	0
1	995	2235.990529159481	0
1	996	2241.235308920433	0
1	1004	2274.316062352235	0
1	1006	2277.64936585754	1
1	1008	2279.369371625004	2
1	1015	2290.062198403674	2
1	1017	2291.520128777268	2
1	1018	2293.767259550845	2
1	1019	2294.466409401346	1
1	1024	2302.009609685989	1
1	1025	2303.225388101991	1
1	1027	2304.937198279872	1
1	1029	2305.007415274873	2
1	1030	2306.528797769615	2
1	1031	2308.942350746807	1
1	1040	2319.336706072754	1
1	1042	2320.262451255038	2
1	1047	2323.506657643407	3
1	1055	2329.026318484358	4
1	1057	2329.488023016245	5
1	1062	2337.883707012958	6
1	1071	2364.201221440887	6
1	1073	2366.453068044888	6
1	1074	2366.651463486135	6
1	1075	2369.167509037397	5
1	1079	2374.139280644335	4
1	1081	2376.883160209059	4
1	1083	2384.144808062979	5
1	1085	2385.318994031209	6
1	1086	2387.062542981609	6
1	1087	2387.972908287451	5
1	1088	2390.114068181396	4
1	1090	2398.835523000256	4
1	1092	2402.780862958371	5
1	1093	2404.273222703237	5
1	1094	2404.91022814619	4
1	1099	2411.904107173243	4
1	1100	2412.356381755174	4
1	1101	2420.631030356741	3
1	1105	2424.199425026199	2
1	1112	2435.352848562608	1
1	1113	2443.725476584869	0
1	1115	2447.089342177539	0
1	1116	2447.949944969278	0
1	1132	2499.949391704458	0
2	169	350.119151182427	27.902819281652
2	172	360.104583452611	23.425147250294
2	173	362.49600845405	24.887930239539
2	178	368.872545039882	23.291721103772
2	179	369.182416910415	22.026958853389
2	180	371.226449074631	23.558765870503
2	181	371.81352490317	16.774322650707
2	182	373.350801815013	10.060987264047
2	183	374.70623867713	6.875308677164
2	189	384.171166126389	1.800563619726
2	195	442.002367204697	5.330593262599
2	208	481.862327760358	21.009659137531
2	209	486.323897672966	19.949860127104
2	213	499.639248822457	13.281933651459
2	216	504.238953838474	0.697886995955
2	227	536.609671860439	7.341970966044
2	228	537.495336302537	4.653440408703
2	231	539.482581591665	0.461023226763
2	234	545.372761029398	1.643237678275
2	239	550.418505291851	0.673844953227
2	240	552.887361610491	3.12970949637
2	249	624.631748247413	0.254118330076
2	255	626.865791188854	0.488779731381
2	258	637.352563078327	9.203121942014
2	261	646.4256674663	0.384274350241
2	296	732.805207371765	74.406750960425
2	304	743.5440022624	82.102111842508
2	307	746.802554457785	73.200966236391
2	310	750.653742133788	60.403875740801
2	313	751.785331814669	48.509731961083
2	321	762.899766675671	33.509140133102
2	329	776.078425533379	39.033055886291
2	335	785.688496597293	40.48175895886
2	336	789.066624251898	41.320325866371
2	337	790.274676484982	38.840752776161
2	338	792.503085413531	34.318326764018
2	339	793.813870071928	35.168018459988
2	342	797.151314505978	38.15464067809
2	345	799.649660953634	32.992961627369
2	346	799.786689272711	29.855716246667
2	347	800.033673692839	27.3770498893
2	348	806.993018441452	27.542803038665
2	349	808.943207710368	26.337669008744
2	350	811.378421401528	17.538671783384
2	351	811.705265587634	13.459270201799
2	354	814.039996757668	0.543826388073
2	357	814.583230894698	0.39730816309
2	363	830.465664353002	4.398693530569
2	377	859.016692119377	6.848002847877
2	383	870.115068489498	6.276046700738
2	384	870.1619760766	1.145417629677
2	387	877.18026917341	1.350894845261
2	390	886.99356901671	0.532423701389
2	393	895.137318030668	1.25024850097
2	398	904.803046206189	3.969801843606
2	399	908.520828191866	4.14165204258
2	402	915.307791249262	0.23706480547
2	408	922.860388957786	1.570076668043
2	411	927.646154471016	1.386950256295
2	420	970.031656393017	1.91818158572
2	423	972.427153727949	0.367306997533
2	426	982.959612095444	3.945569388839
2	429	986.868150101674	0.466560191124
2	432	995.92904062586	4.451268806905
2	435	998.508864723771	1.935544682773
2	438	1010.417600003393	0.828228206193
2	441	1034.111152481092	6.817891952152
2	444	1048.291893680699	1.096701840398
2	449	1055.980830345782	4.392408205168
2	450	1056.421634410466	4.568031747193
2	460	1083.711558765262	14.141249277868
2	461	1086.428618104517	13.433163511505
2	464	1091.113133797484	16.783356715091
2	465	1091.645382537807	1.753354131682
2	470	1103.26824684189	6.98149585404
2	471	1108.131673497595	5.736258843318
2	479	1121.559000276433	12.969438804031
2	480	1123.639201791163	14.980114446131
2	523	1197.969945150005	61.861137566267
2	524	1198.153957955663	60.645529750963
2	525	1198.698606641782	57.93337687203
2	526	1200.190685622949	55.410604063615
2	527	1200.616912354801	48.755564471145
2	528	1203.517892560286	42.389291671975
2	529	1207.66794670974	17.485661951761
2	530	1208.293420382565	14.186325390928
2	531	1211.315125260927	15.504954653185
2	540	1237.251624409848	1.675263980838
2	545	1256.089187871165	10.338619931089
2	546	1256.368764563772	1.745245987796
2	552	1298.556271659111	0.979470331767
2	555	1302.939351393966	3.957370352709
2	558	1307.010154238743	1.836123666266
2	561	1314.033271278902	1.499159333205
2	569	1336.143255442098	10.848614918726
2	570	1337.408662702858	7.682688915467
2	575	1345.135905886215	7.217559521168
2	576	1346.652846739212	8.583364233481
2	584	1362.103564060644	1.080862916903
2	585	1362.509685252244	0.823329827075
2	588	1405.967911570323	5.683809292599
2	594	1417.515141112564	1.895394307123
2	606	1436.265154328823	17.045356850785
2	607	1442.976965714869	18.448086944417
2	608	1452.141592004389	21.42277591233
2	609	1452.670244556834	19.745562449112
2	615	1459.249757332881	2.692193643342
2	618	1471.924472139829	5.582546740851
2	621	1498.679836199003	2.110687669094
2	624	1507.758723672361	0.965033497072
2	642	1550.842643973706	29.220117467858
2	643	1554.724897789499	17.488015144426
2	644	1560.112247667203	21.484838645792
2	645	1565.791977312345	20.273228604477
2	648	1568.852402390716	0.04662615187
2	662	1603.313054374376	23.390948502375
2	663	1603.362291276869	15.764761744593
2	664	1614.070243072805	21.519474951902
2	670	1619.515855858311	19.53731591987
2	673	1623.182471886767	8.534927108904
2	674	1624.697903574226	8.292934688738
2	675	1628.173796007193	7.050389228531
2	680	1635.977697162715	4.722946748471
2	681	1637.162507987097	2.452177221181
2	684	1657.781187123751	5.237979623984
2	689	1665.383434235883	4.79088602666
2	697	1676.147448582323	8.828716077919
2	702	1688.647516935837	19.807518262681
2	703	1689.562868727835	20.435342143385
2	704	1691.70410878379	7.550370936341
2	705	1693.208082799372	7.820813070059
2	710	1701.776052469826	4.323248232891
2	711	1703.394001173533	1.832441815051
2	714	1717.114135787588	0.573187882967
2	717	1721.626483512301	2.494336652821
2	720	1724.333406774333	1.806880041059
2	723	1733.655733730509	0.608696682536
2	728	1742.26222377467	6.853981009413
2	729	1744.455795105125	3.751076826238
2	732	1751.225420210543	3.506619432158
2	742	1763.324537398268	1.658628524809
2	743	1764.335028317409	1.240512980913
2	744	1764.931761375279	1.718003651884
2	749	1766.732150435141	1.638651184753
2	750	1768.179512347953	2.709498934885
2	753	1770.803977914818	2.517438781981
2	758	1780.038401815613	1.438893237592
2	768	1801.547976686029	17.180834472369
2	771	1811.150281784692	23.049641372735
2	774	1813.618071637926	22.950597779305
2	775	1814.37242062154	21.019335231813
2	778	1825.193126271981	22.012206016382
2	779	1825.493519500998	12.763971707715
2	780	1826.056091288142	3.266494045201
2	791	1843.11429445875	15.384752002327
2	792	1843.921485352719	8.578974374899
2	795	1847.089342314364	0.773462247631
2	798	1862.116859205625	2.506165083252
2	804	1869.935491808728	3.226909328962
2	827	1916.5372932409	32.945761250301
2	828	1917.098798863142	29.631564772265
2	831	1927.06079899305	34.895829538755
2	832	1927.553612113279	30.565549784407
2	833	1934.05451545318	20.72286887265
2	834	1937.84730831988	19.607754750797
2	837	1940.790684728697	1.377669904198
2	840	1964.172640454601	2.266426737554
2	843	1972.001479914193	1.254870796018
2	846	1981.948031834254	1.703650844216
2	852	1996.615901581575	5.704820731632
2	859	2008.366587570525	6.140068817691
2	860	2009.843059653344	4.185491685441
2	863	2013.753111525999	6.676526256146
2	870	2017.046618610918	5.053801674008
2	873	2022.040336537862	6.721830100725
2	876	2023.798926931424	7.118723378167
2	893	2048.248649760223	28.896965396468
2	896	2049.405316382214	27.084701375308
2	902	2054.988166981461	18.600389823675
2	905	2061.167768380923	21.00740478373
2	908	2071.491577476843	22.683060568486
2	915	2078.360730587163	28.592419737766
2	916	2079.7624395283	20.001977386658
2	917	2081.514107060593	19.606161323375
2	918	2083.878362686513	10.294836367983
2	928	2102.351024353937	7.222256837499
2	935	2114.565256606429	17.335306444377
2	938	2119.511040915602	21.291134071868
2	939	2119.604377741203	14.220639527882
2	940	2123.191004577822	16.440739402548
2	941	2123.912378212658	12.675820966539
2	942	2128.834081728924	12.377385908741
2	949	2141.742540505466	11.580248034691
2	950	2142.674465486261	9.992634208875
2	951	2142.931072851444	3.664866995369
2	957	2148.000796580023	1.150382448271
2	966	2164.415257948833	9.200579720476
2	969	2173.49129581547	0.522933898902
2	978	2212.42234241104	2.186476671951
2	984	2224.584394208386	5.07967373997
2	987	2226.945637421134	0.743262177664
2	992	2234.438203558391	6.18537659846
2	993	2234.874510353571	3.685466798978
2	996	2241.235308920433	5.244779760952
2	1015	2290.062198403674	12.412832546134
2	1018	2293.767259550845	14.397887925841
2	1019	2294.466409401346	14.776162043891
2	1025	2303.225388101991	8.459616491174
2	1030	2306.528797769615	4.519188083626
2	1031	2308.942350746807	4.005152466935
2	1071	2364.201221440887	52.734260798661
2	1074	2366.651463486135	47.314757413381
2	1075	2369.167509037397	48.905057782359
2	1079	2374.139280644335	45.112962159977
2	1086	2387.062542981609	57.574519965364
2	1087	2387.972908287451	50.089201274493
2	1088	2390.114068181396	23.661000136508
2	1093	2404.273222703237	34.054411968372
2	1094	2404.91022814619	28.027067937131
2	1100	2412.356381755174	27.037387723965
2	1101	2420.631030356741	21.795507356485
2	1105	2424.199425026199	15.438920513994
2	1112	2435.352848562608	7.950195645581
2	1113	2443.725476584869	10.973740481354
2	1116	2447.949944969278	0.860602791739
3	169	350.119151182427	13.43971498011
3	172	360.104583452611	22.4965052381
3	173	362.49600845405	16.91518451794
3	178	368.872545039882	21.717086982856
3	179	369.182416910415	21.514733706287
3	180	371.226449074631	16.187246822168
3	181	371.81352490317	8.523710352204
3	182	373.350801815013	5.519871815047
3	188	382.370602506663	0
3	194	436.671773942098	0
3	207	478.034021223298	17.181352600471
3	208	481.862327760358	15.488290214496
3	209	486.323897672966	18.974724686127
3	212	498.818533709864	12.461218538866
3	215	503.541066842519	0
3	221	526.822290225991	0
3	226	536.13030276896	6.862601874565
3	227	536.609671860439	3.767775966605
3	230	539.021558364902	0
3	233	543.729523351123	0
3	236	549.744660338624	0
3	239	550.418505291851	0.66085317773
3	248	624.377629917337	0
3	254	626.482556808192	0.105545350719
3	257	628.149441136313	0
3	260	646.041393116059	0
3	295	732.633151700934	74.234695289594
3	296	732.805207371765	73.114283065256
3	301	740.798604421592	79.3567140017
3	304	743.5440022624	69.942414041006
3	307	746.802554457785	56.552688064798
3	310	750.653742133788	47.378142280202
3	313	751.785331814669	48.151935006787
3	320	759.876981687785	30.486355145216
3	321	762.899766675671	28.988794544246
3	326	770.907757952679	33.862388305591
3	329	776.078425533379	32.69290518587
3	334	783.439019736485	38.232282098052
3	335	785.688496597293	37.942198211766
3	336	789.066624251898	37.632700543077
3	337	790.274676484982	32.089917835469
3	338	792.503085413531	33.857233801591
3	339	793.813870071928	34.81719624404
3	342	797.151314505978	30.494615179713
3	345	799.649660953634	29.71868792759
3	346	799.786689272711	27.130065469172
3	347	800.033673692839	20.583458290052
3	348	806.993018441452	24.387479739828
3	349	808.943207710368	15.103458092224
3	350	811.378421401528	13.132426015693
3	353	813.496170369595	0
3	356	814.185922731608	0
3	362	829.415979721495	3.349008899062
3	371	851.310007020136	3.130500352061
3	376	853.507516848783	1.338827577283
3	377	859.016692119377	5.907605196251
3	382	869.769452224165	5.930430435405
3	383	870.115068489498	1.098510042575
3	386	875.829374328149	0
3	389	886.461145315321	0
3	392	893.887069529698	0
3	395	900.833244362583	0
3	398	904.803046206189	0.423870056903
3	401	915.070726443792	0
3	407	922.763724968102	1.473412678359
3	410	926.259204214721	0
3	419	968.113474807297	0
3	422	972.059846730416	0
3	425	979.014042706605	0
3	428	986.40158991055	0
3	431	991.477771818955	0
3	434	996.573320040998	0
3	437	1009.5893717972	0
3	440	1027.29326052894	0
3	443	1047.195191840301	0
3	446	1051.588422140614	0
3	449	1055.980830345782	4.127227682509
3	455	1069.570309487394	0
3	460	1083.711558765262	10.71610417225
3	461	1086.428618104517	12.098841022124
3	464	1091.113133797484	1.221105391359
3	467	1096.28675098785	0
3	470	1103.26824684189	0.872832187613
3	478	1116.386199600054	7.796638127652
3	479	1121.559000276433	12.899912931401
3	482	1132.072607512783	0
3	485	1134.54474809255	1.850151373794
3	516	1189.77810903919	53.669301455452
3	523	1197.969945150005	60.461516945305
3	524	1198.153957955663	57.388728185911
3	525	1198.698606641782	53.918525082448
3	526	1200.190685622949	48.329337739293
3	527	1200.616912354801	39.48831146649
3	528	1203.517892560286	13.335607802307
3	529	1207.66794670974	13.560851718103
3	530	1208.293420382565	12.483249774823
3	539	1235.57636042901	0
3	542	1245.750567940076	0
3	545	1256.089187871165	1.465669295189
3	551	1297.576801327344	0
3	554	1298.981981041257	0
3	557	1305.174030572477	0
3	560	1312.534111945697	0
3	566	1329.097996626377	3.803356103005
3	569	1336.143255442098	6.417281654707
3	572	1337.918346365047	0
3	575	1345.135905886215	7.066423380484
3	578	1360.008685256734	0
3	583	1362.050990005805	1.028288862064
3	584	1362.103564060644	0.417208635475
3	587	1400.284102277724	0
3	593	1415.619746805441	0
3	596	1418.960130004518	0
3	603	1432.738974314881	13.519176836843
3	606	1436.265154328823	11.736275558371
3	607	1442.976965714869	12.25814962281
3	608	1452.141592004389	19.216909896667
3	614	1458.211681021771	1.654117332232
3	617	1466.341925398978	0
3	620	1496.569148529909	0
3	623	1506.793690175289	0
3	638	1545.5012480393	27.035460304695
3	641	1546.450102882292	24.827576376444
3	642	1550.842643973706	13.605761328633
3	643	1554.724897789499	16.097488768088
3	644	1560.112247667203	14.593498959335
3	647	1568.805776238846	0
3	650	1575.206070960299	0
3	661	1601.082190100875	21.160084228874
3	662	1603.313054374376	15.7155248421
3	663	1603.362291276869	10.811523155966
3	664	1614.070243072805	19.28498837446
3	669	1617.834567628801	17.85602769036
3	670	1619.515855858311	4.868311080448
3	673	1623.182471886767	6.777503001279
3	674	1624.697903574226	3.574496795564
3	677	1631.254750414244	0
3	680	1635.977697162715	1.267366396799
3	683	1652.543207499767	0
3	686	1660.592548209223	0
3	689	1665.383434235883	3.706712830861
3	696	1674.437163129645	7.118430625241
3	697	1676.147448582323	7.307449909167
3	702	1688.647516935837	19.519990351387
3	703	1689.562868727835	5.409130880386
3	704	1691.70410878379	6.316839054477
3	707	1697.452804236935	0
3	710	1701.776052469826	0.214493111344
3	713	1716.540947904621	0
3	716	1719.13214685948	0
3	719	1722.526526733274	0
3	722	1733.047037047973	0
3	725	1735.408242765257	0
3	728	1742.26222377467	1.557505495783
3	731	1747.718800778385	0
3	737	1761.665908873459	0
3	742	1763.324537398268	0.230022061772
3	743	1764.335028317409	1.121270594014
3	746	1765.093499250388	0
3	749	1766.732150435141	1.262137022073
3	752	1768.286539132837	0
3	755	1778.599508578021	0
3	758	1780.038401815613	1.00288953269
3	767	1795.585000749561	11.217858535901
3	768	1801.547976686029	13.447336274072
3	771	1811.150281784692	20.482807926071
3	774	1813.618071637926	20.264986248199
3	775	1814.37242062154	11.191500365941
3	778	1825.193126271981	12.463578478698
3	779	1825.493519500998	2.703922258057
3	790	1840.252352092933	12.52280963651
3	791	1843.11429445875	7.77178348093
3	794	1846.315880066733	0
3	797	1859.610694122373	0
3	803	1866.708582479766	0
3	826	1913.359277675731	29.767745685132
3	827	1916.5372932409	29.070059150023
3	828	1917.098798863142	24.933829408847
3	831	1927.06079899305	30.072736664178
3	832	1927.553612113279	14.221965532749
3	833	1934.05451545318	15.814961884097
3	836	1939.413014824499	0
3	839	1961.906213717047	0
3	842	1970.746609118175	0
3	845	1980.244380990038	0
3	851	1990.911080849943	0
3	854	2002.226518752834	0
3	859	2008.366587570525	2.709019602622
3	860	2009.843059653344	2.766474383491
3	863	2013.753111525999	1.760294589089
3	870	2017.046618610918	1.728112173781
3	873	2022.040336537862	5.360132984605
3	876	2023.798926931424	6.840118125482
3	892	2045.431965492096	26.080281128341
3	893	2048.248649760223	25.928034753317
3	896	2049.405316382214	24.953069654227
3	901	2050.384878978968	13.997101821182
3	902	2054.988166981461	14.827803384268
3	905	2061.167768380923	12.359251472566
3	908	2071.491577476843	21.929561038487
3	914	2077.844530720867	28.07621987147
3	915	2078.360730587163	18.600268445521
3	916	2079.7624395283	17.854493791082
3	917	2081.514107060593	7.930580742063
3	920	2093.505152452636	0
3	927	2100.623782442643	5.495014926205
3	928	2102.351024353937	5.121074191885
3	935	2114.565256606429	16.345349762695
3	938	2119.511040915602	14.127302702281
3	939	2119.604377741203	12.854112565929
3	940	2123.191004577822	11.954447331703
3	941	2123.912378212658	7.455682392475
3	944	2130.162292470775	0
3	949	2141.742540505466	9.06070922808
3	950	2142.674465486261	3.408259630186
3	956	2146.850414131752	0
3	965	2164.119455929972	8.904777701615
3	968	2172.968361916568	0
3	977	2210.235865739089	0
3	983	2219.504720468416	0
3	986	2226.20237524347	0
3	989	2228.252826959931	0
3	992	2234.438203558391	3.249160003798
3	995	2235.990529159481	0
3	1004	2274.316062352235	0
3	1014	2285.84009216953	8.19072631199
3	1015	2290.062198403674	10.69282677867
3	1018	2293.767259550845	14.07701219339
3	1019	2294.466409401346	2.946280624078
3	1022	2301.340797583556	6.575025972739
3	1025	2303.225388101991	1.215778416002
3	1030	2306.528797769615	1.591599489743
3	1031	2308.942350746807	3.934935471934
3	1070	2361.422918264855	49.955957622629
3	1071	2364.201221440887	44.864515368133
3	1074	2366.651463486135	46.389012231097
3	1075	2369.167509037397	45.66085139399
3	1078	2373.219619864866	44.193301380508
3	1079	2374.139280644335	44.65125762809
3	1086	2387.062542981609	49.178835968651
3	1087	2387.972908287451	21.519840242563
3	1088	2390.114068181396	19.895257446531
3	1093	2404.273222703237	27.390062494178
3	1094	2404.91022814619	20.765420083211
3	1097	2409.464478124815	24.145484093606
3	1100	2412.356381755174	13.520858754918
3	1101	2420.631030356741	17.85016739837
3	1104	2423.821977870069	15.061473357864
3	1105	2424.199425026199	12.295317852956
3	1108	2428.328423321093	5.382487253593
3	1111	2434.924492826801	7.521839909774
3	1112	2435.352848562608	2.601112459093
3	1115	2447.089342177539	0
4	171	355.039202252463	6
4	175	363.289814550966	5
4	177	367.830929999966	6
4	188	382.370602506663	1
4	194	436.671773942098	1
4	199	460.852668622827	1
4	201	466.374037545862	2
4	203	467.349172986839	3
4	215	503.541066842519	1
4	221	526.822290225991	1
4	225	532.841895893834	2
4	230	539.021558364902	1
4	233	543.729523351123	1
4	236	549.744660338624	1
4	238	549.757652114121	2
4	248	624.377629917337	1
4	253	626.377011457473	1
4	257	628.149441136313	1
4	260	646.041393116059	1
4	265	658.39845641134	1
4	267	659.690924306509	2
4	269	661.441890419892	3
4	271	673.601588221394	4
4	273	690.249866392987	5
4	278	703.275599853586	6
4	280	703.633396807882	7
4	293	729.390626542569	8
4	300	737.045369647088	8
4	303	743.385520347509	9
4	306	745.206737638433	9
4	309	747.746298385527	9
4	312	751.433923708821	9
4	315	758.184758649513	9
4	317	758.64585161194	10
4	325	769.930973026044	10
4	328	772.656623803539	11
4	333	782.605538701624	11
4	341	793.839749618144	7
4	344	798.245995385835	7
4	353	813.496170369595	1
4	356	814.185922731608	1
4	361	826.066970822433	1
4	370	848.179506668075	1
4	373	852.1686892715	2
4	381	869.016558446923	2
4	386	875.829374328149	1
4	389	886.461145315321	1
4	392	893.887069529698	1
4	395	900.833244362583	1
4	397	904.379176149286	2
4	401	915.070726443792	1
4	406	921.290312289743	1
4	410	926.259204214721	1
4	419	968.113474807297	1
4	422	972.059846730416	1
4	425	979.014042706605	1
4	428	986.40158991055	1
4	431	991.477771818955	1
4	434	996.573320040998	1
4	437	1009.5893717972	1
4	440	1027.29326052894	1
4	443	1047.195191840301	1
4	446	1051.588422140614	1
4	448	1051.853602663273	2
4	455	1069.570309487394	1
4	457	1072.995454593012	2
4	459	1074.329777082393	3
4	463	1089.892028406125	2
4	467	1096.28675098785	1
4	469	1102.395414654277	2
4	475	1108.589561472402	1
4	477	1108.659087345032	2
4	482	1132.072607512783	1
4	491	1137.5084282047	2
4	493	1140.765229769752	3
4	495	1144.780081559334	4
4	500	1151.861347883656	5
4	502	1161.128600888311	6
4	518	1190.182284757979	7
4	520	1194.107094991637	8
4	522	1195.810170607742	9
4	539	1235.57636042901	1
4	542	1245.750567940076	1
4	544	1254.623518575976	2
4	551	1297.576801327344	1
4	554	1298.981981041257	1
4	557	1305.174030572477	1
4	560	1312.534111945697	1
4	565	1325.294640523372	1
4	568	1329.725973787391	2
4	572	1337.918346365047	1
4	574	1338.069482505731	2
4	578	1360.008685256734	1
4	580	1361.022701143741	2
4	587	1400.284102277724	1
4	593	1415.619746805441	1
4	596	1418.960130004518	1
4	600	1424.528878770452	2
4	602	1430.718816092059	3
4	605	1432.924682107722	4
4	613	1456.557563689539	1
4	617	1466.341925398978	1
4	620	1496.569148529909	1
4	623	1506.793690175289	1
4	628	1518.465787734605	1
4	630	1521.622526505848	2
4	635	1537.236882645073	3
4	637	1538.627409021411	4
4	647	1568.805776238846	1
4	650	1575.206070960299	1
4	654	1587.597529532276	2
4	656	1592.550768120903	3
4	658	1594.785254698345	4
4	660	1599.978539938441	5
4	668	1616.404968885488	3
4	672	1621.123406778662	3
4	677	1631.254750414244	1
4	679	1634.710330765916	2
4	683	1652.543207499767	1
4	686	1660.592548209223	1
4	688	1661.676721405022	2
4	691	1667.318732504404	2
4	693	1668.839998673156	3
4	699	1684.153737847449	3
4	701	1685.387269729313	4
4	707	1697.452804236935	1
4	709	1701.561559358482	2
4	713	1716.540947904621	1
4	716	1719.13214685948	1
4	719	1722.526526733274	1
4	722	1733.047037047973	1
4	725	1735.408242765257	1
4	727	1740.704718278887	2
4	731	1747.718800778385	1
4	737	1761.665908873459	1
4	739	1763.094515336496	2
4	741	1763.213757723395	3
4	746	1765.093499250388	1
4	748	1765.470013413068	2
4	752	1768.286539132837	1
4	755	1778.599508578021	1
4	757	1779.035512282923	2
4	762	1788.100640411957	2
4	764	1790.667473858621	3
4	766	1793.353085389727	4
4	770	1803.180920255599	4
4	773	1812.729547793283	4
4	777	1822.789597242941	3
4	784	1827.729542456423	1
4	786	1835.34251097782	2
4	794	1846.315880066733	1
4	797	1859.610694122373	1
4	803	1866.708582479766	1
4	811	1883.591531990599	1
4	815	1887.467234090877	2
4	817	1892.164969454295	3
4	819	1896.988062328872	4
4	825	1913.33164658053	5
4	830	1918.239553569083	4
4	836	1939.413014824499	1
4	839	1961.906213717047	1
4	842	1970.746609118175	1
4	845	1980.244380990038	1
4	851	1990.911080849943	1
4	854	2002.226518752834	1
4	856	2005.657567967903	2
4	858	2007.076585269853	3
4	862	2011.99281693691	2
4	865	2015.318506437137	2
4	867	2016.680203553257	3
4	869	2016.958808805942	4
4	872	2019.351684363755	4
4	875	2022.320615006906	4
4	884	2036.387777157786	4
4	889	2040.160363597193	5
4	895	2048.808516908357	5
4	900	2049.768310849397	5
4	904	2059.760462141642	5
4	907	2061.907945737218	5
4	920	2093.505152452636	1
4	924	2097.229950162052	2
4	926	2098.219906843734	3
4	930	2105.383738213321	3
4	932	2106.750265175274	4
4	934	2111.236557246119	5
4	937	2116.456695820183	5
4	944	2130.162292470775	1
4	946	2132.681831277386	2
4	948	2139.266205856075	3
4	956	2146.850414131752	1
4	963	2155.214678228357	1
4	968	2172.968361916568	1
4	977	2210.235865739089	1
4	983	2219.504720468416	1
4	986	2226.20237524347	1
4	989	2228.252826959931	1
4	991	2231.189043554593	2
4	995	2235.990529159481	1
4	1004	2274.316062352235	1
4	1006	2277.64936585754	2
4	1008	2279.369371625004	3
4	1017	2291.520128777268	3
4	1024	2302.009609685989	2
4	1027	2304.937198279872	2
4	1029	2305.007415274873	3
4	1040	2319.336706072754	2
4	1042	2320.262451255038	3
4	1047	2323.506657643407	4
4	1055	2329.026318484358	5
4	1057	2329.488023016245	6
4	1062	2337.883707012958	7
4	1073	2366.453068044888	7
4	1081	2376.883160209059	5
4	1083	2384.144808062979	6
4	1085	2385.318994031209	7
4	1090	2398.835523000256	5
4	1092	2402.780862958371	6
4	1099	2411.904107173243	5
4	1115	2447.089342177539	1
4	1132	2499.949391704458	1
5	185	375.391315048882	1
5	191	416.09885070976	1
5	197	457.766007587543	1
5	205	476.548788404644	2
5	211	486.357315170998	1
5	218	519.361765448563	1
5	223	529.267700894395	1
5	242	564.300560389618	1
5	245	619.011098646388	1
5	251	625.351485420614	1
5	263	656.547358981017	1
5	275	692.763323156002	2
5	282	703.740050135436	2
5	284	710.380849687831	3
5	286	720.453856391853	4
5	290	723.431017966754	3
5	298	733.910972131425	1
5	319	758.996673827888	1
5	323	766.656699326265	1
5	331	779.450215402787	1
5	359	818.983464402905	1
5	365	835.248604404272	1
5	368	843.367700009282	1
5	375	853.109086923126	1
5	379	863.83902178876	1
5	404	920.493155444247	1
5	413	931.651819903604	1
5	415	933.345352980081	2
5	452	1058.518930789588	1
5	473	1108.361782751192	1
5	484	1132.694596718756	1
5	487	1136.108807583738	1
5	489	1136.333826018112	2
5	498	1148.078871593158	2
5	504	1163.720581410365	3
5	506	1168.488416785386	4
5	509	1173.076299037651	4
5	514	1176.916299660197	2
5	533	1216.291314203088	1
5	536	1230.755115960214	1
5	548	1272.682469325331	1
5	563	1317.361855239214	1
5	582	1361.686355425169	1
5	590	1413.14304119274	1
5	598	1419.219797478038	1
5	611	1455.374959090924	1
5	626	1512.613832586893	1
5	632	1526.463072663728	2
5	640	1545.518748707868	1
5	652	1579.922105872001	1
5	666	1614.647544777863	1
5	695	1669.12752658445	1
5	734	1752.69058199458	1
5	760	1784.36714221366	1
5	782	1826.11813210479	1
5	788	1838.500648643851	2
5	800	1862.163813384079	1
5	806	1870.862406747146	1
5	809	1881.496160769119	1
5	813	1883.79523115591	2
5	822	1903.24141457117	2
5	848	1986.939751930008	1
5	878	2024.452246727987	1
5	880	2027.727541502782	2
5	882	2030.661302349244	3
5	886	2037.18732466916	4
5	898	2049.562016438356	1
5	910	2073.58352631853	1
5	912	2074.263168382427	2
5	922	2095.128767516438	1
5	953	2143.862823377282	1
5	959	2148.922937466807	1
5	961	2150.669734305564	2
5	971	2183.044205315737	1
5	974	2202.435043403632	1
5	980	2216.788444128043	1
5	998	2249.729384129566	1
5	1001	2251.367958607534	1
5	1010	2279.690247357455	1
5	1012	2280.385384205945	2
5	1021	2294.765771610817	1
5	1033	2311.466960642226	1
5	1035	2314.816185985176	2
5	1038	2318.058885096036	2
5	1044	2321.349749090659	3
5	1049	2326.870960380821	3
5	1051	2327.4267847295	4
5	1053	2328.107968982309	5
5	1059	2332.981509177791	6
5	1067	2354.319388697645	3
5	1077	2370.218810734865	1
5	1096	2408.760504512205	1
5	1103	2422.9459360675	1
5	1107	2427.402652917027	1
5	1110	2432.751736103515	1
5	1118	2465.658478271555	1
5	1120	2472.320315154536	2
5	1123	2473.889202106358	2
5	1125	2478.649007051707	3
5	1130	2498.862924785266	1
6	185	375.391315048882	0
6	186	376.559033286256	0
6	191	416.09885070976	0
6	192	429.503671822794	0
6	197	457.766007587543	0
6	205	476.548788404644	1
6	206	476.710917041362	1
6	207	478.034021223298	0
6	211	486.357315170998	0
6	212	498.818533709864	0
6	218	519.361765448563	0
6	219	521.352130940602	0
6	223	529.267700894395	0
6	226	536.13030276896	0
6	242	564.300560389618	0
6	243	589.136695278667	0
6	245	619.011098646388	0
6	246	621.702314768107	0
6	251	625.351485420614	0
6	254	626.482556808192	0
6	263	656.547358981017	0
6	275	692.763323156002	1
6	276	696.496214402672	1
6	282	703.740050135436	1
6	284	710.380849687831	2
6	286	720.453856391853	3
6	287	721.164557752577	3
6	288	721.30978863662	2
6	290	723.431017966754	2
6	291	728.936261004775	2
6	294	731.2497637596	1
6	295	732.633151700934	0
6	298	733.910972131425	0
6	301	740.798604421592	0
6	319	758.996673827888	0
6	320	759.876981687785	0
6	323	766.656699326265	0
6	326	770.907757952679	0
6	331	779.450215402787	0
6	334	783.439019736485	0
6	359	818.983464402905	0
6	362	829.415979721495	0
6	365	835.248604404272	0
6	366	838.005763464306	0
6	368	843.367700009282	0
6	371	851.310007020136	0
6	375	853.109086923126	0
6	376	853.507516848783	0
6	379	863.83902178876	0
6	382	869.769452224165	0
6	404	920.493155444247	0
6	407	922.763724968102	0
6	413	931.651819903604	0
6	415	933.345352980081	1
6	416	934.709659867245	1
6	417	934.770702082795	0
6	452	1058.518930789588	0
6	453	1066.483770173924	0
6	473	1108.361782751192	0
6	478	1116.386199600054	0
6	484	1132.694596718756	0
6	485	1134.54474809255	0
6	487	1136.108807583738	0
6	489	1136.333826018112	1
6	496	1147.533523235226	1
6	498	1148.078871593158	1
6	504	1163.720581410365	2
6	506	1168.488416785386	3
6	507	1169.373945185366	3
6	509	1173.076299037651	3
6	510	1173.56879228552	3
6	511	1176.379682991385	2
6	512	1176.864725901129	1
6	514	1176.916299660197	1
6	515	1180.21275729299	1
6	516	1189.77810903919	0
6	533	1216.291314203088	0
6	534	1217.584032016276	0
6	536	1230.755115960214	0
6	537	1234.6180508643	0
6	548	1272.682469325331	0
6	549	1277.530402462112	0
6	563	1317.361855239214	0
6	566	1329.097996626377	0
6	582	1361.686355425169	0
6	583	1362.050990005805	0
6	590	1413.14304119274	0
6	591	1414.194732172859	0
6	598	1419.219797478038	0
6	603	1432.738974314881	0
6	611	1455.374959090924	0
6	614	1458.211681021771	0
6	626	1512.613832586893	0
6	632	1526.463072663728	1
6	633	1535.686251525727	1
6	638	1545.5012480393	0
6	640	1545.518748707868	0
6	641	1546.450102882292	0
6	652	1579.922105872001	0
6	661	1601.082190100875	0
6	666	1614.647544777863	0
6	669	1617.834567628801	0
6	695	1669.12752658445	0
6	696	1674.437163129645	0
6	734	1752.69058199458	0
6	735	1752.934859563161	0
6	760	1784.36714221366	0
6	767	1795.585000749561	0
6	782	1826.11813210479	0
6	788	1838.500648643851	1
6	789	1838.678330572056	1
6	790	1840.252352092933	0
6	800	1862.163813384079	0
6	801	1862.625200064137	0
6	806	1870.862406747146	0
6	807	1876.528037141028	0
6	809	1881.496160769119	0
6	813	1883.79523115591	1
6	820	1901.865517618842	1
6	822	1903.24141457117	1
6	823	1903.830771836602	1
6	826	1913.359277675731	0
6	848	1986.939751930008	0
6	849	1988.488085482224	0
6	878	2024.452246727987	0
6	880	2027.727541502782	1
6	882	2030.661302349244	2
6	886	2037.18732466916	3
6	887	2039.077875945742	3
6	890	2043.421282373768	2
6	891	2044.730376450819	1
6	892	2045.431965492096	0
6	898	2049.562016438356	0
6	901	2050.384878978968	0
6	910	2073.58352631853	0
6	912	2074.263168382427	1
6	913	2075.894727896174	1
6	914	2077.844530720867	0
6	922	2095.128767516438	0
6	927	2100.623782442643	0
6	953	2143.862823377282	0
6	954	2144.043776632158	0
6	959	2148.922937466807	0
6	961	2150.669734305564	1
6	964	2158.719139823715	1
6	965	2164.119455929972	0
6	971	2183.044205315737	0
6	972	2185.459291227736	0
6	974	2202.435043403632	0
6	975	2206.733226092181	0
6	980	2216.788444128043	0
6	981	2218.264742295857	0
6	998	2249.729384129566	0
6	999	2251.206951323163	0
6	1001	2251.367958607534	0
6	1002	2260.276125601026	0
6	1010	2279.690247357455	0
6	1012	2280.385384205945	1
6	1013	2280.749202926394	1
6	1014	2285.84009216953	0
6	1021	2294.765771610817	0
6	1022	2301.340797583556	0
6	1033	2311.466960642226	0
6	1035	2314.816185985176	1
6	1036	2315.209644212282	1
6	1038	2318.058885096036	1
6	1044	2321.349749090659	2
6	1045	2322.460031337645	2
6	1049	2326.870960380821	2
6	1051	2327.4267847295	3
6	1053	2328.107968982309	4
6	1059	2332.981509177791	5
6	1060	2337.331076913527	5
6	1063	2339.61266041213	4
6	1064	2345.435799681365	3
6	1065	2349.600691356351	2
6	1067	2354.319388697645	2
6	1068	2355.847839899749	2
6	1069	2359.368829216494	1
6	1070	2361.422918264855	0
6	1077	2370.218810734865	0
6	1078	2373.219619864866	0
6	1096	2408.760504512205	0
6	1097	2409.464478124815	0
6	1103	2422.9459360675	0
6	1104	2423.821977870069	0
6	1107	2427.402652917027	0
6	1108	2428.328423321093	0
6	1110	2432.751736103515	0
6	1111	2434.924492826801	0
6	1118	2465.658478271555	0
6	1120	2472.320315154536	1
6	1121	2473.649498551724	1
6	1123	2473.889202106358	1
6	1125	2478.649007051707	2
6	1126	2478.737904117567	2
6	1127	2482.689494129168	1
6	1128	2486.188753491773	0
6	1130	2498.862924785266	0
7	185	375.391315048882	0
7	191	416.09885070976	0
7	197	457.766007587543	0
7	206	476.710917041362	0.162128636718
7	211	486.357315170998	0
7	218	519.361765448563	0
7	223	529.267700894395	0
7	242	564.300560389618	0
7	245	619.011098646388	0
7	251	625.351485420614	0
7	263	656.547358981017	0
7	276	696.496214402672	3.73289124667
7	287	721.164557752577	17.424507617141
7	288	721.30978863662	10.928938948789
7	291	728.936261004775	8.482404612922
7	294	731.2497637596	7.818745792846
7	298	733.910972131425	0
7	319	758.996673827888	0
7	323	766.656699326265	0
7	331	779.450215402787	0
7	359	818.983464402905	0
7	365	835.248604404272	0
7	368	843.367700009282	0
7	375	853.109086923126	0
7	379	863.83902178876	0
7	404	920.493155444247	0
7	413	931.651819903604	0
7	416	934.709659867245	1.364306887164
7	452	1058.518930789588	0
7	473	1108.361782751192	0
7	484	1132.694596718756	0
7	487	1136.108807583738	0
7	496	1147.533523235226	11.199697217114
7	507	1169.373945185366	21.295073592208
7	510	1173.56879228552	9.848210875155
7	511	1176.379682991385	7.891266205999
7	512	1176.864725901129	3.788426863478
7	515	1180.21275729299	3.296457632793
7	533	1216.291314203088	0
7	536	1230.755115960214	0
7	548	1272.682469325331	0
7	563	1317.361855239214	0
7	582	1361.686355425169	0
7	590	1413.14304119274	0
7	598	1419.219797478038	0
7	611	1455.374959090924	0
7	626	1512.613832586893	0
7	633	1535.686251525727	9.223178861999
7	640	1545.518748707868	0
7	652	1579.922105872001	0
7	666	1614.647544777863	0
7	695	1669.12752658445	0
7	734	1752.69058199458	0
7	760	1784.36714221366	0
7	782	1826.11813210479	0
7	789	1838.678330572056	0.177681928205
7	800	1862.163813384079	0
7	806	1870.862406747146	0
7	809	1881.496160769119	0
7	820	1901.865517618842	18.070286462932
7	823	1903.830771836602	0.589357265432
7	848	1986.939751930008	0
7	878	2024.452246727987	0
7	887	2039.077875945742	11.35033444296
7	890	2043.421282373768	12.759980024524
7	891	2044.730376450819	7.543051781659
7	898	2049.562016438356	0
7	910	2073.58352631853	0
7	913	2075.894727896174	1.631559513747
7	922	2095.128767516438	0
7	953	2143.862823377282	0
7	959	2148.922937466807	0
7	964	2158.719139823715	8.049405518151
7	971	2183.044205315737	0
7	974	2202.435043403632	0
7	980	2216.788444128043	0
7	998	2249.729384129566	0
7	1001	2251.367958607534	0
7	1010	2279.690247357455	0
7	1013	2280.749202926394	0.363818720449
7	1021	2294.765771610817	0
7	1033	2311.466960642226	0
7	1036	2315.209644212282	0.393458227106
7	1045	2322.460031337645	4.401146241609
7	1060	2337.331076913527	15.981327822868
7	1063	2339.61266041213	12.741700031309
7	1064	2345.435799681365	18.009014951865
7	1065	2349.600691356351	21.492722374042
7	1068	2355.847839899749	22.866330721958
7	1069	2359.368829216494	5.049440518849
7	1077	2370.218810734865	0
7	1096	2408.760504512205	0
7	1103	2422.9459360675	0
7	1107	2427.402652917027	0
7	1110	2432.751736103515	0
7	1118	2465.658478271555	0
7	1121	2473.649498551724	1.329183397188
7	1126	2478.737904117567	4.848702011209
7	1127	2482.689494129168	4.040487077461
7	1130	2498.862924785266	0
8	186	376.559033286256	24
8	192	429.503671822794	25
8	206	476.710917041362	26
8	207	478.034021223298	27
8	212	498.818533709864	28
8	219	521.352130940602	29
8	226	536.13030276896	30
8	243	589.136695278667	31
8	246	621.702314768107	32
8	254	626.482556808192	33
8	276	696.496214402672	34
8	287	721.164557752577	35
8	288	721.30978863662	36
8	291	728.936261004775	37
8	294	731.2497637596	38
8	295	732.633151700934	39
8	301	740.798604421592	40
8	320	759.876981687785	41
8	326	770.907757952679	42
8	334	783.439019736485	43
8	362	829.415979721495	44
8	366	838.005763464306	45
8	371	851.310007020136	46
8	376	853.507516848783	47
8	382	869.769452224165	48
8	407	922.763724968102	49
8	416	934.709659867245	50
8	417	934.770702082795	51
8	453	1066.483770173924	52
8	478	1116.386199600054	53
8	485	1134.54474809255	54
8	496	1147.533523235226	55
8	507	1169.373945185366	56
8	510	1173.56879228552	57
8	511	1176.379682991385	58
8	512	1176.864725901129	59
8	515	1180.21275729299	60
8	516	1189.77810903919	61
8	534	1217.584032016276	62
8	537	1234.6180508643	63
8	549	1277.530402462112	64
8	566	1329.097996626377	65
8	583	1362.050990005805	66
8	591	1414.194732172859	67
8	603	1432.738974314881	68
8	614	1458.211681021771	69
8	633	1535.686251525727	70
8	638	1545.5012480393	71
8	641	1546.450102882292	72
8	661	1601.082190100875	73
8	669	1617.834567628801	74
8	696	1674.437163129645	75
8	735	1752.934859563161	76
8	767	1795.585000749561	77
8	789	1838.678330572056	78
8	790	1840.252352092933	79
8	801	1862.625200064137	80
8	807	1876.528037141028	81
8	820	1901.865517618842	82
8	823	1903.830771836602	83
8	826	1913.359277675731	84
8	849	1988.488085482224	85
8	887	2039.077875945742	86
8	890	2043.421282373768	87
8	891	2044.730376450819	88
8	892	2045.431965492096	89
8	901	2050.384878978968	90
8	913	2075.894727896174	91
8	914	2077.844530720867	92
8	927	2100.623782442643	93
8	954	2144.043776632158	94
8	964	2158.719139823715	95
8	965	2164.119455929972	96
8	972	2185.459291227736	97
8	975	2206.733226092181	98
8	981	2218.264742295857	99
8	999	2251.206951323163	100
8	1002	2260.276125601026	101
8	1013	2280.749202926394	102
8	1014	2285.84009216953	103
8	1022	2301.340797583556	104
8	1036	2315.209644212282	105
8	1045	2322.460031337645	106
8	1060	2337.331076913527	107
8	1063	2339.61266041213	108
8	1064	2345.435799681365	109
8	1065	2349.600691356351	110
8	1068	2355.847839899749	111
8	1069	2359.368829216494	112
8	1070	2361.422918264855	113
8	1078	2373.219619864866	114
8	1097	2409.464478124815	115
8	1104	2423.821977870069	116
8	1108	2428.328423321093	117
8	1111	2434.924492826801	118
8	1121	2473.649498551724	119
8	1126	2478.737904117567	120
8	1127	2482.689494129168	121
8	1128	2486.188753491773	122
9	186	376.559033286256	1.167718237374
9	192	429.503671822794	13.404821113034
9	206	476.710917041362	18.944909453819
9	207	478.034021223298	1.485232818654
9	212	498.818533709864	12.461218538866
9	219	521.352130940602	1.990365492039
9	226	536.13030276896	6.862601874565
9	243	589.136695278667	24.836134889049
9	246	621.702314768107	2.691216121719
9	254	626.482556808192	1.131071387578
9	276	696.496214402672	39.948855421655
9	287	721.164557752577	28.401234596575
9	288	721.30978863662	17.569738501184
9	291	728.936261004775	18.555411316944
9	294	731.2497637596	10.795907367747
9	295	732.633151700934	9.20213373418
9	301	740.798604421592	6.887632290167
9	320	759.876981687785	0.880307859897
9	326	770.907757952679	4.251058626414
9	334	783.439019736485	3.988804333698
9	362	829.415979721495	10.43251531859
9	366	838.005763464306	2.757159060034
9	371	851.310007020136	7.942307010854
9	376	853.507516848783	0.398429925657
9	382	869.769452224165	5.930430435405
9	407	922.763724968102	2.270569523855
9	416	934.709659867245	3.057839963641
9	417	934.770702082795	1.425349102714
9	453	1066.483770173924	7.964839384336
9	478	1116.386199600054	8.024416848862
9	485	1134.54474809255	1.850151373794
9	496	1147.533523235226	11.424715651488
9	507	1169.373945185366	33.040119167254
9	510	1173.56879228552	25.489920692362
9	511	1176.379682991385	12.65910158102
9	512	1176.864725901129	8.376309115743
9	515	1180.21275729299	7.136458255339
9	516	1189.77810903919	12.861809378993
9	534	1217.584032016276	1.292717813188
9	537	1234.6180508643	3.862934904086
9	549	1277.530402462112	4.847933136781
9	566	1329.097996626377	11.736141387163
9	583	1362.050990005805	0.364634580636
9	591	1414.194732172859	1.051690980119
9	603	1432.738974314881	13.519176836843
9	614	1458.211681021771	2.836721930847
9	633	1535.686251525727	23.072418938834
9	638	1545.5012480393	19.038175375572
9	641	1546.450102882292	0.931354174424
9	661	1601.082190100875	21.160084228874
9	669	1617.834567628801	3.187022850938
9	696	1674.437163129645	5.309636545195
9	735	1752.934859563161	0.244277568581
9	767	1795.585000749561	11.217858535901
9	789	1838.678330572056	12.560198467266
9	790	1840.252352092933	1.751703449082
9	801	1862.625200064137	0.461386680058
9	807	1876.528037141028	5.665630393882
9	820	1901.865517618842	20.369356849723
9	823	1903.830771836602	20.035540680692
9	826	1913.359277675731	10.117863104561
9	849	1988.488085482224	1.548333552216
9	887	2039.077875945742	14.625629217755
9	890	2043.421282373768	15.693740870986
9	891	2044.730376450819	14.069074101575
9	892	2045.431965492096	8.244640822936
9	901	2050.384878978968	0.822862540612
9	913	2075.894727896174	2.311201577644
9	914	2077.844530720867	3.58136233844
9	927	2100.623782442643	5.495014926205
9	954	2144.043776632158	0.180953254876
9	964	2158.719139823715	9.796202356908
9	965	2164.119455929972	13.449721624408
9	972	2185.459291227736	2.415085911999
9	975	2206.733226092181	4.298182688549
9	981	2218.264742295857	1.476298167814
9	999	2251.206951323163	1.477567193597
9	1002	2260.276125601026	8.908166993492
9	1013	2280.749202926394	1.058955568939
9	1014	2285.84009216953	5.454707963585
9	1022	2301.340797583556	6.575025972739
9	1036	2315.209644212282	3.742683570056
9	1045	2322.460031337645	7.643845352469
9	1060	2337.331076913527	19.272191817491
9	1063	2339.61266041213	18.262911321471
9	1064	2345.435799681365	18.564839300544
9	1065	2349.600691356351	22.173906626851
9	1068	2355.847839899749	27.73987091744
9	1069	2359.368829216494	26.387320038703
9	1070	2361.422918264855	7.10352956721
9	1078	2373.219619864866	3.000809130001
9	1097	2409.464478124815	0.70397361261
9	1104	2423.821977870069	0.876041802569
9	1108	2428.328423321093	0.925770404066
9	1111	2434.924492826801	2.172756723286
9	1121	2473.649498551724	7.991020280169
9	1126	2478.737904117567	6.417588963031
9	1127	2482.689494129168	8.80029202281
9	1128	2486.188753491773	7.539746440066
10	211	486.357315170998	8
10	223	529.267700894395	9
10	298	733.910972131425	10
10	319	758.996673827888	11
10	323	766.656699326265	12
10	331	779.450215402787	13
10	375	853.109086923126	14
10	379	863.83902178876	15
10	484	1132.694596718756	16
10	487	1136.108807583738	17
10	582	1361.686355425169	18
10	598	1419.219797478038	19
10	640	1545.518748707868	20
10	652	1579.922105872001	21
10	666	1614.647544777863	22
10	695	1669.12752658445	23
10	760	1784.36714221366	24
10	878	2024.452246727987	25
10	898	2049.562016438356	26
10	910	2073.58352631853	27
10	922	2095.128767516438	28
10	1010	2279.690247357455	29
10	1021	2294.765771610817	30
10	1033	2311.466960642226	31
10	1077	2370.218810734865	32
10	1096	2408.760504512205	33
10	1103	2422.9459360675	34
10	1107	2427.402652917027	35
10	1110	2432.751736103515	36
11	1133	2500	0.1016
12	1133	2500	0.0488

