version 2
run experiments_medium_game_mode1-438-20230311-09:41:27-10876
attr configname experiments_medium_game_mode1
attr datetime 20230311-09:41:27
attr experiment experiments_medium_game_mode1
attr inifile omnetpp.ini
attr iterationvars "$0=5.5, $1=5, $2=0"
attr iterationvarsf 5.5,5,0-
attr measurement "$0=5.5, $1=5, $2=0"
attr network Network
attr processid 10876
attr repetition 18
attr replication #18
attr resultdir results
attr runnumber 438
attr seedset 18
param *.boss.arrival_mean 20
param *.boss.service_mean 5.5
param *.minion.arrival_mean 10
param *.minion.service_mean 5
param *.player.recover_rate_x 0
param **.minion.arrival_distribution 0
param **.minion.service_distribution 0
param **.boss.arrival_distribution 0
param **.boss.service_distribution 0

vector 0 Network.player boss_jobs_number_stat:vector ETV
attr source signal_boss_jobs_number
vector 1 Network.player boss_jobs_queue_number_stat:vector ETV
attr source signal_boss_jobs_queue_number
vector 2 Network.player minion_recovered_stat:vector ETV
attr source signal_minion_recovered
vector 3 Network.player boss_waiting_time_stat:vector ETV
attr source signal_boss_waiting_time
vector 4 Network.player minion_jobs_number_stat:vector ETV
attr source signal_minion_jobs_number
vector 5 Network.player minion_jobs_queue_number_stat:vector ETV
attr source signal_minion_jobs_queue_number
vector 6 Network.player boss_defeated_stat:vector ETV
attr source signal_boss_defeated
vector 7 Network.player boss_response_time_stat:vector ETV
attr source signal_boss_response_time
vector 8 Network.player minion_waiting_time_stat:vector ETV
attr source signal_minion_waiting_time
vector 9 Network.player minion_defeated_stat:vector ETV
attr source signal_minion_defeated
vector 10 Network.player minion_response_time_stat:vector ETV
attr source signal_minion_response_time
vector 11 Network.player minion_throughput:vector ETV
attr source signal_minion_throughput
vector 12 Network.player boss_throughput:vector ETV
attr source signal_boss_throughput
0	139	352.65760743913	1
0	147	359.293699558628	1
0	150	361.689670555923	1
0	178	423.510220605586	1
0	194	464.310329824607	1
0	206	490.311357624162	1
0	215	503.252965294132	1
0	219	507.787385408353	2
0	224	509.460907223688	2
0	231	515.59083765368	2
0	233	518.812306809382	3
0	240	528.789657893763	3
0	243	536.621619676878	3
0	247	539.876371230947	4
0	249	540.011977590143	5
0	268	576.409290106954	1
0	278	601.646983798841	1
0	290	620.5673933378	1
0	292	621.913209437982	2
0	307	646.35204339536	1
0	313	657.379640067769	1
0	344	733.174320689637	1
0	353	765.857088538859	1
0	383	831.36383180455	1
0	385	831.962629369746	2
0	392	850.840600045191	2
0	398	865.76178541671	3
0	415	901.223484359462	1
0	433	932.184322298713	1
0	439	937.929585530627	1
0	453	971.342649776712	1
0	465	983.072545625181	1
0	470	991.427067730116	1
0	479	1015.605515033844	1
0	486	1025.81114179477	1
0	515	1109.798972014767	1
0	530	1149.457133924026	1
0	550	1196.526696454582	1
0	552	1196.569454728748	2
0	557	1210.285144495441	1
0	559	1213.98675580795	2
0	566	1231.630065478987	2
0	570	1241.308179746611	3
0	583	1263.189796643971	1
0	594	1281.513172219529	1
0	601	1292.096612948606	1
0	607	1294.89263798076	2
0	609	1295.723033753267	3
0	611	1296.428746356222	4
0	613	1297.941004178685	5
0	625	1322.14802534089	2
0	627	1323.120498050406	3
0	637	1338.292960251381	4
0	661	1384.918681491055	1
0	668	1412.519964056525	1
0	681	1429.644800299848	1
0	683	1432.943823798201	2
0	693	1454.825693868242	1
0	695	1456.237201907714	2
0	699	1463.501273298819	3
0	707	1476.895200702336	2
0	711	1478.65248867971	3
0	718	1493.942844496456	3
0	726	1513.068384497825	1
0	735	1530.316331484607	1
0	783	1626.275814319071	1
0	790	1648.090529582688	1
0	792	1648.406833864499	2
0	798	1660.09057612624	1
0	804	1673.738745992098	1
0	809	1676.701949053993	1
0	811	1677.810560318481	2
0	814	1682.363952277894	2
0	819	1701.700788650236	2
0	822	1706.668184001908	2
0	843	1748.582026119455	1
0	864	1779.095334613409	1
0	874	1801.263659048677	1
0	887	1825.874136888878	1
0	892	1830.294960282079	1
0	898	1845.141402175686	1
0	908	1885.574877957284	1
0	949	1962.87460879635	1
0	959	2024.60862566707	1
0	961	2030.819784934859	2
0	968	2055.285658945094	1
0	983	2081.351597619549	1
0	995	2096.782173260599	1
0	1001	2106.087901989699	1
0	1024	2154.144294006872	1
0	1032	2167.364661838233	1
0	1040	2176.992351096176	1
0	1049	2206.891406240519	1
0	1061	2247.512079356014	1
0	1070	2306.924212961346	1
0	1076	2348.186366084548	1
0	1085	2370.15674638938	1
0	1108	2425.111267728735	1
0	1121	2451.626198357569	1
0	1127	2469.476608553846	1
0	1133	2490.238705866935	1
0	1135	2494.252370332495	2
0	1137	2494.636027121347	3
1	139	352.65760743913	0
1	142	355.234957148056	0
1	147	359.293699558628	0
1	148	359.601323760454	0
1	150	361.689670555923	0
1	153	376.604513839375	0
1	178	423.510220605586	0
1	181	427.625190107073	0
1	194	464.310329824607	0
1	195	470.055219099707	0
1	206	490.311357624162	0
1	209	495.533859992509	0
1	215	503.252965294132	0
1	219	507.787385408353	1
1	222	509.380543972085	1
1	224	509.460907223688	1
1	225	513.397481993815	1
1	231	515.59083765368	1
1	233	518.812306809382	2
1	238	528.14846014183	2
1	240	528.789657893763	2
1	241	535.520168142736	2
1	243	536.621619676878	2
1	247	539.876371230947	3
1	249	540.011977590143	4
1	250	541.617614045256	4
1	253	546.823330896409	3
1	254	548.276033152219	2
1	257	552.423354274662	1
1	258	554.048558227707	0
1	268	576.409290106954	0
1	269	578.708725978218	0
1	278	601.646983798841	0
1	281	603.048833145662	0
1	290	620.5673933378	0
1	292	621.913209437982	1
1	293	623.312725323997	1
1	294	623.775514456228	0
1	307	646.35204339536	0
1	308	651.574212194976	0
1	313	657.379640067769	0
1	316	658.498016789084	0
1	344	733.174320689637	0
1	345	736.631905603406	0
1	353	765.857088538859	0
1	356	772.956489092589	0
1	383	831.36383180455	0
1	385	831.962629369746	1
1	386	832.084235689485	1
1	392	850.840600045191	1
1	398	865.76178541671	2
1	401	869.708038973638	2
1	402	872.217186197593	1
1	403	873.067023519333	0
1	415	901.223484359462	0
1	416	906.058937386884	0
1	433	932.184322298713	0
1	434	933.555949632523	0
1	439	937.929585530627	0
1	440	939.040782405726	0
1	453	971.342649776712	0
1	454	973.137617073512	0
1	465	983.072545625181	0
1	466	987.491051566223	0
1	470	991.427067730116	0
1	475	998.98733540028	0
1	479	1015.605515033844	0
1	480	1016.602754939575	0
1	486	1025.81114179477	0
1	493	1047.461437729863	0
1	515	1109.798972014767	0
1	518	1113.621691236613	0
1	530	1149.457133924026	0
1	535	1157.734940807631	0
1	550	1196.526696454582	0
1	552	1196.569454728748	1
1	553	1201.557482907776	1
1	554	1208.090998229455	0
1	557	1210.285144495441	0
1	559	1213.98675580795	1
1	562	1227.096688861015	1
1	566	1231.630065478987	1
1	570	1241.308179746611	2
1	571	1243.405832947714	2
1	572	1246.274865932309	1
1	573	1246.720616134271	0
1	583	1263.189796643971	0
1	588	1274.768549982331	0
1	594	1281.513172219529	0
1	595	1282.810099482965	0
1	601	1292.096612948606	0
1	607	1294.89263798076	1
1	609	1295.723033753267	2
1	611	1296.428746356222	3
1	613	1297.941004178685	4
1	614	1298.294435649831	4
1	615	1304.317239088538	3
1	618	1307.090084539414	2
1	623	1315.92484113241	1
1	625	1322.14802534089	1
1	627	1323.120498050406	2
1	637	1338.292960251381	3
1	638	1343.036165414318	3
1	641	1348.629972671147	2
1	642	1350.785852798235	1
1	643	1350.972115952691	0
1	661	1384.918681491055	0
1	662	1392.216063043291	0
1	668	1412.519964056525	0
1	669	1414.366547870212	0
1	681	1429.644800299848	0
1	683	1432.943823798201	1
1	690	1452.606357255023	1
1	691	1453.096060114614	0
1	693	1454.825693868242	0
1	695	1456.237201907714	1
1	699	1463.501273298819	2
1	700	1464.193529024495	2
1	703	1475.64236497073	1
1	707	1476.895200702336	1
1	711	1478.65248867971	2
1	712	1480.905334247555	2
1	718	1493.942844496456	2
1	719	1497.927375492147	2
1	720	1501.180008506103	1
1	721	1508.349101713036	0
1	726	1513.068384497825	0
1	729	1519.518468483332	0
1	735	1530.316331484607	0
1	736	1530.457083057754	0
1	783	1626.275814319071	0
1	786	1631.468441287402	0
1	790	1648.090529582688	0
1	792	1648.406833864499	1
1	793	1655.839988929356	1
1	796	1657.286311414843	0
1	798	1660.09057612624	0
1	801	1672.321663513372	0
1	804	1673.738745992098	0
1	805	1675.648405974112	0
1	809	1676.701949053993	0
1	811	1677.810560318481	1
1	812	1678.39688832282	1
1	814	1682.363952277894	1
1	815	1687.498560033863	1
1	819	1701.700788650236	1
1	820	1702.23295380425	1
1	822	1706.668184001908	1
1	823	1707.029610587871	1
1	824	1709.909000715347	0
1	843	1748.582026119455	0
1	844	1752.243059334305	0
1	864	1779.095334613409	0
1	867	1782.045710407393	0
1	874	1801.263659048677	0
1	875	1803.573274782576	0
1	887	1825.874136888878	0
1	888	1827.08715121635	0
1	892	1830.294960282079	0
1	893	1834.504431711958	0
1	898	1845.141402175686	0
1	901	1868.487279996237	0
1	908	1885.574877957284	0
1	909	1885.649815574593	0
1	949	1962.87460879635	0
1	950	1964.941783272595	0
1	959	2024.60862566707	0
1	961	2030.819784934859	1
1	962	2032.313472936383	1
1	963	2033.39842386356	0
1	968	2055.285658945094	0
1	971	2060.448008835701	0
1	983	2081.351597619549	0
1	984	2081.415186189532	0
1	995	2096.782173260599	0
1	996	2101.074653323877	0
1	1001	2106.087901989699	0
1	1004	2114.985262053194	0
1	1024	2154.144294006872	0
1	1025	2156.387466766789	0
1	1032	2167.364661838233	0
1	1035	2171.219808344083	0
1	1040	2176.992351096176	0
1	1041	2180.00307711338	0
1	1049	2206.891406240519	0
1	1052	2210.363850461026	0
1	1061	2247.512079356014	0
1	1062	2250.998991285835	0
1	1070	2306.924212961346	0
1	1071	2315.238156551455	0
1	1076	2348.186366084548	0
1	1077	2349.981298101126	0
1	1085	2370.15674638938	0
1	1086	2371.99028739213	0
1	1108	2425.111267728735	0
1	1109	2431.229172941408	0
1	1121	2451.626198357569	0
1	1122	2452.257036162289	0
1	1127	2469.476608553846	0
1	1128	2476.303549925659	0
1	1133	2490.238705866935	0
1	1135	2494.252370332495	1
1	1137	2494.636027121347	2
2	139	352.65760743913	7
2	147	359.293699558628	8
2	150	361.689670555923	9
2	178	423.510220605586	10
2	268	576.409290106954	11
2	278	601.646983798841	12
2	290	620.5673933378	13
2	307	646.35204339536	14
2	313	657.379640067769	15
2	415	901.223484359462	16
2	433	932.184322298713	17
2	439	937.929585530627	18
2	453	971.342649776712	19
2	465	983.072545625181	20
2	486	1025.81114179477	21
2	515	1109.798972014767	22
2	550	1196.526696454582	23
2	583	1263.189796643971	24
2	594	1281.513172219529	25
2	601	1292.096612948606	26
2	661	1384.918681491055	27
2	668	1412.519964056525	28
2	681	1429.644800299848	29
2	693	1454.825693868242	30
2	726	1513.068384497825	31
2	735	1530.316331484607	32
2	783	1626.275814319071	33
2	790	1648.090529582688	34
2	798	1660.09057612624	35
2	804	1673.738745992098	36
2	809	1676.701949053993	37
2	843	1748.582026119455	38
2	864	1779.095334613409	39
2	874	1801.263659048677	40
2	887	1825.874136888878	41
2	892	1830.294960282079	42
2	898	1845.141402175686	43
2	908	1885.574877957284	44
2	949	1962.87460879635	45
2	1024	2154.144294006872	46
2	1032	2167.364661838233	47
2	1108	2425.111267728735	48
3	139	352.65760743913	0
3	147	359.293699558628	0
3	150	361.689670555923	0
3	178	423.510220605586	0
3	194	464.310329824607	0
3	206	490.311357624162	0
3	215	503.252965294132	0
3	222	509.380543972085	1.593158563732
3	225	513.397481993815	3.936574770127
3	238	528.14846014183	12.55762248815
3	241	535.520168142736	16.707861333354
3	250	541.617614045256	12.827956151493
3	253	546.823330896409	10.201711219531
3	254	548.276033152219	8.399661921272
3	257	552.423354274662	12.411376684519
3	268	576.409290106954	0
3	278	601.646983798841	0
3	290	620.5673933378	0
3	293	623.312725323997	1.399515886015
3	307	646.35204339536	0
3	313	657.379640067769	0
3	344	733.174320689637	0
3	353	765.857088538859	0
3	383	831.36383180455	0
3	386	832.084235689485	0.121606319739
3	401	869.708038973638	18.867438928447
3	402	872.217186197593	6.455400780883
3	415	901.223484359462	0
3	433	932.184322298713	0
3	439	937.929585530627	0
3	453	971.342649776712	0
3	465	983.072545625181	0
3	470	991.427067730116	0
3	479	1015.605515033844	0
3	486	1025.81114179477	0
3	515	1109.798972014767	0
3	530	1149.457133924026	0
3	550	1196.526696454582	0
3	553	1201.557482907776	4.988028179028
3	557	1210.285144495441	0
3	562	1227.096688861015	13.109933053065
3	571	1243.405832947714	11.775767468727
3	572	1246.274865932309	4.966686185698
3	583	1263.189796643971	0
3	594	1281.513172219529	0
3	601	1292.096612948606	0
3	614	1298.294435649831	3.401797669071
3	615	1304.317239088538	8.594205335271
3	618	1307.090084539414	10.661338183192
3	623	1315.92484113241	17.983836953725
3	638	1343.036165414318	20.888140073428
3	641	1348.629972671147	25.509474620741
3	642	1350.785852798235	12.492892546854
3	661	1384.918681491055	0
3	668	1412.519964056525	0
3	681	1429.644800299848	0
3	690	1452.606357255023	19.662533456822
3	693	1454.825693868242	0
3	700	1464.193529024495	7.956327116781
3	703	1475.64236497073	12.141091671911
3	712	1480.905334247555	4.010133545219
3	719	1497.927375492147	19.274886812437
3	720	1501.180008506103	7.237164009647
3	726	1513.068384497825	0
3	735	1530.316331484607	0
3	783	1626.275814319071	0
3	790	1648.090529582688	0
3	793	1655.839988929356	7.433155064857
3	798	1660.09057612624	0
3	804	1673.738745992098	0
3	809	1676.701949053993	0
3	812	1678.39688832282	0.586328004339
3	815	1687.498560033863	5.134607755969
3	820	1702.23295380425	0.532165154014
3	823	1707.029610587871	0.361426585963
3	843	1748.582026119455	0
3	864	1779.095334613409	0
3	874	1801.263659048677	0
3	887	1825.874136888878	0
3	892	1830.294960282079	0
3	898	1845.141402175686	0
3	908	1885.574877957284	0
3	949	1962.87460879635	0
3	959	2024.60862566707	0
3	962	2032.313472936383	1.493688001524
3	968	2055.285658945094	0
3	983	2081.351597619549	0
3	995	2096.782173260599	0
3	1001	2106.087901989699	0
3	1024	2154.144294006872	0
3	1032	2167.364661838233	0
3	1040	2176.992351096176	0
3	1049	2206.891406240519	0
3	1061	2247.512079356014	0
3	1070	2306.924212961346	0
3	1076	2348.186366084548	0
3	1085	2370.15674638938	0
3	1108	2425.111267728735	0
3	1121	2451.626198357569	0
3	1127	2469.476608553846	0
3	1133	2490.238705866935	0
4	141	355.05946736505	8
4	152	370.780850023652	6
4	158	386.01824043156	4
4	163	397.684376195028	2
4	167	407.278190585379	1
4	169	407.91544005567	2
4	171	417.79778371846	3
4	173	419.657785982005	4
4	180	424.276063284641	2
4	184	445.699346670034	2
4	186	447.543103794211	3
4	191	460.516704985146	1
4	197	474.19422053615	1
4	200	481.095683169202	1
4	203	486.127831312219	1
4	208	490.485140357307	1
4	212	501.288951545055	1
4	217	505.002956299096	1
4	221	508.839663443019	2
4	227	513.738271046524	3
4	229	514.458292495847	4
4	235	525.229499277953	5
4	237	525.730885217399	6
4	245	537.391873471516	7
4	252	543.219500807899	8
4	256	548.535664666951	9
4	261	560.623706455632	9
4	266	568.939460714816	7
4	273	584.468749162211	6
4	275	599.791279867924	7
4	280	602.50064407349	7
4	283	605.718975695784	8
4	285	616.248476632966	9
4	288	619.18447714698	9
4	298	639.624648878793	8
4	302	641.806301898067	7
4	304	644.169706261645	8
4	315	658.230766056464	5
4	319	659.622136286692	5
4	322	665.804613480816	5
4	327	682.178400840308	3
4	332	700.87674194091	1
4	334	701.285677243009	2
4	338	717.967404583469	1
4	341	722.446726874082	1
4	347	739.610347347772	1
4	349	750.885863105092	2
4	355	769.247020053464	1
4	359	786.806884617963	1
4	362	796.034432044079	1
4	365	801.770196139294	1
4	367	802.643361737249	2
4	369	803.466342464771	3
4	374	821.989938605393	1
4	377	822.971999659924	1
4	379	825.692127493628	2
4	388	837.481048809211	1
4	390	837.528711359265	2
4	394	853.367451096851	3
4	396	864.80791871467	4
4	400	868.699468202168	5
4	410	892.215476562267	1
4	412	896.95419122637	2
4	418	908.783784786466	2
4	421	921.983408396422	2
4	423	923.077491675642	3
4	426	926.313872219769	3
4	428	928.366526091904	4
4	431	931.138786419577	4
4	443	951.775819964726	1
4	446	954.938401825785	1
4	449	960.15791517345	1
4	451	961.941637758824	2
4	456	973.955373969978	3
4	458	974.438970779056	4
4	462	976.208487875792	3
4	472	994.275476802733	1
4	474	998.967850855492	2
4	482	1021.422423220967	1
4	484	1025.61861987627	2
4	488	1034.732109192486	3
4	490	1038.782605635946	4
4	492	1043.159900290471	5
4	497	1064.460086608793	4
4	499	1065.265403748812	5
4	506	1093.886914810011	1
4	508	1095.796884728062	2
4	510	1100.441881947243	3
4	513	1102.411024622887	3
4	517	1110.248847979331	4
4	520	1115.662036455481	5
4	523	1127.991864436109	5
4	532	1150.403494908239	1
4	534	1157.698185414769	2
4	537	1160.726672716901	3
4	542	1179.987550244786	1
4	545	1190.406193379886	1
4	548	1192.060187505366	1
4	561	1214.542207979603	1
4	564	1230.587609546064	2
4	568	1239.074375508244	3
4	577	1257.072305290322	2
4	579	1258.154433461831	3
4	581	1258.463916101759	4
4	585	1268.084140595639	5
4	587	1269.559912571375	6
4	590	1279.343956200392	7
4	592	1281.438934440836	8
4	603	1293.39115214529	5
4	605	1294.09831111435	6
4	617	1306.377084729727	7
4	620	1308.790255576544	8
4	622	1312.306243155178	9
4	629	1325.552127347144	10
4	631	1329.476278199886	11
4	633	1331.977731951153	12
4	635	1335.18914020612	13
4	640	1345.473493177319	14
4	645	1353.837422051082	15
4	647	1355.903882210185	16
4	650	1356.72186603143	16
4	652	1361.4761275669	17
4	654	1367.411236736202	18
4	664	1399.696189430956	14
4	673	1417.078528100198	11
4	675	1420.290782061921	12
4	685	1438.259455455825	9
4	687	1444.792201787484	10
4	689	1449.871614903672	11
4	697	1460.060926220485	12
4	702	1464.592283923065	13
4	705	1476.202711998038	14
4	709	1478.069516448218	15
4	714	1485.640289736562	16
4	716	1487.04370975529	17
4	723	1512.283199849435	18
4	728	1514.492181875754	18
4	733	1525.749158143837	17
4	739	1532.577202008577	17
4	741	1538.005236612714	18
4	747	1551.435827516609	15
4	749	1561.172855466474	16
4	752	1562.687982903677	16
4	757	1576.644626109085	14
4	759	1577.971520441329	15
4	762	1578.224976662378	15
4	765	1580.245655261544	15
4	768	1584.930820075336	15
4	774	1598.806839497624	12
4	776	1609.425566048026	13
4	780	1624.066798678646	12
4	785	1627.508938156312	12
4	788	1644.804533826314	13
4	795	1656.941765470321	14
4	800	1667.440571028196	15
4	817	1696.918963719115	13
4	827	1719.112607261954	13
4	832	1730.314919826024	11
4	838	1747.308895643383	8
4	841	1748.047353153453	8
4	848	1758.501417219979	7
4	850	1759.620362943869	8
4	853	1761.129210365635	8
4	855	1763.813737269511	9
4	858	1770.185782847709	9
4	862	1778.687776808715	8
4	866	1781.263490443706	9
4	869	1783.647511303199	10
4	871	1791.920343721064	11
4	879	1809.927053426328	9
4	884	1824.121326190655	7
4	890	1828.799173711548	7
4	895	1836.776512552437	8
4	900	1863.001971466587	8
4	905	1877.221133022566	7
4	912	1886.960024108163	6
4	915	1894.963428843149	6
4	917	1898.466332015644	7
4	919	1905.001104474535	8
4	927	1918.282732109325	3
4	932	1930.581653249306	1
4	935	1935.826789934323	1
4	937	1942.879357732617	2
4	941	1951.691519557266	1
4	943	1951.845844740435	2
4	946	1955.941756291918	2
4	953	1981.415149903608	1
4	956	1991.932271441198	1
4	965	2036.820239663622	1
4	970	2055.395634036457	1
4	974	2066.336908056797	1
4	977	2068.572735745909	1
4	980	2073.629401755589	1
4	986	2090.373689927269	1
4	989	2091.510531786147	1
4	992	2094.509784816636	1
4	998	2103.10888607586	1
4	1003	2109.544519618569	1
4	1007	2121.370922174609	1
4	1010	2121.865282291356	1
4	1013	2140.760935507749	1
4	1016	2148.408502014201	1
4	1018	2150.88545136286	2
4	1020	2153.152701023359	3
4	1027	2156.826185249186	2
4	1030	2158.885137271309	2
4	1034	2167.645034195839	3
4	1043	2180.820140528645	1
4	1046	2190.617248134383	1
4	1051	2208.631005398133	1
4	1054	2213.327587140208	2
4	1058	2229.887447686045	1
4	1064	2260.949383513056	1
4	1067	2299.27861517504	1
4	1073	2325.819276184382	1
4	1079	2354.169776292782	1
4	1082	2363.140470416597	1
4	1088	2372.742441384221	1
4	1090	2376.357023247149	2
4	1094	2387.929246926715	1
4	1096	2388.368622764903	2
4	1100	2399.324458944691	1
4	1103	2416.76104363929	1
4	1106	2420.683923370384	1
4	1112	2433.483901769592	1
4	1114	2436.064121627286	2
4	1117	2449.110225251561	2
4	1124	2452.839439866003	1
4	1130	2485.429838161415	1
5	141	355.05946736505	7
5	143	357.176366904966	7
5	144	358.113593689834	6
5	145	358.980671362035	5
5	152	370.780850023652	5
5	154	377.163847789468	5
5	155	378.700343613866	4
5	156	380.219208251228	3
5	158	386.01824043156	3
5	159	387.160099700473	3
5	160	389.513473441993	2
5	161	392.450722066165	1
5	163	397.684376195028	1
5	164	402.901807870041	1
5	165	404.171479463032	0
5	167	407.278190585379	0
5	169	407.91544005567	1
5	171	417.79778371846	2
5	173	419.657785982005	3
5	174	419.849379902893	3
5	175	420.814277546682	2
5	176	421.368783965661	1
5	180	424.276063284641	1
5	182	433.418748321939	1
5	184	445.699346670034	1
5	186	447.543103794211	2
5	187	451.066365527466	2
5	188	451.695771822357	1
5	189	451.917764581792	0
5	191	460.516704985146	0
5	192	461.963315468307	0
5	197	474.19422053615	0
5	198	474.367404736386	0
5	200	481.095683169202	0
5	201	483.469113516407	0
5	203	486.127831312219	0
5	204	489.930475957777	0
5	208	490.485140357307	0
5	210	499.678164812572	0
5	212	501.288951545055	0
5	213	501.428143861494	0
5	217	505.002956299096	0
5	221	508.839663443019	1
5	227	513.738271046524	2
5	229	514.458292495847	3
5	235	525.229499277953	4
5	237	525.730885217399	5
5	245	537.391873471516	6
5	252	543.219500807899	7
5	256	548.535664666951	8
5	259	560.063967420563	8
5	261	560.623706455632	8
5	262	562.122618434797	8
5	263	567.465767631289	7
5	264	568.540007626893	6
5	266	568.939460714816	6
5	270	580.273246866196	6
5	271	582.483737435631	5
5	273	584.468749162211	5
5	275	599.791279867924	6
5	276	601.317560974482	6
5	280	602.50064407349	6
5	283	605.718975695784	7
5	285	616.248476632966	8
5	286	617.751793394583	8
5	288	619.18447714698	8
5	295	629.972439248744	8
5	296	638.543251935529	7
5	298	639.624648878793	7
5	299	640.821427227441	7
5	300	640.892135314709	6
5	302	641.806301898067	6
5	304	644.169706261645	7
5	305	646.216452028775	7
5	309	651.859347276795	6
5	310	653.4121683846	5
5	311	654.366581335289	4
5	315	658.230766056464	4
5	317	658.782552005392	4
5	319	659.622136286692	4
5	320	663.846359475767	4
5	322	665.804613480816	4
5	323	669.254943928505	4
5	324	672.084283811375	3
5	325	677.73980202327	2
5	327	682.178400840308	2
5	328	682.356075046159	2
5	329	687.233859132272	1
5	330	687.8812263233	0
5	332	700.87674194091	0
5	334	701.285677243009	1
5	335	710.818479709123	1
5	336	712.015296783519	0
5	338	717.967404583469	0
5	339	719.408386657994	0
5	341	722.446726874082	0
5	342	725.987402271197	0
5	347	739.610347347772	0
5	349	750.885863105092	1
5	350	758.854266251026	1
5	351	762.091295690766	0
5	355	769.247020053464	0
5	357	778.252683116589	0
5	359	786.806884617963	0
5	360	787.231473440766	0
5	362	796.034432044079	0
5	363	799.868390479853	0
5	365	801.770196139294	0
5	367	802.643361737249	1
5	369	803.466342464771	2
5	370	803.978307566999	2
5	371	804.87709113404	1
5	372	811.48329759133	0
5	374	821.989938605393	0
5	375	822.271910252655	0
5	377	822.971999659924	0
5	379	825.692127493628	1
5	380	829.539876835553	1
5	381	830.263731280088	0
5	388	837.481048809211	0
5	390	837.528711359265	1
5	394	853.367451096851	2
5	396	864.80791871467	3
5	400	868.699468202168	4
5	404	873.695071196605	4
5	405	878.505506192372	3
5	406	878.720612419309	2
5	407	880.028986073799	1
5	408	881.948886274352	0
5	410	892.215476562267	0
5	412	896.95419122637	1
5	413	897.76806023695	1
5	418	908.783784786466	1
5	419	911.727917509831	1
5	421	921.983408396422	1
5	423	923.077491675642	2
5	424	926.253847368677	2
5	426	926.313872219769	2
5	428	928.366526091904	3
5	429	930.934772694458	3
5	431	931.138786419577	3
5	435	933.957438506409	3
5	436	934.545701223023	2
5	437	936.09006038685	1
5	441	939.661521266222	0
5	443	951.775819964726	0
5	444	951.818377463803	0
5	446	954.938401825785	0
5	447	959.352821881035	0
5	449	960.15791517345	0
5	451	961.941637758824	1
5	456	973.955373969978	2
5	458	974.438970779056	3
5	459	975.895290745181	3
5	460	975.934269001531	2
5	462	976.208487875792	2
5	463	980.313100702167	2
5	467	989.08146441403	1
5	468	991.356360835303	0
5	472	994.275476802733	0
5	474	998.967850855492	1
5	476	999.250085731295	1
5	477	1004.083596752474	0
5	482	1021.422423220967	0
5	484	1025.61861987627	1
5	488	1034.732109192486	2
5	490	1038.782605635946	3
5	492	1043.159900290471	4
5	494	1056.675626732427	4
5	495	1056.695431600461	3
5	497	1064.460086608793	3
5	499	1065.265403748812	4
5	500	1073.31401105201	4
5	501	1078.850039689041	3
5	502	1078.877895880757	2
5	503	1084.445668550654	1
5	504	1090.277227420388	0
5	506	1093.886914810011	0
5	508	1095.796884728062	1
5	510	1100.441881947243	2
5	511	1101.624953080428	2
5	513	1102.411024622887	2
5	517	1110.248847979331	3
5	520	1115.662036455481	4
5	521	1121.65075965078	4
5	523	1127.991864436109	4
5	524	1129.526111217783	4
5	525	1132.764371185945	3
5	526	1132.965830380094	2
5	527	1138.427828152256	1
5	528	1138.820870284836	0
5	532	1150.403494908239	0
5	534	1157.698185414769	1
5	537	1160.726672716901	2
5	538	1166.017474623629	2
5	539	1176.883331807598	1
5	540	1177.765755874245	0
5	542	1179.987550244786	0
5	543	1189.605732135014	0
5	545	1190.406193379886	0
5	546	1191.87608435558	0
5	548	1192.060187505366	0
5	555	1208.805632045038	0
5	561	1214.542207979603	0
5	564	1230.587609546064	1
5	568	1239.074375508244	2
5	574	1250.195317113284	2
5	575	1251.05166515933	1
5	577	1257.072305290322	1
5	579	1258.154433461831	2
5	581	1258.463916101759	3
5	585	1268.084140595639	4
5	587	1269.559912571375	5
5	590	1279.343956200392	6
5	592	1281.438934440836	7
5	596	1286.304770488338	7
5	597	1288.323846293031	6
5	598	1289.333553455445	5
5	599	1290.421718450514	4
5	603	1293.39115214529	4
5	605	1294.09831111435	5
5	617	1306.377084729727	6
5	620	1308.790255576544	7
5	622	1312.306243155178	8
5	629	1325.552127347144	9
5	631	1329.476278199886	10
5	633	1331.977731951153	11
5	635	1335.18914020612	12
5	640	1345.473493177319	13
5	645	1353.837422051082	14
5	647	1355.903882210185	15
5	648	1356.569738134861	15
5	650	1356.72186603143	15
5	652	1361.4761275669	16
5	654	1367.411236736202	17
5	655	1369.361879759034	17
5	656	1374.077244089059	16
5	657	1374.321572039478	15
5	658	1376.231811173721	14
5	659	1379.538565271947	13
5	664	1399.696189430956	13
5	665	1404.712972395469	13
5	666	1411.524571987938	12
5	670	1415.155567802118	11
5	671	1415.976226722969	10
5	673	1417.078528100198	10
5	675	1420.290782061921	11
5	676	1423.799166063896	11
5	677	1423.940273959697	10
5	678	1426.782280471042	9
5	679	1427.957419892802	8
5	685	1438.259455455825	8
5	687	1444.792201787484	9
5	689	1449.871614903672	10
5	697	1460.060926220485	11
5	702	1464.592283923065	12
5	705	1476.202711998038	13
5	709	1478.069516448218	14
5	714	1485.640289736562	15
5	716	1487.04370975529	16
5	723	1512.283199849435	17
5	724	1512.593237776608	17
5	728	1514.492181875754	17
5	730	1524.276894508476	17
5	731	1524.517497812462	16
5	733	1525.749158143837	16
5	737	1531.612233742927	16
5	739	1532.577202008577	16
5	741	1538.005236612714	17
5	742	1540.575888054686	17
5	743	1543.28445522866	16
5	744	1548.607595758629	15
5	745	1550.801581076647	14
5	747	1551.435827516609	14
5	749	1561.172855466474	15
5	750	1562.535516401615	15
5	752	1562.687982903677	15
5	753	1562.803147861682	15
5	754	1566.620296940767	14
5	755	1576.497768938011	13
5	757	1576.644626109085	13
5	759	1577.971520441329	14
5	760	1578.006668050859	14
5	762	1578.224976662378	14
5	763	1578.675793606026	14
5	765	1580.245655261544	14
5	766	1581.279006307852	14
5	768	1584.930820075336	14
5	769	1591.325294789462	14
5	770	1593.272817118797	13
5	771	1598.031250305139	12
5	772	1598.185095541347	11
5	774	1598.806839497624	11
5	776	1609.425566048026	12
5	777	1615.223104168169	12
5	778	1616.839024062989	11
5	780	1624.066798678646	11
5	781	1624.179520579245	11
5	785	1627.508938156312	11
5	788	1644.804533826314	12
5	795	1656.941765470321	13
5	800	1667.440571028196	14
5	802	1673.565541694783	14
5	806	1675.870033543301	13
5	807	1676.007633208495	12
5	817	1696.918963719115	12
5	825	1712.513859855585	12
5	827	1719.112607261954	12
5	828	1719.474739618199	12
5	829	1726.197902507428	11
5	830	1728.370136029114	10
5	832	1730.314919826024	10
5	833	1731.036257888954	10
5	834	1734.151809378604	9
5	835	1736.108362553832	8
5	836	1738.567173197595	7
5	838	1747.308895643383	7
5	839	1747.969617840665	7
5	841	1748.047353153453	7
5	845	1754.511005613765	7
5	846	1757.394470162743	6
5	848	1758.501417219979	6
5	850	1759.620362943869	7
5	851	1760.151174538686	7
5	853	1761.129210365635	7
5	855	1763.813737269511	8
5	856	1763.842477865349	8
5	858	1770.185782847709	8
5	859	1772.872383526028	8
5	860	1777.124383542701	7
5	862	1778.687776808715	7
5	866	1781.263490443706	8
5	869	1783.647511303199	9
5	871	1791.920343721064	10
5	872	1801.175530287814	10
5	876	1806.887825580098	9
5	877	1808.071325842517	8
5	879	1809.927053426328	8
5	880	1812.038327824404	8
5	881	1813.123472510408	7
5	882	1814.23099255532	6
5	884	1824.121326190655	6
5	885	1824.601623072594	6
5	890	1828.799173711548	6
5	895	1836.776512552437	7
5	896	1837.304869450286	7
5	900	1863.001971466587	7
5	902	1869.643253120577	7
5	903	1869.646228086297	6
5	905	1877.221133022566	6
5	906	1885.314657263146	6
5	910	1886.329019929189	5
5	912	1886.960024108163	5
5	913	1892.87687658156	5
5	915	1894.963428843149	5
5	917	1898.466332015644	6
5	919	1905.001104474535	7
5	920	1905.459108655244	7
5	921	1906.152941369242	6
5	922	1909.396166521115	5
5	923	1913.296269399774	4
5	924	1916.849178175323	3
5	925	1917.346531743142	2
5	927	1918.282732109325	2
5	928	1921.413739350109	2
5	929	1922.675000680961	1
5	930	1923.379147427225	0
5	932	1930.581653249306	0
5	933	1932.48980957289	0
5	935	1935.826789934323	0
5	937	1942.879357732617	1
5	938	1946.872003602048	1
5	939	1947.82092193417	0
5	941	1951.691519557266	0
5	943	1951.845844740435	1
5	944	1953.340337678235	1
5	946	1955.941756291918	1
5	947	1958.150007604079	1
5	951	1965.561318860849	0
5	953	1981.415149903608	0
5	954	1984.33010722779	0
5	956	1991.932271441198	0
5	957	1994.527627527269	0
5	965	2036.820239663622	0
5	966	2037.947961534111	0
5	970	2055.395634036457	0
5	972	2063.920425991663	0
5	974	2066.336908056797	0
5	975	2067.059010914808	0
5	977	2068.572735745909	0
5	978	2072.48028429531	0
5	980	2073.629401755589	0
5	981	2074.57953339537	0
5	986	2090.373689927269	0
5	987	2091.381110184803	0
5	989	2091.510531786147	0
5	990	2093.73748952955	0
5	992	2094.509784816636	0
5	993	2094.856124787362	0
5	998	2103.10888607586	0
5	999	2103.307505152867	0
5	1003	2109.544519618569	0
5	1005	2121.324343211838	0
5	1007	2121.370922174609	0
5	1008	2121.786794293936	0
5	1010	2121.865282291356	0
5	1011	2126.769102926976	0
5	1013	2140.760935507749	0
5	1014	2145.430427657098	0
5	1016	2148.408502014201	0
5	1018	2150.88545136286	1
5	1020	2153.152701023359	2
5	1021	2153.542497773793	2
5	1022	2153.911404629937	1
5	1027	2156.826185249186	1
5	1028	2156.969642139034	1
5	1030	2158.885137271309	1
5	1034	2167.645034195839	2
5	1036	2174.94177710103	2
5	1037	2175.293682178045	1
5	1038	2176.990272288005	0
5	1043	2180.820140528645	0
5	1044	2183.784642683224	0
5	1046	2190.617248134383	0
5	1047	2191.955454096175	0
5	1051	2208.631005398133	0
5	1054	2213.327587140208	1
5	1055	2222.930652107319	1
5	1056	2225.052123467875	0
5	1058	2229.887447686045	0
5	1059	2242.203246224236	0
5	1064	2260.949383513056	0
5	1065	2260.991516116008	0
5	1067	2299.27861517504	0
5	1068	2300.826949755405	0
5	1073	2325.819276184382	0
5	1074	2330.451951198559	0
5	1079	2354.169776292782	0
5	1080	2354.452574711004	0
5	1082	2363.140470416597	0
5	1083	2369.326172205358	0
5	1088	2372.742441384221	0
5	1090	2376.357023247149	1
5	1091	2378.984367849421	1
5	1092	2380.540509494305	0
5	1094	2387.929246926715	0
5	1096	2388.368622764903	1
5	1097	2397.371159287958	1
5	1098	2398.584004485258	0
5	1100	2399.324458944691	0
5	1101	2401.163766489807	0
5	1103	2416.76104363929	0
5	1104	2417.102437696558	0
5	1106	2420.683923370384	0
5	1110	2431.56849855793	0
5	1112	2433.483901769592	0
5	1114	2436.064121627286	1
5	1115	2440.123474341676	1
5	1117	2449.110225251561	1
5	1118	2450.690377074596	1
5	1119	2450.918318970734	0
5	1124	2452.839439866003	0
5	1125	2457.295229278755	0
5	1130	2485.429838161415	0
5	1131	2487.901348938452	0
6	142	355.234957148056	17
6	148	359.601323760454	18
6	153	376.604513839375	19
6	181	427.625190107073	20
6	195	470.055219099707	21
6	209	495.533859992509	22
6	222	509.380543972085	23
6	225	513.397481993815	24
6	238	528.14846014183	25
6	241	535.520168142736	26
6	250	541.617614045256	27
6	253	546.823330896409	28
6	254	548.276033152219	29
6	257	552.423354274662	30
6	258	554.048558227707	31
6	269	578.708725978218	32
6	281	603.048833145662	33
6	293	623.312725323997	34
6	294	623.775514456228	35
6	308	651.574212194976	36
6	316	658.498016789084	37
6	345	736.631905603406	38
6	356	772.956489092589	39
6	386	832.084235689485	40
6	401	869.708038973638	41
6	402	872.217186197593	42
6	403	873.067023519333	43
6	416	906.058937386884	44
6	434	933.555949632523	45
6	440	939.040782405726	46
6	454	973.137617073512	47
6	466	987.491051566223	48
6	475	998.98733540028	49
6	480	1016.602754939575	50
6	493	1047.461437729863	51
6	518	1113.621691236613	52
6	535	1157.734940807631	53
6	553	1201.557482907776	54
6	554	1208.090998229455	55
6	562	1227.096688861015	56
6	571	1243.405832947714	57
6	572	1246.274865932309	58
6	573	1246.720616134271	59
6	588	1274.768549982331	60
6	595	1282.810099482965	61
6	614	1298.294435649831	62
6	615	1304.317239088538	63
6	618	1307.090084539414	64
6	623	1315.92484113241	65
6	638	1343.036165414318	66
6	641	1348.629972671147	67
6	642	1350.785852798235	68
6	643	1350.972115952691	69
6	662	1392.216063043291	70
6	669	1414.366547870212	71
6	690	1452.606357255023	72
6	691	1453.096060114614	73
6	700	1464.193529024495	74
6	703	1475.64236497073	75
6	712	1480.905334247555	76
6	719	1497.927375492147	77
6	720	1501.180008506103	78
6	721	1508.349101713036	79
6	729	1519.518468483332	80
6	736	1530.457083057754	81
6	786	1631.468441287402	82
6	793	1655.839988929356	83
6	796	1657.286311414843	84
6	801	1672.321663513372	85
6	805	1675.648405974112	86
6	812	1678.39688832282	87
6	815	1687.498560033863	88
6	820	1702.23295380425	89
6	823	1707.029610587871	90
6	824	1709.909000715347	91
6	844	1752.243059334305	92
6	867	1782.045710407393	93
6	875	1803.573274782576	94
6	888	1827.08715121635	95
6	893	1834.504431711958	96
6	901	1868.487279996237	97
6	909	1885.649815574593	98
6	950	1964.941783272595	99
6	962	2032.313472936383	100
6	963	2033.39842386356	101
6	971	2060.448008835701	102
6	984	2081.415186189532	103
6	996	2101.074653323877	104
6	1004	2114.985262053194	105
6	1025	2156.387466766789	106
6	1035	2171.219808344083	107
6	1041	2180.00307711338	108
6	1052	2210.363850461026	109
6	1062	2250.998991285835	110
6	1071	2315.238156551455	111
6	1077	2349.981298101126	112
6	1086	2371.99028739213	113
6	1109	2431.229172941408	114
6	1122	2452.257036162289	115
6	1128	2476.303549925659	116
7	142	355.234957148056	2.577349708926
7	148	359.601323760454	0.307624201826
7	153	376.604513839375	14.914843283452
7	181	427.625190107073	4.114969501487
7	195	470.055219099707	5.7448892751
7	209	495.533859992509	5.222502368347
7	222	509.380543972085	6.127578677953
7	225	513.397481993815	5.610096585462
7	238	528.14846014183	18.687552918142
7	241	535.520168142736	19.929330489056
7	250	541.617614045256	22.805307235874
7	253	546.823330896409	18.033673002646
7	254	548.276033152219	11.654413475341
7	257	552.423354274662	12.546983043715
7	258	554.048558227707	14.036580637564
7	269	578.708725978218	2.299435871264
7	281	603.048833145662	1.401849346821
7	293	623.312725323997	2.745331986197
7	294	623.775514456228	1.862305018246
7	308	651.574212194976	5.222168799616
7	316	658.498016789084	1.118376721315
7	345	736.631905603406	3.457584913769
7	356	772.956489092589	7.09940055373
7	386	832.084235689485	0.720403884935
7	401	869.708038973638	37.745409603892
7	402	872.217186197593	21.376586152402
7	403	873.067023519333	7.305238102623
7	416	906.058937386884	4.835453027422
7	434	933.555949632523	1.37162733381
7	440	939.040782405726	1.111196875099
7	454	973.137617073512	1.7949672968
7	466	987.491051566223	4.418505941042
7	475	998.98733540028	7.560267670164
7	480	1016.602754939575	0.997239905731
7	493	1047.461437729863	21.650295935093
7	518	1113.621691236613	3.822719221846
7	535	1157.734940807631	8.277806883605
7	553	1201.557482907776	5.030786453194
7	554	1208.090998229455	11.521543500707
7	562	1227.096688861015	16.811544365574
7	571	1243.405832947714	29.419077139764
7	572	1246.274865932309	14.644800453322
7	573	1246.720616134271	5.41243638766
7	588	1274.768549982331	11.57875333836
7	595	1282.810099482965	1.296927263436
7	614	1298.294435649831	6.197822701225
7	615	1304.317239088538	9.424601107778
7	618	1307.090084539414	11.367050786147
7	623	1315.92484113241	19.496094776188
7	638	1343.036165414318	45.095161235633
7	641	1348.629972671147	26.481947330257
7	642	1350.785852798235	27.665354747829
7	643	1350.972115952691	12.67915570131
7	662	1392.216063043291	7.297381552236
7	669	1414.366547870212	1.846583813687
7	690	1452.606357255023	22.961556955175
7	691	1453.096060114614	20.152236316413
7	700	1464.193529024495	9.367835156253
7	703	1475.64236497073	19.405163063016
7	712	1480.905334247555	17.404060948736
7	719	1497.927375492147	21.032174789811
7	720	1501.180008506103	22.527519826393
7	721	1508.349101713036	14.40625721658
7	729	1519.518468483332	6.450083985507
7	736	1530.457083057754	0.140751573147
7	786	1631.468441287402	5.192626968331
7	793	1655.839988929356	7.749459346668
7	796	1657.286311414843	8.879477550344
7	801	1672.321663513372	12.231087387132
7	805	1675.648405974112	1.909659982014
7	812	1678.39688832282	1.694939268827
7	815	1687.498560033863	9.687999715382
7	820	1702.23295380425	19.869001526356
7	823	1707.029610587871	5.328821937635
7	824	1709.909000715347	3.240816713439
7	844	1752.243059334305	3.66103321485
7	867	1782.045710407393	2.950375793984
7	875	1803.573274782576	2.309615733899
7	888	1827.08715121635	1.213014327472
7	893	1834.504431711958	4.209471429879
7	901	1868.487279996237	23.345877820551
7	909	1885.649815574593	0.074937617309
7	950	1964.941783272595	2.067174476245
7	962	2032.313472936383	7.704847269313
7	963	2033.39842386356	2.578638928701
7	971	2060.448008835701	5.162349890607
7	984	2081.415186189532	0.063588569983
7	996	2101.074653323877	4.292480063278
7	1004	2114.985262053194	8.897360063495
7	1025	2156.387466766789	2.243172759917
7	1035	2171.219808344083	3.85514650585
7	1041	2180.00307711338	3.010726017204
7	1052	2210.363850461026	3.472444220507
7	1062	2250.998991285835	3.486911929821
7	1071	2315.238156551455	8.313943590109
7	1077	2349.981298101126	1.794932016578
7	1086	2371.99028739213	1.83354100275
7	1109	2431.229172941408	6.117905212673
7	1122	2452.257036162289	0.63083780472
7	1128	2476.303549925659	6.826941371813
8	142	355.234957148056	32.96477309272
8	143	357.176366904966	31.53929346993
8	144	358.113593689834	30.665883404405
8	145	358.980671362035	25.173925351921
8	148	359.601323760454	15.736276907123
8	153	376.604513839375	30.310057866209
8	154	377.163847789468	24.506240350338
8	155	378.700343613866	23.640876248816
8	156	380.219208251228	20.9255086926
8	159	387.160099700473	25.47042914455
8	160	389.513473441993	18.732623418341
8	161	392.450722066165	6.432481634605
8	164	402.901807870041	5.217431675013
8	167	407.278190585379	0
8	174	419.849379902893	11.933939847223
8	175	420.814277546682	3.016493828222
8	176	421.368783965661	1.710997983656
8	181	427.625190107073	4.114969501487
8	182	433.418748321939	9.142685037298
8	187	451.066365527466	5.367018857432
8	188	451.695771822357	4.152668028146
8	191	460.516704985146	0
8	197	474.19422053615	0
8	200	481.095683169202	0
8	203	486.127831312219	0
8	209	495.533859992509	5.048719635202
8	212	501.288951545055	0
8	258	554.048558227707	49.045601928611
8	259	560.063967420563	51.224303977544
8	262	562.122618434797	48.384347388273
8	263	567.465767631289	53.007475135442
8	264	568.540007626893	43.31050834894
8	269	578.708725978218	52.977840760819
8	270	580.273246866196	42.88137339468
8	271	582.483737435631	39.264236627732
8	276	601.317560974482	52.781896307531
8	281	603.048833145662	42.42512669003
8	286	617.751793394583	48.812332679767
8	294	623.775514456228	47.366224349274
8	295	629.972439248744	45.503690086533
8	296	638.543251935529	38.751972067605
8	299	640.821427227441	39.1744434286
8	300	640.892135314709	38.391491241219
8	305	646.216452028775	40.497476332991
8	308	651.574212194976	35.32573556201
8	309	651.859347276795	32.674870129815
8	310	653.4121683846	32.8447750468
8	311	654.366581335289	14.741932456496
8	316	658.498016789084	16.691714891017
8	317	658.782552005392	14.612845743747
8	320	663.846359475767	17.494316080407
8	323	669.254943928505	11.875303860736
8	324	672.084283811375	13.853517754911
8	325	677.73980202327	18.117665736578
8	328	682.356075046159	16.551461565343
8	329	687.233859132272	5.055458291964
8	332	700.87674194091	0
8	335	710.818479709123	9.532802466114
8	338	717.967404583469	0
8	341	722.446726874082	0
8	347	739.610347347772	0
8	350	758.854266251026	7.968403145934
8	356	772.956489092589	3.709469039125
8	359	786.806884617963	0
8	362	796.034432044079	0
8	365	801.770196139294	0
8	370	803.978307566999	1.33494582975
8	371	804.87709113404	1.410748669269
8	374	821.989938605393	0
8	377	822.971999659924	0
8	380	829.539876835553	3.847749341925
8	403	873.067023519333	35.585974710122
8	404	873.695071196605	36.16635983734
8	405	878.505506192372	25.138055095521
8	406	878.720612419309	13.912693704639
8	407	880.028986073799	11.329517871631
8	410	892.215476562267	0
8	413	897.76806023695	0.81386901058
8	416	906.058937386884	4.835453027422
8	419	911.727917509831	2.944132723365
8	424	926.253847368677	4.270438972255
8	429	930.934772694458	7.857281018816
8	434	933.555949632523	7.242077412754
8	435	933.957438506409	5.590912414505
8	436	934.545701223023	3.406914803446
8	437	936.09006038685	3.905738088137
8	440	939.040782405726	1.111196875099
8	443	951.775819964726	0
8	446	954.938401825785	0
8	449	960.15791517345	0
8	454	973.137617073512	11.195979314688
8	459	975.895290745181	4.552640968469
8	460	975.934269001531	1.978895031553
8	463	980.313100702167	5.874129923111
8	466	987.491051566223	11.282563690431
8	467	989.08146441403	6.008918788849
8	475	998.98733540028	4.711858597547
8	476	999.250085731295	0.282234875803
8	482	1021.422423220967	0
8	493	1047.461437729863	21.842817853593
8	494	1056.675626732427	30.864484937657
8	495	1056.695431600461	21.963322407975
8	500	1073.31401105201	34.531405416064
8	501	1078.850039689041	35.69013939857
8	502	1078.877895880757	14.417809271964
8	503	1084.445668550654	19.180264801842
8	506	1093.886914810011	0
8	511	1101.624953080428	5.828068352366
8	518	1113.621691236613	13.17980928937
8	521	1121.65075965078	19.239735027893
8	524	1129.526111217783	19.727139203016
8	525	1132.764371185945	22.515523206614
8	526	1132.965830380094	17.303793924613
8	527	1138.427828152256	10.435963716147
8	535	1157.734940807631	7.331445899392
8	538	1166.017474623629	8.31928920886
8	539	1176.883331807598	16.156659090697
8	542	1179.987550244786	0
8	545	1190.406193379886	0
8	548	1192.060187505366	0
8	554	1208.090998229455	11.564301774873
8	573	1246.720616134271	32.178408154668
8	574	1250.195317113284	19.60770756722
8	575	1251.05166515933	11.977289651086
8	588	1274.768549982331	17.696244692009
8	595	1282.810099482965	24.655666021134
8	596	1286.304770488338	27.840854386579
8	597	1288.323846293031	25.13404964906
8	598	1289.333553455445	21.249412859806
8	599	1290.421718450514	20.861805879139
8	643	1350.972115952691	71.628159752299
8	648	1356.569738134861	75.130803694025
8	655	1369.361879759034	87.848707539505
8	656	1374.077244089059	81.980631140453
8	657	1374.321572039478	80.930419894188
8	658	1376.231811173721	82.133500059371
8	659	1379.538565271947	73.16148054222
8	662	1392.216063043291	83.425807466747
8	665	1404.712972395469	92.406729240291
8	666	1411.524571987938	85.972444640794
8	669	1414.366547870212	84.890269670326
8	670	1415.155567802118	83.177835850965
8	671	1415.976226722969	80.787086516849
8	676	1423.799166063896	78.325672886577
8	677	1423.940273959697	70.102851908615
8	678	1426.782280471042	70.878398260857
8	679	1427.957419892802	71.235553861372
8	691	1453.096060114614	91.619932547714
8	721	1508.349101713036	140.93786497683
8	724	1512.593237776608	127.67455628555
8	729	1519.518468483332	119.82227905238
8	730	1524.276894508476	111.75693045195
8	731	1524.517497812462	107.43896971226
8	736	1530.457083057754	110.16630099583
8	737	1531.612233742927	101.96743344308
8	742	1540.575888054686	102.31643259886
8	743	1543.28445522866	98.492253441176
8	744	1548.607595758629	98.735980854957
8	745	1550.801581076647	95.975887208405
8	750	1562.535516401615	102.47459018113
8	753	1562.803147861682	98.210863938617
8	754	1566.620296940767	90.417584942729
8	755	1576.497768938011	98.428252489793
8	760	1578.006668050859	92.366378314297
8	763	1578.675793606026	91.632083850736
8	766	1581.279006307852	68.995806458417
8	769	1591.325294789462	78.256910291637
8	770	1593.272817118797	78.780635243043
8	771	1598.031250305139	72.282092161302
8	772	1598.185095541347	67.86876405674
8	777	1615.223104168169	82.645902159592
8	778	1616.839024062989	78.833787450275
8	781	1624.179520579245	72.743693062636
8	786	1631.468441287402	70.295585820928
8	796	1657.286311414843	94.598328511166
8	801	1672.321663513372	95.677037404287
8	802	1673.565541694783	95.594021253454
8	805	1675.648405974112	97.423429311734
8	806	1675.870033543301	95.624378281757
8	807	1676.007633208495	91.076813133159
8	824	1709.909000715347	111.10216121772
8	825	1712.513859855585	103.08829380756
8	828	1719.474739618199	95.407940939553
8	829	1726.197902507428	99.922088188357
8	830	1728.370136029114	100.8611978728
8	833	1731.036257888954	86.23172406264
8	834	1734.151809378604	86.061279795916
8	835	1736.108362553832	79.166597083511
8	836	1738.567173197595	78.476597071355
8	839	1747.969617840665	80.529046812469
8	844	1752.243059334305	78.504313342207
8	845	1754.511005613765	77.809056559772
8	846	1757.394470162743	60.475506443628
8	851	1760.151174538686	41.038567276732
8	856	1763.842477865349	33.527558039325
8	859	1772.872383526028	25.563487882645
8	860	1777.124383542701	29.077030389248
8	867	1782.045710407393	33.463684287938
8	872	1801.175530287814	42.674113067835
8	875	1803.573274782576	43.952911838707
8	876	1806.887825580098	45.758615214463
8	877	1808.071325842517	44.257588573006
8	880	1812.038327824404	41.852544976695
8	881	1813.123472510408	34.435695701693
8	882	1814.23099255532	35.135657941911
8	885	1824.601623072594	43.338132628888
8	888	1827.08715121635	43.439639913151
8	893	1834.504431711958	42.584087990894
8	896	1837.304869450286	36.041210401609
8	901	1868.487279996237	58.560226569909
8	902	1869.643253120577	45.521926929922
8	903	1869.646228086297	43.772091197419
8	906	1885.314657263146	56.515483551598
8	909	1885.649815574593	55.354855292514
8	910	1886.329019929189	49.552507376752
8	913	1892.87687658156	47.735474405874
8	920	1905.459108655244	42.457137188657
8	921	1906.152941369242	28.931808346676
8	922	1909.396166521115	23.821288563831
8	923	1913.296269399774	26.336245291611
8	924	1916.849178175323	21.885749332174
8	925	1917.346531743142	18.880199727498
8	928	1921.413739350109	16.412634875574
8	929	1922.675000680961	4.392268571636
8	932	1930.581653249306	0
8	935	1935.826789934323	0
8	938	1946.872003602048	3.992645869431
8	941	1951.691519557266	0
8	944	1953.340337678235	1.4944929378
8	947	1958.150007604079	2.208251312161
8	950	1964.941783272595	2.067174476245
8	953	1981.415149903608	0
8	956	1991.932271441198	0
8	965	2036.820239663622	0
8	971	2060.448008835701	5.052374799244
8	974	2066.336908056797	0
8	977	2068.572735745909	0
8	980	2073.629401755589	0
8	986	2090.373689927269	0
8	989	2091.510531786147	0
8	992	2094.509784816636	0
8	998	2103.10888607586	0
8	1004	2114.985262053194	5.440742434625
8	1007	2121.370922174609	0
8	1010	2121.865282291356	0
8	1013	2140.760935507749	0
8	1016	2148.408502014201	0
8	1021	2153.542497773793	2.657046410933
8	1022	2153.911404629937	0.758703606578
8	1025	2156.387466766789	2.243172759917
8	1028	2156.969642139034	0.143456889848
8	1035	2171.219808344083	12.334671072774
8	1036	2174.94177710103	7.577115262797
8	1037	2175.293682178045	7.648647982206
8	1043	2180.820140528645	0
8	1046	2190.617248134383	0
8	1052	2210.363850461026	1.732845062893
8	1055	2222.930652107319	9.603064967111
8	1058	2229.887447686045	0
8	1064	2260.949383513056	0
8	1067	2299.27861517504	0
8	1073	2325.819276184382	0
8	1079	2354.169776292782	0
8	1082	2363.140470416597	0
8	1088	2372.742441384221	0
8	1091	2378.984367849421	2.627344602272
8	1094	2387.929246926715	0
8	1097	2397.371159287958	9.002536523055
8	1100	2399.324458944691	0
8	1103	2416.76104363929	0
8	1106	2420.683923370384	0
8	1109	2431.229172941408	6.117905212673
8	1112	2433.483901769592	0
8	1115	2440.123474341676	4.05935271439
8	1118	2450.690377074596	1.580151823035
8	1124	2452.839439866003	0
8	1130	2485.429838161415	0
9	143	357.176366904966	26
9	144	358.113593689834	27
9	145	358.980671362035	28
9	154	377.163847789468	29
9	155	378.700343613866	30
9	156	380.219208251228	31
9	159	387.160099700473	32
9	160	389.513473441993	33
9	161	392.450722066165	34
9	164	402.901807870041	35
9	165	404.171479463032	36
9	174	419.849379902893	37
9	175	420.814277546682	38
9	176	421.368783965661	39
9	182	433.418748321939	40
9	187	451.066365527466	41
9	188	451.695771822357	42
9	189	451.917764581792	43
9	192	461.963315468307	44
9	198	474.367404736386	45
9	201	483.469113516407	46
9	204	489.930475957777	47
9	210	499.678164812572	48
9	213	501.428143861494	49
9	259	560.063967420563	50
9	262	562.122618434797	51
9	263	567.465767631289	52
9	264	568.540007626893	53
9	270	580.273246866196	54
9	271	582.483737435631	55
9	276	601.317560974482	56
9	286	617.751793394583	57
9	295	629.972439248744	58
9	296	638.543251935529	59
9	299	640.821427227441	60
9	300	640.892135314709	61
9	305	646.216452028775	62
9	309	651.859347276795	63
9	310	653.4121683846	64
9	311	654.366581335289	65
9	317	658.782552005392	66
9	320	663.846359475767	67
9	323	669.254943928505	68
9	324	672.084283811375	69
9	325	677.73980202327	70
9	328	682.356075046159	71
9	329	687.233859132272	72
9	330	687.8812263233	73
9	335	710.818479709123	74
9	336	712.015296783519	75
9	339	719.408386657994	76
9	342	725.987402271197	77
9	350	758.854266251026	78
9	351	762.091295690766	79
9	357	778.252683116589	80
9	360	787.231473440766	81
9	363	799.868390479853	82
9	370	803.978307566999	83
9	371	804.87709113404	84
9	372	811.48329759133	85
9	375	822.271910252655	86
9	380	829.539876835553	87
9	381	830.263731280088	88
9	404	873.695071196605	89
9	405	878.505506192372	90
9	406	878.720612419309	91
9	407	880.028986073799	92
9	408	881.948886274352	93
9	413	897.76806023695	94
9	419	911.727917509831	95
9	424	926.253847368677	96
9	429	930.934772694458	97
9	435	933.957438506409	98
9	436	934.545701223023	99
9	437	936.09006038685	100
9	441	939.661521266222	101
9	444	951.818377463803	102
9	447	959.352821881035	103
9	459	975.895290745181	104
9	460	975.934269001531	105
9	463	980.313100702167	106
9	467	989.08146441403	107
9	468	991.356360835303	108
9	476	999.250085731295	109
9	477	1004.083596752474	110
9	494	1056.675626732427	111
9	495	1056.695431600461	112
9	500	1073.31401105201	113
9	501	1078.850039689041	114
9	502	1078.877895880757	115
9	503	1084.445668550654	116
9	504	1090.277227420388	117
9	511	1101.624953080428	118
9	521	1121.65075965078	119
9	524	1129.526111217783	120
9	525	1132.764371185945	121
9	526	1132.965830380094	122
9	527	1138.427828152256	123
9	528	1138.820870284836	124
9	538	1166.017474623629	125
9	539	1176.883331807598	126
9	540	1177.765755874245	127
9	543	1189.605732135014	128
9	546	1191.87608435558	129
9	555	1208.805632045038	130
9	574	1250.195317113284	131
9	575	1251.05166515933	132
9	596	1286.304770488338	133
9	597	1288.323846293031	134
9	598	1289.333553455445	135
9	599	1290.421718450514	136
9	648	1356.569738134861	137
9	655	1369.361879759034	138
9	656	1374.077244089059	139
9	657	1374.321572039478	140
9	658	1376.231811173721	141
9	659	1379.538565271947	142
9	665	1404.712972395469	143
9	666	1411.524571987938	144
9	670	1415.155567802118	145
9	671	1415.976226722969	146
9	676	1423.799166063896	147
9	677	1423.940273959697	148
9	678	1426.782280471042	149
9	679	1427.957419892802	150
9	724	1512.593237776608	151
9	730	1524.276894508476	152
9	731	1524.517497812462	153
9	737	1531.612233742927	154
9	742	1540.575888054686	155
9	743	1543.28445522866	156
9	744	1548.607595758629	157
9	745	1550.801581076647	158
9	750	1562.535516401615	159
9	753	1562.803147861682	160
9	754	1566.620296940767	161
9	755	1576.497768938011	162
9	760	1578.006668050859	163
9	763	1578.675793606026	164
9	766	1581.279006307852	165
9	769	1591.325294789462	166
9	770	1593.272817118797	167
9	771	1598.031250305139	168
9	772	1598.185095541347	169
9	777	1615.223104168169	170
9	778	1616.839024062989	171
9	781	1624.179520579245	172
9	802	1673.565541694783	173
9	806	1675.870033543301	174
9	807	1676.007633208495	175
9	825	1712.513859855585	176
9	828	1719.474739618199	177
9	829	1726.197902507428	178
9	830	1728.370136029114	179
9	833	1731.036257888954	180
9	834	1734.151809378604	181
9	835	1736.108362553832	182
9	836	1738.567173197595	183
9	839	1747.969617840665	184
9	845	1754.511005613765	185
9	846	1757.394470162743	186
9	851	1760.151174538686	187
9	856	1763.842477865349	188
9	859	1772.872383526028	189
9	860	1777.124383542701	190
9	872	1801.175530287814	191
9	876	1806.887825580098	192
9	877	1808.071325842517	193
9	880	1812.038327824404	194
9	881	1813.123472510408	195
9	882	1814.23099255532	196
9	885	1824.601623072594	197
9	896	1837.304869450286	198
9	902	1869.643253120577	199
9	903	1869.646228086297	200
9	906	1885.314657263146	201
9	910	1886.329019929189	202
9	913	1892.87687658156	203
9	920	1905.459108655244	204
9	921	1906.152941369242	205
9	922	1909.396166521115	206
9	923	1913.296269399774	207
9	924	1916.849178175323	208
9	925	1917.346531743142	209
9	928	1921.413739350109	210
9	929	1922.675000680961	211
9	930	1923.379147427225	212
9	933	1932.48980957289	213
9	938	1946.872003602048	214
9	939	1947.82092193417	215
9	944	1953.340337678235	216
9	947	1958.150007604079	217
9	951	1965.561318860849	218
9	954	1984.33010722779	219
9	957	1994.527627527269	220
9	966	2037.947961534111	221
9	972	2063.920425991663	222
9	975	2067.059010914808	223
9	978	2072.48028429531	224
9	981	2074.57953339537	225
9	987	2091.381110184803	226
9	990	2093.73748952955	227
9	993	2094.856124787362	228
9	999	2103.307505152867	229
9	1005	2121.324343211838	230
9	1008	2121.786794293936	231
9	1011	2126.769102926976	232
9	1014	2145.430427657098	233
9	1021	2153.542497773793	234
9	1022	2153.911404629937	235
9	1028	2156.969642139034	236
9	1036	2174.94177710103	237
9	1037	2175.293682178045	238
9	1038	2176.990272288005	239
9	1044	2183.784642683224	240
9	1047	2191.955454096175	241
9	1055	2222.930652107319	242
9	1056	2225.052123467875	243
9	1059	2242.203246224236	244
9	1065	2260.991516116008	245
9	1068	2300.826949755405	246
9	1074	2330.451951198559	247
9	1080	2354.452574711004	248
9	1083	2369.326172205358	249
9	1091	2378.984367849421	250
9	1092	2380.540509494305	251
9	1097	2397.371159287958	252
9	1098	2398.584004485258	253
9	1101	2401.163766489807	254
9	1104	2417.102437696558	255
9	1110	2431.56849855793	256
9	1115	2440.123474341676	257
9	1118	2450.690377074596	258
9	1119	2450.918318970734	259
9	1125	2457.295229278755	260
9	1131	2487.901348938452	261
10	143	357.176366904966	34.90618284963
10	144	358.113593689834	32.476520254798
10	145	358.980671362035	31.532961076606
10	154	377.163847789468	30.869391816302
10	155	378.700343613866	26.042736174736
10	156	380.219208251228	25.159740886178
10	159	387.160099700473	27.866400141845
10	160	389.513473441993	27.82380288607
10	161	392.450722066165	21.669872042513
10	164	402.901807870041	16.883567438481
10	165	404.171479463032	6.487103268004
10	174	419.849379902893	12.571189317514
10	175	420.814277546682	12.898837491012
10	176	421.368783965661	3.571000247201
10	182	433.418748321939	9.908527716353
10	187	451.066365527466	26.790302242825
10	188	451.695771822357	5.996425152323
10	189	451.917764581792	4.374660787581
10	192	461.963315468307	1.446610483161
10	198	474.367404736386	0.173184200236
10	201	483.469113516407	2.373430347205
10	204	489.930475957777	3.802644645558
10	210	499.678164812572	9.193024455265
10	213	501.428143861494	0.139192316439
10	259	560.063967420563	55.061011121467
10	262	562.122618434797	53.282954991778
10	263	567.465767631289	53.727496584765
10	264	568.540007626893	54.081715131046
10	270	580.273246866196	54.542361648797
10	271	582.483737435631	45.091863964115
10	276	601.317560974482	58.098060166583
10	286	617.751793394583	57.128086938951
10	295	629.972439248744	53.56314914179
10	296	638.543251935529	54.074502773318
10	299	640.821427227441	41.030147359517
10	300	640.892135314709	39.245151515868
10	305	646.216452028775	43.715807955285
10	309	651.859347276795	35.610870643829
10	310	653.4121683846	34.22769123762
10	311	654.366581335289	33.799187997489
10	317	658.782552005392	16.976250107325
10	320	663.846359475767	19.676653214122
10	323	669.254943928505	22.902900533145
10	324	672.084283811375	14.704643743606
10	325	677.73980202327	19.509035966806
10	328	682.356075046159	22.733938759467
10	329	687.233859132272	21.429245651456
10	330	687.8812263233	5.702825482992
10	335	710.818479709123	9.941737768213
10	336	712.015296783519	10.72961954051
10	339	719.408386657994	1.440982074525
10	342	725.987402271197	3.540675397115
10	350	758.854266251026	19.243918903254
10	351	762.091295690766	11.205432585674
10	357	778.252683116589	9.005663063125
10	360	787.231473440766	0.424588822803
10	363	799.868390479853	3.833958435774
10	370	803.978307566999	2.208111427705
10	371	804.87709113404	2.233729396791
10	372	811.48329759133	8.016955126559
10	375	822.271910252655	0.281971647262
10	380	829.539876835553	6.567877175629
10	381	830.263731280088	4.57160378646
10	404	873.695071196605	36.214022387394
10	405	878.505506192372	40.976794833107
10	406	878.720612419309	25.353161322458
10	407	880.028986073799	15.221067359129
10	408	881.948886274352	13.249418072184
10	413	897.76806023695	5.552583674683
10	419	911.727917509831	10.504433150369
10	424	926.253847368677	17.470062582211
10	429	930.934772694458	8.951364298036
10	435	933.957438506409	7.64356628664
10	436	934.545701223023	6.179175131119
10	437	936.09006038685	4.951273967273
10	441	939.661521266222	1.731935735595
10	444	951.818377463803	0.042557499077
10	447	959.352821881035	4.41442005525
10	459	975.895290745181	13.953652986357
10	460	975.934269001531	4.591619224819
10	463	980.313100702167	6.357726732189
10	467	989.08146441403	12.872976538238
10	468	991.356360835303	8.283815210122
10	476	999.250085731295	4.974608928562
10	477	1004.083596752474	5.115745896982
10	494	1056.675626732427	31.057006856157
10	495	1056.695431600461	30.884289805691
10	500	1073.31401105201	38.581901859524
10	501	1078.850039689041	40.067434053095
10	502	1078.877895880757	35.717995590286
10	503	1084.445668550654	19.985581941861
10	504	1090.277227420388	25.011823671576
10	511	1101.624953080428	7.738038270417
10	521	1121.65075965078	21.208877703537
10	524	1129.526111217783	27.115086594896
10	525	1132.764371185945	22.965399171178
10	526	1132.965830380094	22.716982400763
10	527	1138.427828152256	22.765791696775
10	528	1138.820870284836	10.829005848727
10	538	1166.017474623629	15.61397971539
10	539	1176.883331807598	19.185146392829
10	540	1177.765755874245	17.039083157344
10	543	1189.605732135014	9.618181890228
10	546	1191.87608435558	1.469890975694
10	555	1208.805632045038	12.278935590456
10	574	1250.195317113284	35.653109133681
10	575	1251.05166515933	20.464055613266
10	596	1286.304770488338	28.150337026507
10	597	1288.323846293031	29.859930191272
10	598	1289.333553455445	26.143756811474
10	599	1290.421718450514	22.337577854875
10	648	1356.569738134861	77.225781934469
10	655	1369.361879759034	87.922945318198
10	656	1374.077244089059	92.56407186953
10	657	1374.321572039478	82.224959090872
10	658	1376.231811173721	82.840659028431
10	659	1379.538565271947	85.440254157597
10	665	1404.712972395469	95.922716818925
10	666	1411.524571987938	99.21832883276
10	670	1415.155567802118	85.679289602232
10	671	1415.976226722969	83.998494771816
10	676	1423.799166063896	88.610025857776
10	677	1423.940273959697	78.466780782378
10	678	1426.782280471042	72.94485841996
10	679	1427.957419892802	72.053537682617
10	724	1512.593237776608	145.18200104041
10	730	1524.276894508476	124.58070507752
10	731	1524.517497812462	111.99753375594
10	737	1531.612233742927	111.32145168101
10	742	1540.575888054686	110.93108775484
10	743	1543.28445522866	105.02499977284
10	744	1548.607595758629	103.81539397114
10	745	1550.801581076647	100.92996617297
10	750	1562.535516401615	107.70982253337
10	753	1562.803147861682	102.7422216412
10	754	1566.620296940767	102.0280130177
10	755	1576.497768938011	100.29505693997
10	760	1578.006668050859	99.937151602641
10	763	1578.675793606026	93.035503869464
10	766	1581.279006307852	94.235296552562
10	769	1591.325294789462	79.042094940027
10	770	1593.272817118797	80.204432620972
10	771	1598.031250305139	83.539068429385
10	772	1598.185095541347	72.43593739751
10	777	1615.223104168169	84.906772683562
10	778	1616.839024062989	84.261822054412
10	781	1624.179520579245	86.174283966531
10	802	1673.565541694783	96.920915585698
10	806	1675.870033543301	97.645056880923
10	807	1676.007633208495	95.761977946951
10	825	1712.513859855585	113.70702035796
10	828	1719.474739618199	110.04917357017
10	829	1726.197902507428	102.13110382878
10	830	1728.370136029114	102.09432171004
10	833	1731.036257888954	103.52731973264
10	834	1734.151809378604	89.34727555229
10	835	1736.108362553832	88.017832971144
10	836	1738.567173197595	81.625407727274
10	839	1747.969617840665	87.879041714425
10	845	1754.511005613765	80.772259621667
10	846	1757.394470162743	80.69252110875
10	851	1760.151174538686	63.232210819571
10	856	1763.842477865349	44.729870603395
10	859	1772.872383526028	42.557463700004
10	860	1777.124383542701	29.815487899318
10	872	1801.175530287814	52.593504168359
10	876	1806.887825580098	47.267462636229
10	877	1808.071325842517	46.942115476882
10	880	1812.038327824404	48.224590554893
10	881	1813.123472510408	42.937689662699
10	882	1814.23099255532	35.543215746605
10	885	1824.601623072594	45.506288459185
10	896	1837.304869450286	45.384525729222
10	902	1869.643253120577	59.716199694249
10	903	1869.646228086297	45.524901895642
10	906	1885.314657263146	59.440520374268
10	910	1886.329019929189	56.03405964711
10	913	1892.87687658156	56.100364029123
10	920	1905.459108655244	60.317706479558
10	921	1906.152941369242	43.150969902655
10	922	1909.396166521115	32.175033498549
10	923	1913.296269399774	27.72139144249
10	924	1916.849178175323	29.88915406716
10	925	1917.346531743142	22.383102899993
10	928	1921.413739350109	22.947407334465
10	929	1922.675000680961	17.673896206426
10	930	1923.379147427225	5.0964153179
10	933	1932.48980957289	1.908156323584
10	938	1946.872003602048	11.045213667725
10	939	1947.82092193417	4.941564201553
10	944	1953.340337678235	1.648818120969
10	947	1958.150007604079	6.304162863644
10	951	1965.561318860849	2.686710064499
10	954	1984.33010722779	2.914957324182
10	957	1994.527627527269	2.595356086071
10	966	2037.947961534111	1.127721870489
10	972	2063.920425991663	8.524791955206
10	975	2067.059010914808	0.722102858011
10	978	2072.48028429531	3.907548549401
10	981	2074.57953339537	0.950131639781
10	987	2091.381110184803	1.007420257534
10	990	2093.73748952955	2.226957743403
10	993	2094.856124787362	0.346339970726
10	999	2103.307505152867	0.198619077007
10	1005	2121.324343211838	11.779823593269
10	1008	2121.786794293936	0.415872119327
10	1011	2126.769102926976	4.90382063562
10	1014	2145.430427657098	4.669492149349
10	1021	2153.542497773793	5.133995759592
10	1022	2153.911404629937	3.025953267077
10	1028	2156.969642139034	2.825348132162
10	1036	2174.94177710103	16.056639829721
10	1037	2175.293682178045	7.929020339812
10	1038	2176.990272288005	9.345238092166
10	1044	2183.784642683224	2.964502154579
10	1047	2191.955454096175	1.338205961792
10	1055	2222.930652107319	14.299646709186
10	1056	2225.052123467875	11.724536327667
10	1059	2242.203246224236	12.315798538191
10	1065	2260.991516116008	0.042132602952
10	1068	2300.826949755405	1.548334580365
10	1074	2330.451951198559	4.632675014177
10	1080	2354.452574711004	0.282798418222
10	1083	2369.326172205358	6.185701788761
10	1091	2378.984367849421	6.2419264652
10	1092	2380.540509494305	4.183486247156
10	1097	2397.371159287958	9.441912361243
10	1098	2398.584004485258	10.215381720355
10	1101	2401.163766489807	1.839307545116
10	1104	2417.102437696558	0.341394057268
10	1110	2431.56849855793	6.457230829195
10	1115	2440.123474341676	6.639572572084
10	1118	2450.690377074596	14.62625544731
10	1119	2450.918318970734	1.808093719173
10	1125	2457.295229278755	4.455789412752
10	1131	2487.901348938452	2.471510777037
11	1138	2500	0.1044
12	1138	2500	0.0464

