file 66513 1678524165                                           
version 2
run experiments_medium_game_mode1-806-20230311-09:42:45-12721
attr configname experiments_medium_game_mode1
attr datetime 20230311-09:42:45
attr experiment experiments_medium_game_mode1
attr inifile omnetpp.ini
attr iterationvars "$0=6, $1=6, $2=0"
attr iterationvarsf 6,6,0-
attr measurement "$0=6, $1=6, $2=0"
attr network Network
attr processid 12721
attr repetition 26
attr replication #26
attr resultdir results
attr runnumber 806
attr seedset 26
param *.boss.arrival_mean 20
param *.boss.service_mean 6
param *.minion.arrival_mean 10
param *.minion.service_mean 6
param *.player.recover_rate_x 0
param **.minion.arrival_distribution 0
param **.minion.service_distribution 0
param **.boss.arrival_distribution 0
param **.boss.service_distribution 0

vector 0 Network.player minion_jobs_number_stat:vector ETV
attr source signal_minion_jobs_number
vector 1 Network.player minion_jobs_queue_number_stat:vector ETV
attr source signal_minion_jobs_queue_number
vector 2 Network.player minion_defeated_stat:vector ETV
attr source signal_minion_defeated
vector 3 Network.player minion_response_time_stat:vector ETV
attr source signal_minion_response_time
vector 4 Network.player minion_waiting_time_stat:vector ETV
attr source signal_minion_waiting_time
vector 5 Network.player boss_jobs_number_stat:vector ETV
attr source signal_boss_jobs_number
vector 6 Network.player boss_jobs_queue_number_stat:vector ETV
attr source signal_boss_jobs_queue_number
vector 7 Network.player minion_recovered_stat:vector ETV
attr source signal_minion_recovered
vector 8 Network.player boss_waiting_time_stat:vector ETV
attr source signal_boss_waiting_time
vector 9 Network.player boss_defeated_stat:vector ETV
attr source signal_boss_defeated
vector 10 Network.player boss_response_time_stat:vector ETV
attr source signal_boss_response_time
vector 11 Network.player minion_throughput:vector ETV
attr source signal_minion_throughput
vector 12 Network.player boss_throughput:vector ETV
attr source signal_boss_throughput
0	2011 6170 128 1122 353.474320604805 2481.059061575314 234 1 44 4168 104484
1	8181 11991 128 1129 353.474320604805 2499.325386182953 454 0 43 7735 191273
2	20172 6037 129 1129 353.727058868405 2499.325386182953 220 30 249 30690 5168570
3	26209 8712 129 1129 353.727058868405 2499.325386182953 220 0.664622387379 302.26082585625 28563.135282126 5623113.4525164
4	34921 11392 129 1129 353.727058868405 2499.325386182953 291 0 300.39988938953 36014.386209156 6875956.7626259
5	46313 2705 133 1127 360.864535828211 2497.285207450237 105 1 4 152 282
6	49018 5405 133 1128 360.864535828211 2497.986260687729 210 0 3 94 166
7	54423 1897 133 1127 360.864535828211 2497.285207450237 71 7 77 2982 155064
8	56320 3132 133 1127 360.864535828211 2497.285207450237 105 0 30.799317907847 357.52702470536 6546.360524595
9	59452 2822 134 1128 360.969120175314 2497.986260687729 105 12 116 6720 526540
10	62274 4198 134 1128 360.969120175314 2497.986260687729 105 0.104584347103 38.747913199682 1021.4493168164 19437.275389104
11	66472 20 1130 1130 2500 2500 1 0.0996 0.0996 0.0996 0.00992016
12	66492 20 1130 1130 2500 2500 1 0.0464 0.0464 0.0464 0.00215296

