version 2
run experiments_medium_game_mode1-1309-20230311-09:44:36-15239
attr configname experiments_medium_game_mode1
attr datetime 20230311-09:44:36
attr experiment experiments_medium_game_mode1
attr inifile omnetpp.ini
attr iterationvars "$0=7, $1=4, $2=100"
attr iterationvarsf 7,4,100-
attr measurement "$0=7, $1=4, $2=100"
attr network Network
attr processid 15239
attr repetition 19
attr replication #19
attr resultdir results
attr runnumber 1309
attr seedset 19
param *.boss.arrival_mean 20
param *.boss.service_mean 7
param *.minion.arrival_mean 10
param *.minion.service_mean 4
param *.player.recover_rate_x 100
param **.minion.arrival_distribution 0
param **.minion.service_distribution 0
param **.boss.arrival_distribution 0
param **.boss.service_distribution 0

vector 0 Network.player boss_jobs_number_stat:vector ETV
attr source signal_boss_jobs_number
vector 1 Network.player boss_jobs_queue_number_stat:vector ETV
attr source signal_boss_jobs_queue_number
vector 2 Network.player boss_waiting_time_stat:vector ETV
attr source signal_boss_waiting_time
vector 3 Network.player boss_defeated_stat:vector ETV
attr source signal_boss_defeated
vector 4 Network.player boss_response_time_stat:vector ETV
attr source signal_boss_response_time
vector 5 Network.player minion_jobs_number_stat:vector ETV
attr source signal_minion_jobs_number
vector 6 Network.player minion_jobs_queue_number_stat:vector ETV
attr source signal_minion_jobs_queue_number
vector 7 Network.player minion_waiting_time_stat:vector ETV
attr source signal_minion_waiting_time
vector 8 Network.player minion_defeated_stat:vector ETV
attr source signal_minion_defeated
vector 9 Network.player minion_response_time_stat:vector ETV
attr source signal_minion_response_time
vector 10 Network.player minion_recovered_stat:vector ETV
attr source signal_minion_recovered
vector 11 Network.player minion_throughput:vector ETV
attr source signal_minion_throughput
vector 12 Network.player boss_throughput:vector ETV
attr source signal_boss_throughput
0	149	383.641814753773	1
0	158	419.226760993783	1
0	164	435.937457159369	1
0	166	441.599777676986	2
0	178	469.450297919605	1
0	181	470.48201465898	1
0	190	487.295243787722	1
0	197	500.66167326089	1
0	203	512.100524100803	1
0	209	533.110556723408	1
0	227	593.771786700608	1
0	239	644.532565131582	1
0	252	676.48596019194	1
0	260	703.330286601906	1
0	266	725.90316117181	1
0	270	731.588175821006	2
0	279	744.524420255921	2
0	290	759.122019627825	1
0	299	793.863135443444	1
0	305	815.681009898624	2
0	314	863.224603851332	1
0	317	870.153391622639	1
0	320	882.120463111697	1
0	326	923.471158080421	1
0	335	966.760995902482	1
0	347	1009.684344432772	1
0	355	1031.036760996085	1
0	369	1047.446284074941	1
0	372	1052.038242407772	1
0	374	1057.115240070998	2
0	389	1082.835420605179	1
0	416	1137.016704517448	1
0	425	1149.581529118299	1
0	431	1159.462263681971	1
0	457	1206.487230796995	1
0	462	1209.753595283991	1
0	466	1210.941507576878	1
0	471	1218.708561659235	1
0	482	1259.670195305888	1
0	484	1267.815771895886	2
0	497	1309.843732171748	1
0	506	1355.647566428243	1
0	521	1402.044285638431	1
0	523	1402.263904548659	2
0	539	1454.961072960112	1
0	541	1459.590822304099	2
0	554	1480.52788114512	2
0	574	1513.15314658393	1
0	578	1529.657626253454	2
0	582	1546.559532398319	1
0	590	1593.631743264632	1
0	593	1612.416300588425	1
0	596	1623.988397099659	1
0	631	1690.602733536229	1
0	654	1717.657651786433	1
0	656	1728.25733841582	2
0	670	1746.040566456924	1
0	672	1747.235335168242	2
0	675	1748.389845209716	2
0	677	1750.168091953481	3
0	682	1765.122783763006	3
0	684	1767.541957923034	4
0	688	1774.146124514192	5
0	717	1832.144477992951	1
0	728	1860.507320941987	1
0	737	1883.699473873445	1
0	741	1884.464361408446	2
0	743	1886.181841591436	3
0	757	1913.197721752833	1
0	759	1913.281949448185	2
0	762	1920.442455957637	2
0	765	1927.473728951076	2
0	779	1964.969949338338	1
0	783	1974.166259690969	2
0	798	1994.452365368981	1
0	805	2003.186013006887	1
0	820	2040.615125239329	1
0	838	2080.987086470017	1
0	848	2100.91784688331	1
0	862	2129.599279851329	1
0	864	2132.426180659516	2
0	868	2138.766813623332	3
0	872	2142.690949916287	4
0	876	2144.082990020558	5
0	890	2183.968035022845	1
0	901	2214.237337116187	1
0	909	2232.344284238071	1
0	916	2254.27334360207	1
0	924	2266.555854746247	1
0	934	2284.15446303664	1
0	949	2300.48471194332	1
0	965	2327.398750057176	1
0	969	2335.312333411039	1
0	974	2348.102139344011	1
0	977	2351.896011637656	1
0	989	2397.305582690173	1
0	998	2421.735659092536	1
0	1000	2428.024523204963	2
0	1002	2431.526234007268	3
0	1011	2447.718939005172	1
0	1015	2454.499579047895	2
0	1017	2457.358068384767	3
0	1028	2473.1920250507	1
0	1032	2483.711986540473	1
1	149	383.641814753773	0
1	150	385.06147733653	0
1	158	419.226760993783	0
1	161	429.799422357416	0
1	164	435.937457159369	0
1	166	441.599777676986	1
1	167	442.500693927416	1
1	172	454.315529511891	0
1	178	469.450297919605	0
1	179	469.891545836114	0
1	181	470.48201465898	0
1	182	470.586405148722	0
1	190	487.295243787722	0
1	191	487.479163324149	0
1	197	500.66167326089	0
1	198	502.46925867357	0
1	203	512.100524100803	0
1	204	512.685235610109	0
1	209	533.110556723408	0
1	210	541.817599015472	0
1	227	593.771786700608	0
1	232	638.155348203443	0
1	239	644.532565131582	0
1	244	656.57956784903	0
1	252	676.48596019194	0
1	253	678.645779366931	0
1	260	703.330286601906	0
1	263	714.366556873982	0
1	266	725.90316117181	0
1	270	731.588175821006	1
1	277	742.387193522394	1
1	279	744.524420255921	1
1	282	747.172566013792	1
1	283	751.437364402873	0
1	290	759.122019627825	0
1	291	764.878032276662	0
1	299	793.863135443444	0
1	305	815.681009898624	1
1	306	832.183879064028	1
1	307	837.248124703301	0
1	314	863.224603851332	0
1	315	863.395174122272	0
1	317	870.153391622639	0
1	318	872.521439492279	0
1	320	882.120463111697	0
1	323	897.468686701393	0
1	326	923.471158080421	0
1	327	924.929716801366	0
1	335	966.760995902482	0
1	336	968.81498530326	0
1	347	1009.684344432772	0
1	348	1012.60362647036	0
1	355	1031.036760996085	0
1	358	1038.673429756161	0
1	369	1047.446284074941	0
1	370	1049.613958482986	0
1	372	1052.038242407772	0
1	374	1057.115240070998	1
1	379	1064.541475394133	1
1	380	1066.128100631702	0
1	389	1082.835420605179	0
1	398	1104.734708300929	0
1	416	1137.016704517448	0
1	417	1140.682515375302	0
1	425	1149.581529118299	0
1	428	1155.482552270361	0
1	431	1159.462263681971	0
1	432	1164.618221343984	0
1	457	1206.487230796995	0
1	458	1208.971224379873	0
1	462	1209.753595283991	0
1	463	1209.813016913175	0
1	466	1210.941507576878	0
1	467	1211.245572995797	0
1	471	1218.708561659235	0
1	472	1241.81378562618	0
1	482	1259.670195305888	0
1	484	1267.815771895886	1
1	487	1272.070660713345	1
1	488	1285.857204819277	0
1	497	1309.843732171748	0
1	500	1317.479692347285	0
1	506	1355.647566428243	0
1	507	1366.5729279635	0
1	521	1402.044285638431	0
1	523	1402.263904548659	1
1	526	1402.801565924284	1
1	527	1412.565910788886	0
1	539	1454.961072960112	0
1	541	1459.590822304099	1
1	544	1461.56224944374	1
1	554	1480.52788114512	1
1	555	1481.161376786919	1
1	558	1488.658682672732	0
1	574	1513.15314658393	0
1	578	1529.657626253454	1
1	579	1542.197776337429	1
1	580	1543.592300610931	0
1	582	1546.559532398319	0
1	583	1547.181881392876	0
1	590	1593.631743264632	0
1	591	1595.289767876526	0
1	593	1612.416300588425	0
1	594	1617.740983132975	0
1	596	1623.988397099659	0
1	599	1640.607234575712	0
1	631	1690.602733536229	0
1	634	1700.472594648638	0
1	654	1717.657651786433	0
1	656	1728.25733841582	1
1	659	1730.280849301105	1
1	660	1732.881724457613	0
1	670	1746.040566456924	0
1	672	1747.235335168242	1
1	673	1747.708597039827	1
1	675	1748.389845209716	1
1	677	1750.168091953481	2
1	678	1755.946928181944	2
1	682	1765.122783763006	2
1	684	1767.541957923034	3
1	688	1774.146124514192	4
1	689	1775.54605807097	4
1	690	1777.067514928702	3
1	691	1785.38198501192	2
1	694	1798.860675630665	1
1	699	1805.406965061014	0
1	717	1832.144477992951	0
1	720	1836.179345500029	0
1	728	1860.507320941987	0
1	729	1861.046239718292	0
1	737	1883.699473873445	0
1	741	1884.464361408446	1
1	743	1886.181841591436	2
1	744	1890.746441605758	2
1	745	1893.357201915297	1
1	746	1895.647398915155	0
1	757	1913.197721752833	0
1	759	1913.281949448185	1
1	760	1916.545309196584	1
1	762	1920.442455957637	1
1	763	1924.417093443777	1
1	765	1927.473728951076	1
1	768	1936.613714215294	1
1	771	1940.003944423457	0
1	779	1964.969949338338	0
1	783	1974.166259690969	1
1	784	1976.765118843342	1
1	785	1978.440058147162	0
1	798	1994.452365368981	0
1	801	2000.100255196885	0
1	805	2003.186013006887	0
1	806	2004.481831767521	0
1	820	2040.615125239329	0
1	821	2040.988374578649	0
1	838	2080.987086470017	0
1	839	2085.070623929492	0
1	848	2100.91784688331	0
1	849	2108.038615017703	0
1	862	2129.599279851329	0
1	864	2132.426180659516	1
1	868	2138.766813623332	2
1	872	2142.690949916287	3
1	876	2144.082990020558	4
1	877	2147.650792948971	4
1	878	2155.01077261952	3
1	881	2165.954689438668	2
1	882	2170.936777358225	1
1	883	2173.659248337139	0
1	890	2183.968035022845	0
1	899	2204.68863797235	0
1	901	2214.237337116187	0
1	902	2214.269503044432	0
1	909	2232.344284238071	0
1	910	2234.683420350479	0
1	916	2254.27334360207	0
1	921	2262.431691838778	0
1	924	2266.555854746247	0
1	927	2271.986171506857	0
1	934	2284.15446303664	0
1	941	2291.389718651991	0
1	949	2300.48471194332	0
1	952	2306.717592049945	0
1	965	2327.398750057176	0
1	966	2330.975067067293	0
1	969	2335.312333411039	0
1	972	2345.594192227633	0
1	974	2348.102139344011	0
1	975	2348.131900287407	0
1	977	2351.896011637656	0
1	978	2353.550886594323	0
1	989	2397.305582690173	0
1	994	2403.298139181838	0
1	998	2421.735659092536	0
1	1000	2428.024523204963	1
1	1002	2431.526234007268	2
1	1003	2437.609549237821	2
1	1004	2439.382883115734	1
1	1009	2447.330215582688	0
1	1011	2447.718939005172	0
1	1015	2454.499579047895	1
1	1017	2457.358068384767	2
1	1020	2461.296307184879	2
1	1021	2461.475783475836	1
1	1026	2472.690397120119	0
1	1028	2473.1920250507	0
1	1029	2476.572619806193	0
1	1032	2483.711986540473	0
1	1033	2492.953097535389	0
2	149	383.641814753773	0
2	158	419.226760993783	0
2	164	435.937457159369	0
2	167	442.500693927416	0.90091625043
2	178	469.450297919605	0
2	181	470.48201465898	0
2	190	487.295243787722	0
2	197	500.66167326089	0
2	203	512.100524100803	0
2	209	533.110556723408	0
2	227	593.771786700608	0
2	239	644.532565131582	0
2	252	676.48596019194	0
2	260	703.330286601906	0
2	266	725.90316117181	0
2	277	742.387193522394	10.799017701388
2	282	747.172566013792	2.648145757871
2	290	759.122019627825	0
2	299	793.863135443444	0
2	306	832.183879064028	16.502869165404
2	314	863.224603851332	0
2	317	870.153391622639	0
2	320	882.120463111697	0
2	326	923.471158080421	0
2	335	966.760995902482	0
2	347	1009.684344432772	0
2	355	1031.036760996085	0
2	369	1047.446284074941	0
2	372	1052.038242407772	0
2	379	1064.541475394133	7.426235323135
2	389	1082.835420605179	0
2	416	1137.016704517448	0
2	425	1149.581529118299	0
2	431	1159.462263681971	0
2	457	1206.487230796995	0
2	462	1209.753595283991	0
2	466	1210.941507576878	0
2	471	1218.708561659235	0
2	482	1259.670195305888	0
2	487	1272.070660713345	4.254888817459
2	497	1309.843732171748	0
2	506	1355.647566428243	0
2	521	1402.044285638431	0
2	526	1402.801565924284	0.537661375625
2	539	1454.961072960112	0
2	544	1461.56224944374	1.971427139641
2	555	1481.161376786919	0.633495641799
2	574	1513.15314658393	0
2	579	1542.197776337429	12.540150083975
2	582	1546.559532398319	0
2	590	1593.631743264632	0
2	593	1612.416300588425	0
2	596	1623.988397099659	0
2	631	1690.602733536229	0
2	654	1717.657651786433	0
2	659	1730.280849301105	2.023510885285
2	670	1746.040566456924	0
2	673	1747.708597039827	0.473261871585
2	678	1755.946928181944	7.557082972228
2	689	1775.54605807097	25.377966117489
2	690	1777.067514928702	11.944731165696
2	691	1785.38198501192	17.840027088886
2	694	1798.860675630665	24.714551116473
2	717	1832.144477992951	0
2	728	1860.507320941987	0
2	737	1883.699473873445	0
2	744	1890.746441605758	6.282080197312
2	745	1893.357201915297	7.175360323861
2	757	1913.197721752833	0
2	760	1916.545309196584	3.263359748399
2	763	1924.417093443777	3.97463748614
2	768	1936.613714215294	9.139985264218
2	779	1964.969949338338	0
2	784	1976.765118843342	2.598859152373
2	798	1994.452365368981	0
2	805	2003.186013006887	0
2	820	2040.615125239329	0
2	838	2080.987086470017	0
2	848	2100.91784688331	0
2	862	2129.599279851329	0
2	877	2147.650792948971	15.224612289455
2	878	2155.01077261952	16.243958996188
2	881	2165.954689438668	23.263739522381
2	882	2170.936777358225	26.853787337667
2	890	2183.968035022845	0
2	901	2214.237337116187	0
2	909	2232.344284238071	0
2	916	2254.27334360207	0
2	924	2266.555854746247	0
2	934	2284.15446303664	0
2	949	2300.48471194332	0
2	965	2327.398750057176	0
2	969	2335.312333411039	0
2	974	2348.102139344011	0
2	977	2351.896011637656	0
2	989	2397.305582690173	0
2	998	2421.735659092536	0
2	1003	2437.609549237821	9.585026032858
2	1004	2439.382883115734	7.856649108466
2	1011	2447.718939005172	0
2	1020	2461.296307184879	6.796728136984
2	1021	2461.475783475836	4.117715091069
2	1028	2473.1920250507	0
2	1032	2483.711986540473	0
3	150	385.06147733653	12
3	161	429.799422357416	13
3	167	442.500693927416	14
3	172	454.315529511891	15
3	179	469.891545836114	16
3	182	470.586405148722	17
3	191	487.479163324149	18
3	198	502.46925867357	19
3	204	512.685235610109	20
3	210	541.817599015472	21
3	232	638.155348203443	22
3	244	656.57956784903	23
3	253	678.645779366931	24
3	263	714.366556873982	25
3	277	742.387193522394	26
3	282	747.172566013792	27
3	283	751.437364402873	28
3	291	764.878032276662	29
3	306	832.183879064028	30
3	307	837.248124703301	31
3	315	863.395174122272	32
3	318	872.521439492279	33
3	323	897.468686701393	34
3	327	924.929716801366	35
3	336	968.81498530326	36
3	348	1012.60362647036	37
3	358	1038.673429756161	38
3	370	1049.613958482986	39
3	379	1064.541475394133	40
3	380	1066.128100631702	41
3	398	1104.734708300929	42
3	417	1140.682515375302	43
3	428	1155.482552270361	44
3	432	1164.618221343984	45
3	458	1208.971224379873	46
3	463	1209.813016913175	47
3	467	1211.245572995797	48
3	472	1241.81378562618	49
3	487	1272.070660713345	50
3	488	1285.857204819277	51
3	500	1317.479692347285	52
3	507	1366.5729279635	53
3	526	1402.801565924284	54
3	527	1412.565910788886	55
3	544	1461.56224944374	56
3	555	1481.161376786919	57
3	558	1488.658682672732	58
3	579	1542.197776337429	59
3	580	1543.592300610931	60
3	583	1547.181881392876	61
3	591	1595.289767876526	62
3	594	1617.740983132975	63
3	599	1640.607234575712	64
3	634	1700.472594648638	65
3	659	1730.280849301105	66
3	660	1732.881724457613	67
3	673	1747.708597039827	68
3	678	1755.946928181944	69
3	689	1775.54605807097	70
3	690	1777.067514928702	71
3	691	1785.38198501192	72
3	694	1798.860675630665	73
3	699	1805.406965061014	74
3	720	1836.179345500029	75
3	729	1861.046239718292	76
3	744	1890.746441605758	77
3	745	1893.357201915297	78
3	746	1895.647398915155	79
3	760	1916.545309196584	80
3	763	1924.417093443777	81
3	768	1936.613714215294	82
3	771	1940.003944423457	83
3	784	1976.765118843342	84
3	785	1978.440058147162	85
3	801	2000.100255196885	86
3	806	2004.481831767521	87
3	821	2040.988374578649	88
3	839	2085.070623929492	89
3	849	2108.038615017703	90
3	877	2147.650792948971	91
3	878	2155.01077261952	92
3	881	2165.954689438668	93
3	882	2170.936777358225	94
3	883	2173.659248337139	95
3	899	2204.68863797235	96
3	902	2214.269503044432	97
3	910	2234.683420350479	98
3	921	2262.431691838778	99
3	927	2271.986171506857	100
3	941	2291.389718651991	101
3	952	2306.717592049945	102
3	966	2330.975067067293	103
3	972	2345.594192227633	104
3	975	2348.131900287407	105
3	978	2353.550886594323	106
3	994	2403.298139181838	107
3	1003	2437.609549237821	108
3	1004	2439.382883115734	109
3	1009	2447.330215582688	110
3	1020	2461.296307184879	111
3	1021	2461.475783475836	112
3	1026	2472.690397120119	113
3	1029	2476.572619806193	114
3	1033	2492.953097535389	115
4	150	385.06147733653	1.419662582757
4	161	429.799422357416	10.572661363633
4	167	442.500693927416	6.563236768047
4	172	454.315529511891	12.715751834905
4	179	469.891545836114	0.441247916509
4	182	470.586405148722	0.104390489742
4	191	487.479163324149	0.183919536427
4	198	502.46925867357	1.80758541268
4	204	512.685235610109	0.584711509306
4	210	541.817599015472	8.707042292064
4	232	638.155348203443	44.383561502835
4	244	656.57956784903	12.047002717448
4	253	678.645779366931	2.159819174991
4	263	714.366556873982	11.036270272076
4	277	742.387193522394	16.484032350584
4	282	747.172566013792	15.584390192786
4	283	751.437364402873	6.912944146952
4	291	764.878032276662	5.756012648837
4	306	832.183879064028	38.320743620584
4	307	837.248124703301	21.567114804677
4	315	863.395174122272	0.17057027094
4	318	872.521439492279	2.36804786964
4	323	897.468686701393	15.348223589696
4	327	924.929716801366	1.458558720945
4	336	968.81498530326	2.053989400778
4	348	1012.60362647036	2.919282037588
4	358	1038.673429756161	7.636668760076
4	370	1049.613958482986	2.167674408045
4	379	1064.541475394133	12.503232986361
4	380	1066.128100631702	9.012860560704
4	398	1104.734708300929	21.89928769575
4	417	1140.682515375302	3.665810857854
4	428	1155.482552270361	5.901023152062
4	432	1164.618221343984	5.155957662013
4	458	1208.971224379873	2.483993582878
4	463	1209.813016913175	0.059421629184
4	467	1211.245572995797	0.304065418919
4	472	1241.81378562618	23.105223966945
4	487	1272.070660713345	12.400465407457
4	488	1285.857204819277	18.041432923391
4	500	1317.479692347285	7.635960175537
4	507	1366.5729279635	10.925361535257
4	526	1402.801565924284	0.757280285853
4	527	1412.565910788886	10.302006240227
4	544	1461.56224944374	6.601176483628
4	555	1481.161376786919	21.57055448282
4	558	1488.658682672732	8.130801527612
4	579	1542.197776337429	29.044629753499
4	580	1543.592300610931	13.934674357477
4	583	1547.181881392876	0.622348994557
4	591	1595.289767876526	1.658024611894
4	594	1617.740983132975	5.32468254455
4	599	1640.607234575712	16.618837476053
4	634	1700.472594648638	9.869861112409
4	659	1730.280849301105	12.623197514672
4	660	1732.881724457613	4.624386041793
4	673	1747.708597039827	1.668030582903
4	678	1755.946928181944	8.711593013702
4	689	1775.54605807097	27.156212861254
4	690	1777.067514928702	26.899422975221
4	691	1785.38198501192	20.259201248914
4	694	1798.860675630665	31.318717707631
4	699	1805.406965061014	31.260840546822
4	720	1836.179345500029	4.034867507078
4	729	1861.046239718292	0.538918776305
4	744	1890.746441605758	7.046967732313
4	745	1893.357201915297	8.892840506851
4	746	1895.647398915155	9.465557323719
4	760	1916.545309196584	3.347587443751
4	763	1924.417093443777	11.135143995592
4	768	1936.613714215294	16.171258257657
4	771	1940.003944423457	12.530215472381
4	784	1976.765118843342	11.795169505004
4	785	1978.440058147162	4.273798456193
4	801	2000.100255196885	5.647889827904
4	806	2004.481831767521	1.295818760634
4	821	2040.988374578649	0.37324933932
4	839	2085.070623929492	4.083537459475
4	849	2108.038615017703	7.120768134393
4	877	2147.650792948971	18.051513097642
4	878	2155.01077261952	22.584591960004
4	881	2165.954689438668	27.187875815336
4	882	2170.936777358225	28.245827441938
4	883	2173.659248337139	29.576258316581
4	899	2204.68863797235	20.720602949505
4	902	2214.269503044432	0.032165928245
4	910	2234.683420350479	2.339136112408
4	921	2262.431691838778	8.158348236708
4	927	2271.986171506857	5.43031676061
4	941	2291.389718651991	7.235255615351
4	952	2306.717592049945	6.232880106625
4	966	2330.975067067293	3.576317010117
4	972	2345.594192227633	10.281858816594
4	975	2348.131900287407	0.029760943396
4	978	2353.550886594323	1.654874956667
4	994	2403.298139181838	5.992556491665
4	1003	2437.609549237821	15.873890145285
4	1004	2439.382883115734	11.358359910771
4	1009	2447.330215582688	15.80398157542
4	1020	2461.296307184879	13.577368179707
4	1021	2461.475783475836	6.976204427941
4	1026	2472.690397120119	15.332328735352
4	1029	2476.572619806193	3.380594755493
4	1033	2492.953097535389	9.241110994916
5	152	385.856899874733	1
5	155	408.691715619325	1
5	160	422.13264824982	1
5	169	445.819057629507	1
5	171	454.087649832625	2
5	174	466.825941906207	3
5	184	481.958246252984	2
5	186	484.368239412351	3
5	193	491.184902048821	2
5	200	507.395280976871	1
5	206	530.648492201309	1
5	212	543.588478983341	1
5	215	554.755673435099	1
5	217	555.313263309698	2
5	221	575.587625228941	1
5	224	579.283341760883	1
5	229	596.194993200021	1
5	231	616.827667599831	2
5	235	640.926297437906	2
5	241	649.886856687228	1
5	243	655.991254291414	2
5	246	658.258721181871	3
5	248	661.594702362575	4
5	257	683.557625529397	1
5	262	707.612973189694	1
5	268	731.363546110908	1
5	272	732.555186216837	2
5	274	733.938954235922	3
5	276	734.751258498641	4
5	281	745.076474176766	5
5	288	757.68685211186	3
5	296	790.217733311095	1
5	301	797.60490314529	1
5	303	810.26358369908	2
5	311	844.825138635796	1
5	322	885.099273410516	1
5	329	948.972755669185	1
5	332	950.843979774307	1
5	338	972.02407510722	1
5	341	981.928561880455	1
5	344	1004.842236377678	1
5	350	1025.758625337468	1
5	352	1026.600216556579	2
5	357	1034.755844313557	2
5	361	1042.537682298745	2
5	363	1042.903472205063	3
5	365	1043.289063513605	4
5	367	1046.0639403592	5
5	376	1057.550270121693	6
5	378	1061.03259428033	7
5	383	1070.191146829727	7
5	385	1070.286842594129	8
5	391	1086.027920857735	7
5	393	1094.231740682781	8
5	395	1101.25677937566	9
5	397	1103.206723378744	10
5	400	1106.186864163115	11
5	402	1109.171080301339	12
5	404	1111.387788992762	13
5	409	1121.809931380067	11
5	411	1124.366351542074	12
5	427	1154.570025499484	4
5	435	1167.05463710117	3
5	438	1171.721424202972	3
5	441	1179.208781504965	3
5	444	1186.537198072979	3
5	446	1187.891230891189	4
5	452	1202.67566319902	1
5	455	1204.01364622619	1
5	460	1209.213125572176	2
5	469	1212.525211650875	2
5	474	1243.543414230326	3
5	476	1246.956304856231	4
5	478	1248.25184246608	5
5	486	1268.876528944801	4
5	492	1288.324820709837	3
5	499	1311.522300834359	1
5	503	1347.919863570171	1
5	509	1374.868030005294	1
5	512	1379.578036641553	1
5	515	1380.636937306802	1
5	518	1392.15735548521	1
5	525	1402.608920941986	1
5	530	1422.721074296431	1
5	533	1434.530211434858	1
5	536	1447.566384208322	1
5	543	1460.540129749878	1
5	546	1465.639866408089	2
5	548	1466.106117658667	3
5	550	1471.368291647667	4
5	552	1478.976951480305	5
5	557	1486.661311713835	6
5	564	1498.512310193738	3
5	566	1505.425528053387	4
5	571	1510.933478874596	2
5	576	1521.879486692066	2
5	586	1563.378368305413	2
5	598	1639.056986888519	1
5	601	1643.095036236944	2
5	604	1645.546022462589	2
5	608	1661.634814004436	1
5	611	1671.579912758762	1
5	613	1672.025614561915	2
5	615	1673.769670837592	3
5	619	1679.416565973792	2
5	622	1681.617957238574	2
5	624	1681.707524378777	3
5	628	1688.170722645438	2
5	633	1692.82202740727	2
5	636	1702.191657967471	3
5	640	1704.833006367118	2
5	642	1705.599151971544	3
5	645	1710.030724900868	3
5	648	1713.741763839065	3
5	651	1714.940245213364	3
5	658	1728.87665711158	3
5	662	1733.694104865433	4
5	667	1740.128382121185	2
5	680	1761.815259399482	2
5	686	1773.795755106873	3
5	693	1792.918935437412	4
5	696	1802.277444354918	5
5	698	1803.676666182345	6
5	701	1813.440534849893	7
5	703	1814.60925833719	8
5	708	1820.402365016173	6
5	710	1821.614431305861	7
5	712	1827.149029616638	8
5	719	1833.437028583181	6
5	731	1876.226428141584	1
5	734	1879.711272229701	1
5	739	1883.806687998546	1
5	748	1902.470646176537	2
5	752	1907.529091213011	1
5	754	1908.263601933055	2
5	767	1935.123759178274	2
5	770	1938.497859420328	3
5	776	1962.257532328165	1
5	781	1969.299355942594	1
5	788	1984.117516746036	1
5	790	1986.044914204507	2
5	792	1989.687237629296	3
5	794	1990.620009507669	4
5	796	1991.781384648472	5
5	800	1995.076524006025	6
5	808	2008.288417313999	5
5	810	2009.93813881571	6
5	814	2025.56978282973	5
5	818	2040.550524347734	4
5	826	2054.211906877718	2
5	828	2065.159803241648	3
5	833	2072.225498533218	1
5	836	2080.539873363293	1
5	841	2087.090379295645	2
5	844	2088.891266320457	2
5	851	2113.982284071148	1
5	853	2114.816664513199	2
5	855	2115.391268542159	3
5	857	2116.680605292526	4
5	866	2134.837579236397	2
5	870	2139.045435916166	3
5	874	2143.647369207872	4
5	880	2157.816230141225	5
5	885	2178.162557058013	6
5	887	2180.332846172576	7
5	892	2186.758955664257	7
5	894	2191.137331745992	8
5	896	2194.998118816962	9
5	898	2196.124755564521	10
5	904	2215.071349859126	11
5	918	2255.125267489965	5
5	920	2258.251636537411	6
5	926	2269.820350887882	6
5	930	2275.391187735827	6
5	936	2285.943208414918	5
5	938	2288.567040384363	6
5	940	2288.72831507386	7
5	943	2295.55461015028	8
5	945	2295.615227937649	9
5	951	2305.385790729079	8
5	954	2311.454745772018	9
5	958	2319.928991314839	8
5	971	2339.568903514049	3
5	980	2361.142496454305	4
5	986	2373.270587371442	1
5	991	2400.670039269132	1
5	993	2401.423215500016	2
5	1006	2440.135947521906	1
5	1008	2443.649004060011	2
5	1013	2448.608729818361	3
5	1019	2460.892213925155	4
5	1023	2464.399823215664	5
5	1025	2465.102922889915	6
5	1038	2496.33997144847	3
6	152	385.856899874733	0
6	153	391.35479468799	0
6	155	408.691715619325	0
6	156	416.561571549883	0
6	160	422.13264824982	0
6	162	432.207627694767	0
6	169	445.819057629507	0
6	171	454.087649832625	1
6	174	466.825941906207	2
6	175	466.962975395299	2
6	176	467.736221025812	1
6	184	481.958246252984	1
6	186	484.368239412351	2
6	187	485.704524957027	2
6	188	485.907075816661	1
6	193	491.184902048821	1
6	194	491.392794292792	1
6	195	492.77672548682	0
6	200	507.395280976871	0
6	201	509.828059741151	0
6	206	530.648492201309	0
6	207	530.925031421806	0
6	212	543.588478983341	0
6	213	547.329049265698	0
6	215	554.755673435099	0
6	217	555.313263309698	1
6	218	560.319397476156	1
6	219	570.533470631907	0
6	221	575.587625228941	0
6	222	575.851208170918	0
6	224	579.283341760883	0
6	225	579.587424539851	0
6	229	596.194993200021	0
6	231	616.827667599831	1
6	233	640.417238049226	1
6	235	640.926297437906	1
6	236	642.053602311391	1
6	237	643.864913679543	0
6	241	649.886856687228	0
6	243	655.991254291414	1
6	246	658.258721181871	2
6	248	661.594702362575	3
6	249	667.367911157432	3
6	250	668.027275407846	2
6	254	681.810675088599	1
6	255	683.190064920726	0
6	257	683.557625529397	0
6	258	688.001722169088	0
6	262	707.612973189694	0
6	264	716.709421999908	0
6	268	731.363546110908	0
6	272	732.555186216837	1
6	274	733.938954235922	2
6	276	734.751258498641	3
6	281	745.076474176766	4
6	284	753.131089302493	4
6	285	753.277999655974	3
6	286	753.687434889897	2
6	288	757.68685211186	2
6	292	767.760054332049	2
6	293	769.036980229238	1
6	294	771.695438784313	0
6	296	790.217733311095	0
6	297	790.252808254776	0
6	301	797.60490314529	0
6	303	810.26358369908	1
6	308	837.988555505749	1
6	309	838.863083653852	0
6	311	844.825138635796	0
6	312	848.960593560807	0
6	322	885.099273410516	0
6	324	900.002291935708	0
6	329	948.972755669185	0
6	330	949.427854845135	0
6	332	950.843979774307	0
6	333	952.067651490323	0
6	338	972.02407510722	0
6	339	973.767226612066	0
6	341	981.928561880455	0
6	342	984.672569813141	0
6	344	1004.842236377678	0
6	345	1006.791347675343	0
6	350	1025.758625337468	0
6	352	1026.600216556579	1
6	353	1030.236728675109	1
6	357	1034.755844313557	1
6	359	1040.761281688726	1
6	361	1042.537682298745	1
6	363	1042.903472205063	2
6	365	1043.289063513605	3
6	367	1046.0639403592	4
6	376	1057.550270121693	5
6	378	1061.03259428033	6
6	381	1067.875999669481	6
6	383	1070.191146829727	6
6	385	1070.286842594129	7
6	386	1073.104365359339	7
6	387	1078.082944359924	6
6	391	1086.027920857735	6
6	393	1094.231740682781	7
6	395	1101.25677937566	8
6	397	1103.206723378744	9
6	400	1106.186864163115	10
6	402	1109.171080301339	11
6	404	1111.387788992762	12
6	405	1119.443659923361	12
6	406	1120.940892559315	11
6	407	1121.503253998712	10
6	409	1121.809931380067	10
6	411	1124.366351542074	11
6	412	1130.509120350131	11
6	413	1132.135848831634	10
6	414	1136.227750262636	9
6	418	1142.385518451616	8
6	419	1143.600766114686	7
6	420	1146.787218386863	6
6	421	1148.268478215375	5
6	422	1148.689553536264	4
6	423	1149.244076762278	3
6	427	1154.570025499484	3
6	429	1157.676463978629	3
6	433	1166.718324605393	2
6	435	1167.05463710117	2
6	436	1167.924645288202	2
6	438	1171.721424202972	2
6	439	1173.40914414439	2
6	441	1179.208781504965	2
6	442	1184.647153312204	2
6	444	1186.537198072979	2
6	446	1187.891230891189	3
6	447	1192.160588905104	3
6	448	1193.989999240809	2
6	449	1196.877841920783	1
6	450	1199.159967365317	0
6	452	1202.67566319902	0
6	453	1202.775945199862	0
6	455	1204.01364622619	0
6	460	1209.213125572176	1
6	464	1210.856151117172	1
6	469	1212.525211650875	1
6	474	1243.543414230326	2
6	476	1246.956304856231	3
6	478	1248.25184246608	4
6	479	1253.585883500041	4
6	480	1256.863448524705	3
6	486	1268.876528944801	3
6	489	1287.03347016807	3
6	490	1288.175293551589	2
6	492	1288.324820709837	2
6	493	1294.014656227969	2
6	494	1298.962067127552	1
6	495	1305.245860287659	0
6	499	1311.522300834359	0
6	501	1317.684766182576	0
6	503	1347.919863570171	0
6	504	1350.782997481787	0
6	509	1374.868030005294	0
6	510	1375.446949151872	0
6	512	1379.578036641553	0
6	513	1380.622127973809	0
6	515	1380.636937306802	0
6	516	1383.461915126761	0
6	518	1392.15735548521	0
6	519	1401.459912513615	0
6	525	1402.608920941986	0
6	528	1416.123260771918	0
6	530	1422.721074296431	0
6	531	1425.448442312703	0
6	533	1434.530211434858	0
6	534	1436.113648630537	0
6	536	1447.566384208322	0
6	537	1450.676159141825	0
6	543	1460.540129749878	0
6	546	1465.639866408089	1
6	548	1466.106117658667	2
6	550	1471.368291647667	3
6	552	1478.976951480305	4
6	557	1486.661311713835	5
6	559	1489.284429927401	5
6	560	1490.285228651788	4
6	561	1491.476904421468	3
6	562	1498.406240505259	2
6	564	1498.512310193738	2
6	566	1505.425528053387	3
6	567	1506.198375114212	3
6	568	1506.294231154111	2
6	569	1510.901951196476	1
6	571	1510.933478874596	1
6	572	1510.944288437075	1
6	576	1521.879486692066	1
6	584	1547.87638504793	1
6	586	1563.378368305413	1
6	587	1573.734695962205	1
6	588	1575.274145179751	0
6	598	1639.056986888519	0
6	601	1643.095036236944	1
6	602	1644.634981473805	1
6	604	1645.546022462589	1
6	605	1647.05119371014	1
6	606	1647.189630773569	0
6	608	1661.634814004436	0
6	609	1669.723194725595	0
6	611	1671.579912758762	0
6	613	1672.025614561915	1
6	615	1673.769670837592	2
6	616	1674.069612876979	2
6	617	1678.139831243346	1
6	619	1679.416565973792	1
6	620	1680.114757890623	1
6	622	1681.617957238574	1
6	624	1681.707524378777	2
6	625	1681.727981456586	2
6	626	1686.718860100898	1
6	628	1688.170722645438	1
6	629	1689.842209156635	1
6	633	1692.82202740727	1
6	636	1702.191657967471	2
6	637	1702.987300087266	2
6	638	1703.463893102396	1
6	640	1704.833006367118	1
6	642	1705.599151971544	2
6	643	1705.662871365351	2
6	645	1710.030724900868	2
6	646	1712.445544953868	2
6	648	1713.741763839065	2
6	649	1714.926334759882	2
6	651	1714.940245213364	2
6	652	1715.924960707413	2
6	658	1728.87665711158	2
6	662	1733.694104865433	3
6	663	1735.775937795925	3
6	664	1738.82149708348	2
6	665	1739.940667477816	1
6	667	1740.128382121185	1
6	668	1742.927600029084	1
6	680	1761.815259399482	1
6	686	1773.795755106873	2
6	693	1792.918935437412	3
6	696	1802.277444354918	4
6	698	1803.676666182345	5
6	701	1813.440534849893	6
6	703	1814.60925833719	7
6	704	1815.760460472986	7
6	705	1817.058335415013	6
6	706	1818.05923426337	5
6	708	1820.402365016173	5
6	710	1821.614431305861	6
6	712	1827.149029616638	7
6	713	1827.450427404506	7
6	714	1829.099201652483	6
6	715	1831.281056320433	5
6	719	1833.437028583181	5
6	721	1848.084201977871	5
6	722	1850.379188880231	4
6	723	1856.55512276906	3
6	724	1857.155770994394	2
6	725	1857.29400769444	1
6	726	1859.921630512827	0
6	731	1876.226428141584	0
6	732	1877.682016280461	0
6	734	1879.711272229701	0
6	735	1879.759244945196	0
6	739	1883.806687998546	0
6	748	1902.470646176537	1
6	749	1902.881584470032	1
6	750	1903.127898080238	0
6	752	1907.529091213011	0
6	754	1908.263601933055	1
6	755	1910.311143032922	1
6	767	1935.123759178274	1
6	770	1938.497859420328	2
6	772	1945.799937202673	2
6	773	1946.45941786839	1
6	774	1948.533753728257	0
6	776	1962.257532328165	0
6	777	1962.664212598424	0
6	781	1969.299355942594	0
6	786	1978.658529644678	0
6	788	1984.117516746036	0
6	790	1986.044914204507	1
6	792	1989.687237629296	2
6	794	1990.620009507669	3
6	796	1991.781384648472	4
6	800	1995.076524006025	5
6	802	2001.302724969525	5
6	803	2001.954874645626	4
6	808	2008.288417313999	4
6	810	2009.93813881571	5
6	811	2016.684350244892	5
6	812	2023.376205078924	4
6	814	2025.56978282973	4
6	815	2034.856343868742	4
6	816	2035.028858888576	3
6	818	2040.550524347734	3
6	822	2049.951677456736	3
6	823	2051.513472286731	2
6	824	2052.417509276371	1
6	826	2054.211906877718	1
6	828	2065.159803241648	2
6	829	2067.95636802664	2
6	830	2068.605135277989	1
6	831	2069.02818123342	0
6	833	2072.225498533218	0
6	834	2077.441959038065	0
6	836	2080.539873363293	0
6	841	2087.090379295645	1
6	842	2088.416163154494	1
6	844	2088.891266320457	1
6	845	2089.85654757204	1
6	846	2095.328438412659	0
6	851	2113.982284071148	0
6	853	2114.816664513199	1
6	855	2115.391268542159	2
6	857	2116.680605292526	3
6	858	2118.307741730463	3
6	859	2121.980516707154	2
6	860	2124.742050856751	1
6	866	2134.837579236397	1
6	870	2139.045435916166	2
6	874	2143.647369207872	3
6	880	2157.816230141225	4
6	885	2178.162557058013	5
6	887	2180.332846172576	6
6	888	2180.799324880263	6
6	892	2186.758955664257	6
6	894	2191.137331745992	7
6	896	2194.998118816962	8
6	898	2196.124755564521	9
6	904	2215.071349859126	10
6	905	2221.179428704265	10
6	906	2224.477613585082	9
6	907	2225.150261116668	8
6	911	2236.569369931108	7
6	912	2244.427990795265	6
6	913	2245.926638237243	5
6	914	2251.125506520329	4
6	918	2255.125267489965	4
6	920	2258.251636537411	5
6	922	2265.421535244398	5
6	926	2269.820350887882	5
6	928	2275.003962751792	5
6	930	2275.391187735827	5
6	931	2279.22072513341	5
6	932	2280.182141918144	4
6	936	2285.943208414918	4
6	938	2288.567040384363	5
6	940	2288.72831507386	6
6	943	2295.55461015028	7
6	945	2295.615227937649	8
6	946	2297.345932398249	8
6	947	2298.706577147169	7
6	951	2305.385790729079	7
6	954	2311.454745772018	8
6	955	2314.155905284436	8
6	956	2315.433657503383	7
6	958	2319.928991314839	7
6	959	2320.366957263237	7
6	960	2321.509697370477	6
6	961	2321.514177897662	5
6	962	2321.572499145649	4
6	963	2326.629769649796	3
6	967	2334.732413854766	2
6	971	2339.568903514049	2
6	980	2361.142496454305	3
6	981	2361.468426154524	3
6	982	2364.212656372737	2
6	983	2367.893447894544	1
6	984	2371.074381912862	0
6	986	2373.270587371442	0
6	987	2374.470365043791	0
6	991	2400.670039269132	0
6	993	2401.423215500016	1
6	995	2405.945298765022	1
6	996	2414.010859008762	0
6	1006	2440.135947521906	0
6	1008	2443.649004060011	1
6	1013	2448.608729818361	2
6	1019	2460.892213925155	3
6	1023	2464.399823215664	4
6	1025	2465.102922889915	5
6	1030	2482.764991823888	5
6	1034	2493.652372939049	4
6	1035	2495.077986917713	3
6	1036	2495.310756677014	2
6	1038	2496.33997144847	2
6	1039	2497.421821065358	2
7	152	385.856899874733	0
7	155	408.691715619325	0
7	161	429.799422357416	7.666774107596
7	172	454.315529511891	8.496471882384
7	175	466.962975395299	12.875325562674
7	176	467.736221025812	0.910279119605
7	179	469.891545836114	0.441247916509
7	182	470.586405148722	0.104390489742
7	187	485.704524957027	3.746278704043
7	188	485.907075816661	1.53883640431
7	191	487.479163324149	0.183919536427
7	194	491.392794292792	0.207892243971
7	200	507.395280976871	0
7	206	530.648492201309	0
7	212	543.588478983341	0
7	215	554.755673435099	0
7	218	560.319397476156	5.006134166458
7	221	575.587625228941	0
7	224	579.283341760883	0
7	232	638.155348203443	41.960355003422
7	233	640.417238049226	23.589570449395
7	236	642.053602311391	1.127304873485
7	244	656.57956784903	6.692711161802
7	249	667.367911157432	11.376656866018
7	250	668.027275407846	9.768554225975
7	253	678.645779366931	17.051077004356
7	254	681.810675088599	5.324714896659
7	257	683.557625529397	0
7	263	714.366556873982	6.753583684288
7	283	751.437364402873	20.073818291965
7	284	753.131089302493	20.575903085656
7	285	753.277999655974	19.339045420052
7	286	753.687434889897	18.936176391256
7	291	764.878032276662	19.801558099896
7	292	767.760054332049	10.073202220189
7	293	769.036980229238	9.914960601413
7	296	790.217733311095	0
7	307	837.248124703301	39.643221558011
7	308	837.988555505749	27.724971806669
7	311	844.825138635796	0
7	323	897.468686701393	12.369413290877
7	329	948.972755669185	0
7	332	950.843979774307	0
7	338	972.02407510722	0
7	341	981.928561880455	0
7	344	1004.842236377678	0
7	350	1025.758625337468	0
7	353	1030.236728675109	3.63651211853
7	358	1038.673429756161	7.636668760076
7	359	1040.761281688726	6.005437375169
7	370	1049.613958482986	7.076276184241
7	380	1066.128100631702	23.224628426639
7	381	1067.875999669481	24.586936155876
7	386	1073.104365359339	27.040425000139
7	387	1078.082944359924	30.636660284983
7	398	1104.734708300929	52.696465893157
7	405	1119.443659923361	61.893389801668
7	406	1120.940892559315	59.908298278985
7	407	1121.503253998712	51.312107168985
7	412	1130.509120350131	60.222277756002
7	413	1132.135848831634	49.300428226455
7	414	1136.227750262636	50.199829404901
7	417	1140.682515375302	46.450774692521
7	418	1142.385518451616	41.128739075956
7	419	1143.600766114686	40.394042735942
7	420	1146.787218386863	40.600354223748
7	421	1148.268478215375	39.097397914036
7	422	1148.689553536264	37.301764543502
7	423	1149.244076762278	27.434145382211
7	428	1155.482552270361	31.116200728287
7	429	1157.676463978629	20.659759461181
7	432	1164.618221343984	15.036692225685
7	433	1166.718324605393	12.148299105909
7	436	1167.924645288202	8.462381606231
7	439	1173.40914414439	6.35450704322
7	442	1184.647153312204	12.925729109232
7	447	1192.160588905104	12.951807400139
7	448	1193.989999240809	7.45280116783
7	449	1196.877841920783	8.986611029594
7	452	1202.67566319902	0
7	455	1204.01364622619	0
7	458	1208.971224379873	2.483993582878
7	463	1209.813016913175	0.599891340999
7	464	1210.856151117172	1.102555833181
7	467	1211.245572995797	0.304065418919
7	472	1241.81378562618	29.288573975305
7	479	1253.585883500041	34.877321840806
7	480	1256.863448524705	13.320034294379
7	488	1285.857204819277	38.900899963046
7	489	1287.03347016807	38.78162770199
7	490	1288.175293551589	28.505098245701
7	493	1294.014656227969	25.138127283168
7	494	1298.962067127552	10.637246417715
7	500	1317.479692347285	5.957391512926
7	503	1347.919863570171	0
7	509	1374.868030005294	0
7	512	1379.578036641553	0
7	515	1380.636937306802	0
7	518	1392.15735548521	0
7	527	1412.565910788886	9.9569898469
7	530	1422.721074296431	0
7	533	1434.530211434858	0
7	536	1447.566384208322	0
7	558	1488.658682672732	28.118552922854
7	559	1489.284429927401	23.644563519312
7	560	1490.285228651788	24.179110993121
7	561	1491.476904421468	20.108612773801
7	562	1498.406240505259	19.429289024954
7	567	1506.198375114212	19.537063400377
7	568	1506.294231154111	7.781920960373
7	569	1510.901951196476	5.476423143089
7	572	1510.944288437075	0.010809562479
7	580	1543.592300610931	30.439154027001
7	583	1547.181881392876	25.30239470081
7	584	1547.87638504793	1.316852649611
7	587	1573.734695962205	10.356327656792
7	599	1640.607234575712	1.550247687193
7	602	1644.634981473805	1.539945236861
7	605	1647.05119371014	1.505171247551
7	608	1661.634814004436	0
7	611	1671.579912758762	0
7	616	1674.069612876979	2.043998315064
7	617	1678.139831243346	4.370160405754
7	620	1680.114757890623	0.698191916831
7	625	1681.727981456586	0.110024218012
7	626	1686.718860100898	5.011335722121
7	629	1689.842209156635	1.671486511197
7	634	1700.472594648638	9.869861112409
7	637	1702.987300087266	10.165272679996
7	638	1703.463893102396	1.272235134925
7	643	1705.662871365351	0.829864998233
7	646	1712.445544953868	6.846392982324
7	649	1714.926334759882	4.895609859014
7	652	1715.924960707413	2.183196868348
7	660	1732.881724457613	17.941479244249
7	663	1735.775937795925	18.118286009492
7	664	1738.82149708348	9.9448399719
7	665	1739.940667477816	6.246562612383
7	668	1742.927600029084	2.799217907899
7	699	1805.406965061014	59.36639860409
7	704	1815.760460472986	53.945201073504
7	705	1817.058335415013	43.26258030814
7	706	1818.05923426337	25.140298825958
7	713	1827.450427404506	25.172983049588
7	714	1829.099201652483	25.422535470138
7	715	1831.281056320433	17.84052147054
7	720	1836.179345500029	21.570087162839
7	721	1848.084201977871	27.681836961698
7	722	1850.379188880231	28.76475757437
7	723	1856.55512276906	29.406093152422
7	724	1857.155770994394	25.011293001443
7	725	1857.29400769444	23.856979111259
7	731	1876.226428141584	0
7	734	1879.711272229701	0
7	746	1895.647398915155	11.840710916609
7	749	1902.881584470032	0.410938293495
7	752	1907.529091213011	0
7	755	1910.311143032922	2.047541099867
7	771	1940.003944423457	26.806222670624
7	772	1945.799937202673	10.676178024399
7	773	1946.45941786839	7.961558448062
7	776	1962.257532328165	0
7	785	1978.440058147162	9.140702204568
7	788	1984.117516746036	0
7	801	2000.100255196885	14.055340992378
7	802	2001.302724969525	11.615487340229
7	803	2001.954874645626	11.334865137957
7	806	2004.481831767521	12.700447119049
7	811	2016.684350244892	22.231984875911
7	812	2023.376205078924	28.299681072899
7	815	2034.856343868742	31.670330861855
7	816	2035.028858888576	26.740441574577
7	821	2040.988374578649	31.050235762939
7	822	2049.951677456736	24.381894627006
7	823	2051.513472286731	10.962947938997
7	824	2052.417509276371	11.802384037042
7	829	2067.95636802664	13.744461148922
7	830	2068.605135277989	3.445332036341
7	833	2072.225498533218	0
7	836	2080.539873363293	0
7	839	2085.070623929492	4.083537459475
7	842	2088.416163154494	1.325783858849
7	845	2089.85654757204	0.965281251583
7	851	2113.982284071148	0
7	858	2118.307741730463	3.491077217264
7	859	2121.980516707154	6.589248164995
7	860	2124.742050856751	8.061445564225
7	883	2173.659248337139	44.05996848581
7	888	2180.799324880263	45.961745643866
7	899	2204.68863797235	65.643202056184
7	902	2214.269503044432	70.62213383656
7	905	2221.179428704265	63.36319856304
7	906	2224.477613585082	46.315056527069
7	907	2225.150261116668	44.817414944092
7	910	2234.683420350479	50.715385327634
7	911	2236.569369931108	49.810414266851
7	912	2244.427990795265	53.290659049273
7	913	2245.926638237243	50.928519420281
7	914	2251.125506520329	55.000750955808
7	921	2262.431691838778	48.194354722591
7	922	2265.421535244398	50.350185385272
7	927	2271.986171506857	39.641887268786
7	928	2275.003962751792	20.730619149722
7	931	2279.22072513341	24.095457643445
7	932	2280.182141918144	21.930505380733
7	941	2291.389718651991	24.833863905744
7	946	2297.345932398249	27.525581510367
7	947	2298.706577147169	23.315389411342
7	952	2306.717592049945	22.563129013305
7	955	2314.155905284436	28.212696869518
7	956	2315.433657503383	26.86661711902
7	959	2320.366957263237	31.638642189377
7	960	2321.509697370477	25.955087220197
7	961	2321.514177897662	25.898949960013
7	962	2321.572499145649	21.087787202329
7	963	2326.629769649796	21.243978920717
7	966	2330.975067067293	19.520321295275
7	967	2334.732413854766	14.803422539927
7	972	2345.594192227633	18.195442170457
7	975	2348.131900287407	12.819566876368
7	978	2353.550886594323	13.981983080274
7	981	2361.468426154524	13.366286810513
7	982	2364.212656372737	12.316644735081
7	983	2367.893447894544	6.750951440239
7	986	2373.270587371442	0
7	994	2403.298139181838	2.628099912706
7	995	2405.945298765022	4.522083265006
7	1009	2447.330215582688	7.194268060782
7	1026	2472.690397120119	29.041393060108
7	1029	2476.572619806193	28.853680801021
7	1030	2482.764991823888	34.156262005527
7	1033	2492.953097535389	32.060883610234
7	1034	2493.652372939049	29.252549723385
7	1035	2495.077986917713	29.975064027798
7	1036	2495.310756677014	22.118731626314
7	1039	2497.421821065358	13.709834524885
8	153	391.35479468799	39
8	156	416.561571549883	40
8	162	432.207627694767	41
8	175	466.962975395299	42
8	176	467.736221025812	43
8	187	485.704524957027	44
8	188	485.907075816661	45
8	194	491.392794292792	46
8	195	492.77672548682	47
8	201	509.828059741151	48
8	207	530.925031421806	49
8	213	547.329049265698	50
8	218	560.319397476156	51
8	219	570.533470631907	52
8	222	575.851208170918	53
8	225	579.587424539851	54
8	233	640.417238049226	55
8	236	642.053602311391	56
8	237	643.864913679543	57
8	249	667.367911157432	58
8	250	668.027275407846	59
8	254	681.810675088599	60
8	255	683.190064920726	61
8	258	688.001722169088	62
8	264	716.709421999908	63
8	284	753.131089302493	64
8	285	753.277999655974	65
8	286	753.687434889897	66
8	292	767.760054332049	67
8	293	769.036980229238	68
8	294	771.695438784313	69
8	297	790.252808254776	70
8	308	837.988555505749	71
8	309	838.863083653852	72
8	312	848.960593560807	73
8	324	900.002291935708	74
8	330	949.427854845135	75
8	333	952.067651490323	76
8	339	973.767226612066	77
8	342	984.672569813141	78
8	345	1006.791347675343	79
8	353	1030.236728675109	80
8	359	1040.761281688726	81
8	381	1067.875999669481	82
8	386	1073.104365359339	83
8	387	1078.082944359924	84
8	405	1119.443659923361	85
8	406	1120.940892559315	86
8	407	1121.503253998712	87
8	412	1130.509120350131	88
8	413	1132.135848831634	89
8	414	1136.227750262636	90
8	418	1142.385518451616	91
8	419	1143.600766114686	92
8	420	1146.787218386863	93
8	421	1148.268478215375	94
8	422	1148.689553536264	95
8	423	1149.244076762278	96
8	429	1157.676463978629	97
8	433	1166.718324605393	98
8	436	1167.924645288202	99
8	439	1173.40914414439	100
8	442	1184.647153312204	101
8	447	1192.160588905104	102
8	448	1193.989999240809	103
8	449	1196.877841920783	104
8	450	1199.159967365317	105
8	453	1202.775945199862	106
8	464	1210.856151117172	107
8	479	1253.585883500041	108
8	480	1256.863448524705	109
8	489	1287.03347016807	110
8	490	1288.175293551589	111
8	493	1294.014656227969	112
8	494	1298.962067127552	113
8	495	1305.245860287659	114
8	501	1317.684766182576	115
8	504	1350.782997481787	116
8	510	1375.446949151872	117
8	513	1380.622127973809	118
8	516	1383.461915126761	119
8	519	1401.459912513615	120
8	528	1416.123260771918	121
8	531	1425.448442312703	122
8	534	1436.113648630537	123
8	537	1450.676159141825	124
8	559	1489.284429927401	125
8	560	1490.285228651788	126
8	561	1491.476904421468	127
8	562	1498.406240505259	128
8	567	1506.198375114212	129
8	568	1506.294231154111	130
8	569	1510.901951196476	131
8	572	1510.944288437075	132
8	584	1547.87638504793	133
8	587	1573.734695962205	134
8	588	1575.274145179751	135
8	602	1644.634981473805	136
8	605	1647.05119371014	137
8	606	1647.189630773569	138
8	609	1669.723194725595	139
8	616	1674.069612876979	140
8	617	1678.139831243346	141
8	620	1680.114757890623	142
8	625	1681.727981456586	143
8	626	1686.718860100898	144
8	629	1689.842209156635	145
8	637	1702.987300087266	146
8	638	1703.463893102396	147
8	643	1705.662871365351	148
8	646	1712.445544953868	149
8	649	1714.926334759882	150
8	652	1715.924960707413	151
8	663	1735.775937795925	152
8	664	1738.82149708348	153
8	665	1739.940667477816	154
8	668	1742.927600029084	155
8	704	1815.760460472986	156
8	705	1817.058335415013	157
8	706	1818.05923426337	158
8	713	1827.450427404506	159
8	714	1829.099201652483	160
8	715	1831.281056320433	161
8	721	1848.084201977871	162
8	722	1850.379188880231	163
8	723	1856.55512276906	164
8	724	1857.155770994394	165
8	725	1857.29400769444	166
8	726	1859.921630512827	167
8	732	1877.682016280461	168
8	735	1879.759244945196	169
8	749	1902.881584470032	170
8	750	1903.127898080238	171
8	755	1910.311143032922	172
8	772	1945.799937202673	173
8	773	1946.45941786839	174
8	774	1948.533753728257	175
8	777	1962.664212598424	176
8	786	1978.658529644678	177
8	802	2001.302724969525	178
8	803	2001.954874645626	179
8	811	2016.684350244892	180
8	812	2023.376205078924	181
8	815	2034.856343868742	182
8	816	2035.028858888576	183
8	822	2049.951677456736	184
8	823	2051.513472286731	185
8	824	2052.417509276371	186
8	829	2067.95636802664	187
8	830	2068.605135277989	188
8	831	2069.02818123342	189
8	834	2077.441959038065	190
8	842	2088.416163154494	191
8	845	2089.85654757204	192
8	846	2095.328438412659	193
8	858	2118.307741730463	194
8	859	2121.980516707154	195
8	860	2124.742050856751	196
8	888	2180.799324880263	197
8	905	2221.179428704265	198
8	906	2224.477613585082	199
8	907	2225.150261116668	200
8	911	2236.569369931108	201
8	912	2244.427990795265	202
8	913	2245.926638237243	203
8	914	2251.125506520329	204
8	922	2265.421535244398	205
8	928	2275.003962751792	206
8	931	2279.22072513341	207
8	932	2280.182141918144	208
8	946	2297.345932398249	209
8	947	2298.706577147169	210
8	955	2314.155905284436	211
8	956	2315.433657503383	212
8	959	2320.366957263237	213
8	960	2321.509697370477	214
8	961	2321.514177897662	215
8	962	2321.572499145649	216
8	963	2326.629769649796	217
8	967	2334.732413854766	218
8	981	2361.468426154524	219
8	982	2364.212656372737	220
8	983	2367.893447894544	221
8	984	2371.074381912862	222
8	987	2374.470365043791	223
8	995	2405.945298765022	224
8	996	2414.010859008762	225
8	1030	2482.764991823888	226
8	1034	2493.652372939049	227
8	1035	2495.077986917713	228
8	1036	2495.310756677014	229
8	1039	2497.421821065358	230
9	153	391.35479468799	5.497894813257
9	156	416.561571549883	7.869855930558
9	162	432.207627694767	10.074979444947
9	175	466.962975395299	21.143917765792
9	176	467.736221025812	13.648571193187
9	187	485.704524957027	15.222510298047
9	188	485.907075816661	3.948829563677
9	194	491.392794292792	4.09755050507
9	195	492.77672548682	1.591823437999
9	201	509.828059741151	2.43277876428
9	207	530.925031421806	0.276539220497
9	213	547.329049265698	3.740570282357
9	218	560.319397476156	5.563724041057
9	219	570.533470631907	15.220207322209
9	222	575.851208170918	0.263582941977
9	225	579.587424539851	0.304082778968
9	233	640.417238049226	44.222244849205
9	236	642.053602311391	25.22593471156
9	237	643.864913679543	2.938616241637
9	249	667.367911157432	17.481054470204
9	250	668.027275407846	12.036021116432
9	254	681.810675088599	20.215972726024
9	255	683.190064920726	6.704104728786
9	258	688.001722169088	4.444096639691
9	264	716.709421999908	9.096448810214
9	284	753.131089302493	21.767543191585
9	285	753.277999655974	20.722813439137
9	286	753.687434889897	19.748480653975
9	292	767.760054332049	22.683580155283
9	293	769.036980229238	11.350128117378
9	294	771.695438784313	12.573419156488
9	297	790.252808254776	0.035074943681
9	308	837.988555505749	40.383652360459
9	309	838.863083653852	28.599499954772
9	312	848.960593560807	4.135454925011
9	324	900.002291935708	14.903018525192
9	330	949.427854845135	0.45509917595
9	333	952.067651490323	1.223671716016
9	339	973.767226612066	1.743151504846
9	342	984.672569813141	2.744007932686
9	345	1006.791347675343	1.949111297665
9	353	1030.236728675109	4.478103337641
9	359	1040.761281688726	9.724520692641
9	381	1067.875999669481	24.972527464418
9	386	1073.104365359339	29.815301845734
9	387	1078.082944359924	32.019004000724
9	405	1119.443659923361	67.405417515589
9	406	1120.940892559315	63.390622437622
9	407	1121.503253998712	60.470659718382
9	412	1130.509120350131	60.317973520404
9	413	1132.135848831634	61.849006237505
9	414	1136.227750262636	53.392329657457
9	418	1142.385518451616	48.153777768835
9	419	1143.600766114686	42.343986739026
9	420	1146.787218386863	43.580495008119
9	421	1148.268478215375	42.08161405226
9	422	1148.689553536264	39.518473234925
9	423	1149.244076762278	37.856287769516
9	429	1157.676463978629	33.310112436555
9	433	1166.718324605393	17.136795487094
9	436	1167.924645288202	13.354619788718
9	439	1173.40914414439	13.946880462419
9	442	1184.647153312204	17.592516211034
9	447	1192.160588905104	20.439164702132
9	448	1193.989999240809	14.781217735844
9	449	1196.877841920783	10.340643847804
9	450	1199.159967365317	11.268736474128
9	453	1202.775945199862	0.100282000842
9	464	1210.856151117172	1.643025544996
9	479	1253.585883500041	41.060671849166
9	480	1256.863448524705	38.15488686547
9	489	1287.03347016807	40.077165311839
9	490	1288.175293551589	39.923451085509
9	493	1294.014656227969	34.344460922081
9	494	1298.962067127552	30.085538182751
9	495	1305.245860287659	16.921039577822
9	501	1317.684766182576	6.162465348217
9	504	1350.782997481787	2.863133911616
9	510	1375.446949151872	0.578919146578
9	513	1380.622127973809	1.044091332256
9	516	1383.461915126761	2.824977819959
9	519	1401.459912513615	9.302557028405
9	528	1416.123260771918	13.514339829932
9	531	1425.448442312703	2.727368016272
9	534	1436.113648630537	1.583437195679
9	537	1450.676159141825	3.109774933503
9	559	1489.284429927401	28.744300177523
9	560	1490.285228651788	24.645362243699
9	561	1491.476904421468	25.370786762801
9	562	1498.406240505259	27.037948857592
9	567	1506.198375114212	27.221423633907
9	568	1506.294231154111	19.632919440276
9	569	1510.901951196476	12.389641002738
9	572	1510.944288437075	5.518760383688
9	584	1547.87638504793	25.996898355864
9	587	1573.734695962205	27.175163563886
9	588	1575.274145179751	11.895776874338
9	602	1644.634981473805	5.577994585286
9	605	1647.05119371014	3.956157473196
9	606	1647.189630773569	1.64360831098
9	609	1669.723194725595	8.088380721159
9	616	1674.069612876979	2.489700118217
9	617	1678.139831243346	6.114216681431
9	620	1680.114757890623	6.345087053031
9	625	1681.727981456586	2.311415482794
9	626	1686.718860100898	5.100902862324
9	629	1689.842209156635	8.134684777858
9	637	1702.987300087266	12.384566551037
9	638	1703.463893102396	10.641865695126
9	643	1705.662871365351	3.47121339788
9	646	1712.445544953868	7.61253858675
9	649	1714.926334759882	9.327182788338
9	652	1715.924960707413	5.894235806545
9	663	1735.775937795925	20.835692582561
9	664	1738.82149708348	21.163845297047
9	665	1739.940667477816	11.064010366236
9	668	1742.927600029084	9.233495163651
9	704	1815.760460472986	69.719894016062
9	705	1817.058335415013	55.243076015531
9	706	1818.05923426337	44.263479156497
9	713	1827.450427404506	34.531491967094
9	714	1829.099201652483	26.821757297565
9	715	1831.281056320433	27.604390138088
9	721	1848.084201977871	33.474943640681
9	722	1850.379188880231	29.976823864058
9	723	1856.55512276906	34.940691463199
9	724	1857.155770994394	30.006741377756
9	725	1857.29400769444	25.149529701489
9	726	1859.921630512827	26.484601929646
9	732	1877.682016280461	1.455588138877
9	735	1879.759244945196	0.047972715495
9	749	1902.881584470032	19.074896471486
9	750	1903.127898080238	0.657251903701
9	755	1910.311143032922	2.782051819911
9	772	1945.799937202673	32.60221544984
9	773	1946.45941786839	11.335658690116
9	774	1948.533753728257	10.035894307929
9	777	1962.664212598424	0.406680270259
9	786	1978.658529644678	9.359173702084
9	802	2001.302724969525	15.257810765018
9	803	2001.954874645626	12.26763701633
9	811	2016.684350244892	24.90296559642
9	812	2023.376205078924	28.923839709943
9	815	2034.856343868742	39.779819862717
9	816	2035.028858888576	31.842845881689
9	822	2049.951677456736	40.013538641026
9	823	2051.513472286731	25.943689457001
9	824	2052.417509276371	11.866984928637
9	829	2067.95636802664	27.341242787311
9	830	2068.605135277989	14.393228400271
9	831	2069.02818123342	3.868377991772
9	834	2077.441959038065	5.216460504847
9	842	2088.416163154494	7.429076684477
9	845	2089.85654757204	2.766168276395
9	846	2095.328438412659	6.437172092202
9	858	2118.307741730463	4.325457659315
9	859	2121.980516707154	7.163852193955
9	860	2124.742050856751	9.350782314592
9	888	2180.799324880263	51.200045028934
9	905	2221.179428704265	77.532059496393
9	906	2224.477613585082	66.661383443857
9	907	2225.150261116668	46.987704058655
9	911	2236.569369931108	52.601334908263
9	912	2244.427990795265	57.669035131008
9	913	2245.926638237243	54.789306491251
9	914	2251.125506520329	56.127387703367
9	922	2265.421535244398	51.184198128211
9	928	2275.003962751792	42.659678513721
9	931	2279.22072513341	24.94738153134
9	932	2280.182141918144	25.056874428179
9	946	2297.345932398249	30.790077652002
9	947	2298.706577147169	28.886226259287
9	955	2314.155905284436	30.001442247796
9	956	2315.433657503383	29.490449088465
9	959	2320.366957263237	31.799916878874
9	960	2321.509697370477	32.781382296617
9	961	2321.514177897662	25.959567747382
9	962	2321.572499145649	25.957271208
9	963	2326.629769649796	26.145057706476
9	967	2334.732413854766	23.277668082748
9	981	2361.468426154524	21.899522640475
9	982	2364.212656372737	16.110517028726
9	983	2367.893447894544	15.997436256888
9	984	2371.074381912862	9.931885458557
9	987	2374.470365043791	1.199777672349
9	995	2405.945298765022	5.27525949589
9	996	2414.010859008762	12.587643508746
9	1030	2482.764991823888	35.046052818716
9	1034	2493.652372939049	32.760159013894
9	1035	2495.077986917713	30.678163702049
9	1036	2495.310756677014	30.207833787099
9	1039	2497.421821065358	24.229796014658
10	178	469.450297919605	6
10	181	470.48201465898	7
10	190	487.295243787722	8
10	252	676.48596019194	9
10	290	759.122019627825	10
10	355	1031.036760996085	11
10	369	1047.446284074941	12
10	372	1052.038242407772	13
10	389	1082.835420605179	14
10	416	1137.016704517448	15
10	425	1149.581529118299	16
10	431	1159.462263681971	17
10	457	1206.487230796995	18
10	462	1209.753595283991	19
10	466	1210.941507576878	20
10	471	1218.708561659235	21
10	482	1259.670195305888	22
10	574	1513.15314658393	23
10	582	1546.559532398319	24
10	631	1690.602733536229	25
10	654	1717.657651786433	26
10	670	1746.040566456924	27
10	717	1832.144477992951	28
10	757	1913.197721752833	29
10	798	1994.452365368981	30
10	805	2003.186013006887	31
10	820	2040.615125239329	32
10	838	2080.987086470017	33
10	862	2129.599279851329	34
10	890	2183.968035022845	35
10	901	2214.237337116187	36
10	909	2232.344284238071	37
10	916	2254.27334360207	38
10	924	2266.555854746247	39
10	934	2284.15446303664	40
10	949	2300.48471194332	41
10	965	2327.398750057176	42
10	969	2335.312333411039	43
10	974	2348.102139344011	44
10	977	2351.896011637656	45
10	1011	2447.718939005172	46
10	1028	2473.1920250507	47
10	1032	2483.711986540473	48
11	1040	2500	0.092
12	1040	2500	0.046

