version 2
run experiments_medium_game_mode1-129-20230311-09:40:23-9315
attr configname experiments_medium_game_mode1
attr datetime 20230311-09:40:23
attr experiment experiments_medium_game_mode1
attr inifile omnetpp.ini
attr iterationvars "$0=5, $1=5, $2=0"
attr iterationvarsf 5,5,0-
attr measurement "$0=5, $1=5, $2=0"
attr network Network
attr processid 9315
attr repetition 9
attr replication #9
attr resultdir results
attr runnumber 129
attr seedset 9
param *.boss.arrival_mean 20
param *.boss.service_mean 5
param *.minion.arrival_mean 10
param *.minion.service_mean 5
param *.player.recover_rate_x 0
param **.minion.arrival_distribution 0
param **.minion.service_distribution 0
param **.boss.arrival_distribution 0
param **.boss.service_distribution 0

vector 0 Network.player boss_defeated_stat:vector ETV
attr source signal_boss_defeated
vector 1 Network.player boss_jobs_queue_number_stat:vector ETV
attr source signal_boss_jobs_queue_number
vector 2 Network.player boss_response_time_stat:vector ETV
attr source signal_boss_response_time
vector 3 Network.player minion_waiting_time_stat:vector ETV
attr source signal_minion_waiting_time
vector 4 Network.player minion_defeated_stat:vector ETV
attr source signal_minion_defeated
vector 5 Network.player minion_jobs_queue_number_stat:vector ETV
attr source signal_minion_jobs_queue_number
vector 6 Network.player minion_response_time_stat:vector ETV
attr source signal_minion_response_time
vector 7 Network.player minion_jobs_number_stat:vector ETV
attr source signal_minion_jobs_number
vector 8 Network.player boss_jobs_number_stat:vector ETV
attr source signal_boss_jobs_number
vector 9 Network.player minion_recovered_stat:vector ETV
attr source signal_minion_recovered
vector 10 Network.player boss_waiting_time_stat:vector ETV
attr source signal_boss_waiting_time
vector 11 Network.player minion_throughput:vector ETV
attr source signal_minion_throughput
vector 12 Network.player boss_throughput:vector ETV
attr source signal_boss_throughput
0	127	352.899554407909	10
0	137	370.634362612352	11
0	145	384.423513862534	12
0	152	389.368126797752	13
0	155	391.042518894509	14
0	161	402.737637913654	15
0	166	408.624733434725	16
0	173	413.632789909674	17
0	191	445.238448632288	18
0	196	458.363765344836	19
0	222	491.208080440856	20
0	229	499.658688536989	21
0	239	521.270872582878	22
0	247	543.494283183058	23
0	255	551.051250983652	24
0	271	575.530074032988	25
0	274	589.442913825198	26
0	290	629.52315569644	27
0	307	670.723578604228	28
0	312	679.461678147211	29
0	316	682.963612328661	30
0	327	712.060376766334	31
0	335	727.185718984706	32
0	342	743.445396081465	33
0	343	745.558100806863	34
0	357	763.98032056369	35
0	362	767.655560810221	36
0	366	783.857456469385	37
0	369	793.275163252091	38
0	386	835.572442706909	39
0	389	847.440130184786	40
0	409	906.478508643097	41
0	423	920.03996977754	42
0	442	967.036509870337	43
0	449	979.535164316384	44
0	452	985.903815938265	45
0	453	986.46870007259	46
0	460	988.338128105498	47
0	463	989.732085156356	48
0	479	1011.980761194574	49
0	503	1079.722224921605	50
0	537	1139.714634503136	51
0	538	1140.519433124107	52
0	561	1210.255137008759	53
0	569	1219.981616020391	54
0	573	1229.375264159423	55
0	590	1265.284747023638	56
0	605	1290.584198601872	57
0	612	1304.825625295174	58
0	623	1329.9478948362	59
0	632	1339.287136685094	60
0	635	1344.837227144822	61
0	638	1350.962116503219	62
0	649	1378.777783776844	63
0	656	1388.69537653517	64
0	665	1439.52300280655	65
0	674	1449.302335563521	66
0	686	1478.949636779415	67
0	687	1482.591348890473	68
0	690	1486.506196963334	69
0	691	1487.606741166596	70
0	694	1492.892517735359	71
0	695	1499.731031527247	72
0	700	1506.411747267074	73
0	707	1514.534036415429	74
0	725	1543.528964095949	75
0	734	1586.682487701251	76
0	735	1586.750745151043	77
0	740	1606.52284380874	78
0	745	1618.342886963525	79
0	748	1619.569815074006	80
0	752	1625.295518020935	81
0	773	1731.095008268191	82
0	786	1747.288749309338	83
0	805	1799.283103134452	84
0	806	1805.564066981363	85
0	807	1808.991297918914	86
0	813	1839.180607628581	87
0	816	1849.400137095483	88
0	822	1854.25901971666	89
0	833	1867.449406894151	90
0	834	1872.187826322763	91
0	838	1884.117033066116	92
0	841	1886.291952680363	93
0	858	1927.053008729046	94
0	891	2022.402802549828	95
0	903	2040.475181163112	96
0	906	2042.272974402751	97
0	926	2057.479208347455	98
0	933	2065.891790164587	99
0	936	2071.576242289692	100
0	943	2082.496666893199	101
0	957	2129.897164639974	102
0	964	2144.149389840911	103
0	967	2150.990240334434	104
0	968	2152.127239252624	105
0	983	2183.062835881011	106
0	997	2204.451148461155	107
0	1011	2226.298265108195	108
0	1014	2232.71509264011	109
0	1017	2236.032001334797	110
0	1020	2238.160191188217	111
0	1029	2264.653422187359	112
0	1030	2265.89077686342	113
0	1031	2267.996261033935	114
0	1040	2279.261371273158	115
0	1045	2288.855794517137	116
0	1053	2297.238460552483	117
0	1068	2333.859035614542	118
0	1080	2364.972667808299	119
0	1088	2370.595198959792	120
0	1093	2382.470085666083	121
0	1104	2426.353169317824	122
0	1109	2443.295380912286	123
0	1113	2460.672999301803	124
0	1119	2492.50969884862	125
1	127	352.899554407909	0
1	136	366.90674060042	0
1	137	370.634362612352	0
1	144	381.784833013177	0
1	145	384.423513862534	0
1	149	386.250875507134	0
1	152	389.368126797752	0
1	154	389.749122569849	0
1	155	391.042518894509	0
1	158	399.549588799422	0
1	160	402.504371015353	1
1	161	402.737637913654	1
1	165	408.499009690112	1
1	166	408.624733434725	1
1	173	413.632789909674	0
1	190	443.817232557662	0
1	191	445.238448632288	0
1	193	445.367973862082	0
1	196	458.363765344836	0
1	209	478.003471691353	0
1	217	484.600153220399	1
1	222	491.208080440856	1
1	229	499.658688536989	0
1	238	517.502141464979	0
1	239	521.270872582878	0
1	244	529.042666305749	0
1	247	543.494283183058	0
1	254	549.723407939261	0
1	255	551.051250983652	0
1	262	562.927292449865	0
1	271	575.530074032988	0
1	273	586.270515660759	0
1	274	589.442913825198	0
1	289	626.843884536897	0
1	290	629.52315569644	0
1	298	647.353795303353	0
1	302	662.438482297379	1
1	307	670.723578604228	1
1	312	679.461678147211	0
1	315	680.919630399863	0
1	316	682.963612328661	0
1	326	697.442376960556	0
1	327	712.060376766334	0
1	332	725.763040227324	0
1	335	727.185718984706	0
1	339	738.500469943368	0
1	341	739.177665474985	1
1	342	743.445396081465	1
1	343	745.558100806863	0
1	356	762.526755291277	0
1	357	763.98032056369	0
1	359	765.313687185756	0
1	362	767.655560810221	0
1	365	779.370713826155	0
1	366	783.857456469385	0
1	368	791.075455498199	0
1	369	793.275163252091	0
1	381	825.727435836351	0
1	386	835.572442706909	0
1	388	841.668238793278	0
1	389	847.440130184786	0
1	408	906.230180631313	0
1	409	906.478508643097	0
1	422	918.329453634844	0
1	423	920.03996977754	0
1	433	957.388344174164	0
1	435	957.723820241117	1
1	441	965.1212364791	2
1	442	967.036509870337	2
1	444	970.625671301786	2
1	449	979.535164316384	2
1	452	985.903815938265	1
1	453	986.46870007259	0
1	455	986.583432109771	0
1	457	987.393290059605	1
1	460	988.338128105498	1
1	463	989.732085156356	0
1	478	1008.65887140681	0
1	479	1011.980761194574	0
1	500	1070.155179727889	0
1	503	1079.722224921605	0
1	532	1130.416300279589	0
1	534	1132.048297238397	1
1	537	1139.714634503136	1
1	538	1140.519433124107	0
1	560	1205.642446634233	0
1	561	1210.255137008759	0
1	568	1216.616931884824	0
1	569	1219.981616020391	0
1	572	1228.520457625003	0
1	573	1229.375264159423	0
1	587	1254.734196931696	0
1	590	1265.284747023638	0
1	602	1286.850380159512	0
1	605	1290.584198601872	0
1	611	1302.844015444965	0
1	612	1304.825625295174	0
1	622	1328.909099580252	0
1	623	1329.9478948362	0
1	629	1337.388330083135	0
1	631	1339.233828183082	1
1	632	1339.287136685094	1
1	634	1343.29505004117	1
1	635	1344.837227144822	1
1	638	1350.962116503219	0
1	648	1374.799124051652	0
1	649	1378.777783776844	0
1	653	1387.35074829731	0
1	656	1388.69537653517	0
1	664	1438.672465126625	0
1	665	1439.52300280655	0
1	671	1446.386407934709	0
1	674	1449.302335563521	0
1	677	1465.471776737086	0
1	681	1472.526123282645	1
1	683	1477.260476761024	2
1	685	1478.758750500482	3
1	686	1478.949636779415	3
1	687	1482.591348890473	2
1	689	1484.290723402252	2
1	690	1486.506196963334	2
1	691	1487.606741166596	1
1	693	1490.187265864041	1
1	694	1492.892517735359	1
1	695	1499.731031527247	0
1	697	1500.847975289427	0
1	700	1506.411747267074	0
1	704	1508.857475936079	0
1	707	1514.534036415429	0
1	722	1534.984185702364	0
1	725	1543.528964095949	0
1	731	1584.596546818588	0
1	733	1584.900654196861	1
1	734	1586.682487701251	1
1	735	1586.750745151043	0
1	737	1604.854966012996	0
1	740	1606.52284380874	0
1	742	1608.92861649769	0
1	744	1610.735235706327	1
1	745	1618.342886963525	1
1	748	1619.569815074006	0
1	751	1622.440234149539	0
1	752	1625.295518020935	0
1	770	1725.797566812866	0
1	773	1731.095008268191	0
1	785	1744.043509672546	0
1	786	1747.288749309338	0
1	800	1790.574625413366	0
1	802	1793.295441535686	1
1	804	1796.601928198126	2
1	805	1799.283103134452	2
1	806	1805.564066981363	1
1	807	1808.991297918914	0
1	812	1830.0117169173	0
1	813	1839.180607628581	0
1	815	1848.743132659626	0
1	816	1849.400137095483	0
1	821	1853.658041950659	0
1	822	1854.25901971666	0
1	824	1855.784039861942	0
1	826	1857.679617678275	1
1	833	1867.449406894151	1
1	834	1872.187826322763	0
1	837	1882.457710465602	0
1	838	1884.117033066116	0
1	840	1885.04093721874	0
1	841	1886.291952680363	0
1	857	1925.63764088096	0
1	858	1927.053008729046	0
1	890	2022.200134446936	0
1	891	2022.402802549828	0
1	902	2032.794886553949	0
1	903	2040.475181163112	0
1	905	2040.625890296416	0
1	906	2042.272974402751	0
1	925	2053.878915809292	0
1	926	2057.479208347455	0
1	932	2064.153547375319	0
1	933	2065.891790164587	0
1	935	2068.750220991927	0
1	936	2071.576242289692	0
1	940	2081.78025563606	0
1	943	2082.496666893199	0
1	956	2126.915847722145	0
1	957	2129.897164639974	0
1	959	2137.731399979001	0
1	961	2139.643418030477	1
1	964	2144.149389840911	1
1	966	2146.629260054248	1
1	967	2150.990240334434	1
1	968	2152.127239252624	0
1	982	2179.771093233548	0
1	983	2183.062835881011	0
1	992	2196.627595088498	0
1	997	2204.451148461155	0
1	1006	2216.971440694834	0
1	1010	2226.000127713074	1
1	1011	2226.298265108195	1
1	1013	2228.447023846671	1
1	1014	2232.71509264011	1
1	1016	2234.20252635727	1
1	1017	2236.032001334797	1
1	1019	2237.414483346714	1
1	1020	2238.160191188217	1
1	1022	2249.077865559208	1
1	1028	2259.534430219018	2
1	1029	2264.653422187359	2
1	1030	2265.89077686342	1
1	1031	2267.996261033935	0
1	1039	2277.923741025562	0
1	1040	2279.261371273158	0
1	1044	2288.666116345938	0
1	1045	2288.855794517137	0
1	1052	2296.659481833168	0
1	1053	2297.238460552483	0
1	1067	2330.015315462675	0
1	1068	2333.859035614542	0
1	1073	2350.915731692075	0
1	1080	2364.972667808299	0
1	1087	2367.773846882979	0
1	1088	2370.595198959792	0
1	1092	2378.574598955318	0
1	1093	2382.470085666083	0
1	1103	2425.11642804679	0
1	1104	2426.353169317824	0
1	1106	2431.98697731575	0
1	1109	2443.295380912286	0
1	1112	2458.246234532336	0
1	1113	2460.672999301803	0
1	1118	2481.626538504285	0
1	1119	2492.50969884862	0
2	127	352.899554407909	4.618936049001
2	137	370.634362612352	3.727622011932
2	145	384.423513862534	2.638680849357
2	152	389.368126797752	3.117251290618
2	155	391.042518894509	1.29339632466
2	161	402.737637913654	3.188049114232
2	166	408.624733434725	6.120362419372
2	173	413.632789909674	5.133780219562
2	191	445.238448632288	1.421216074626
2	196	458.363765344836	12.995791482754
2	222	491.208080440856	13.204608749503
2	229	499.658688536989	15.05853531659
2	239	521.270872582878	3.768731117899
2	247	543.494283183058	14.451616877309
2	255	551.051250983652	1.327843044391
2	271	575.530074032988	12.602781583123
2	274	589.442913825198	3.172398164439
2	290	629.52315569644	2.679271159543
2	307	670.723578604228	23.369783300875
2	312	679.461678147211	17.023195849832
2	316	682.963612328661	2.043981928798
2	327	712.060376766334	14.617999805778
2	335	727.185718984706	1.422678757382
2	342	743.445396081465	4.944926138097
2	343	745.558100806863	6.380435331878
2	357	763.98032056369	1.453565272413
2	362	767.655560810221	2.341873624465
2	366	783.857456469385	4.48674264323
2	369	793.275163252091	2.199707753892
2	386	835.572442706909	9.845006870558
2	389	847.440130184786	5.771891391508
2	409	906.478508643097	0.248328011784
2	423	920.03996977754	1.710516142696
2	442	967.036509870337	9.648165696173
2	449	979.535164316384	21.811344075267
2	452	985.903815938265	20.782579459165
2	453	986.46870007259	15.843028770804
2	460	988.338128105498	1.754695995727
2	463	989.732085156356	2.338795096751
2	479	1011.980761194574	3.321889787764
2	503	1079.722224921605	9.567045193716
2	537	1139.714634503136	9.298334223547
2	538	1140.519433124107	8.47113588571
2	561	1210.255137008759	4.612690374526
2	569	1219.981616020391	3.364684135567
2	573	1229.375264159423	0.85480653442
2	590	1265.284747023638	10.550550091942
2	605	1290.584198601872	3.73381844236
2	612	1304.825625295174	1.981609850209
2	623	1329.9478948362	1.038795255948
2	632	1339.287136685094	1.898806601959
2	635	1344.837227144822	5.60339896174
2	638	1350.962116503219	7.667066462049
2	649	1378.777783776844	3.978659725192
2	656	1388.69537653517	1.34462823786
2	665	1439.52300280655	0.850537679925
2	674	1449.302335563521	2.915927628812
2	686	1478.949636779415	13.477860042329
2	687	1482.591348890473	10.065225607828
2	690	1486.506196963334	9.24572020231
2	691	1487.606741166596	8.847990666114
2	694	1492.892517735359	8.601794333107
2	695	1499.731031527247	9.543765663206
2	700	1506.411747267074	5.563771977647
2	707	1514.534036415429	5.67656047935
2	725	1543.528964095949	8.544778393585
2	734	1586.682487701251	2.085940882663
2	735	1586.750745151043	1.850090954182
2	740	1606.52284380874	1.667877795744
2	745	1618.342886963525	9.414270465835
2	748	1619.569815074006	8.834579367679
2	752	1625.295518020935	2.855283871396
2	773	1731.095008268191	5.297441455325
2	786	1747.288749309338	3.245239636792
2	805	1799.283103134452	8.708477721086
2	806	1805.564066981363	12.268625445677
2	807	1808.991297918914	12.389369720788
2	813	1839.180607628581	9.168890711281
2	816	1849.400137095483	0.657004435857
2	822	1854.25901971666	0.600977766001
2	833	1867.449406894151	11.665367032209
2	834	1872.187826322763	14.508208644488
2	838	1884.117033066116	1.659322600514
2	841	1886.291952680363	1.251015461623
2	858	1927.053008729046	1.415367848086
2	891	2022.402802549828	0.202668102892
2	903	2040.475181163112	7.680294609163
2	906	2042.272974402751	1.647084106335
2	926	2057.479208347455	3.600292538163
2	933	2065.891790164587	1.738242789268
2	936	2071.576242289692	2.826021297765
2	943	2082.496666893199	0.716411257139
2	957	2129.897164639974	2.981316917829
2	964	2144.149389840911	6.41798986191
2	967	2150.990240334434	11.346822303957
2	968	2152.127239252624	5.497979198376
2	983	2183.062835881011	3.291742647463
2	997	2204.451148461155	7.823553372657
2	1011	2226.298265108195	9.326824413361
2	1014	2232.71509264011	6.714964927036
2	1017	2236.032001334797	7.584977488126
2	1020	2238.160191188217	3.957664830947
2	1029	2264.653422187359	27.238938840645
2	1030	2265.89077686342	16.812911304212
2	1031	2267.996261033935	8.461830814917
2	1040	2279.261371273158	1.337630247596
2	1045	2288.855794517137	0.189678171199
2	1053	2297.238460552483	0.578978719315
2	1068	2333.859035614542	3.843720151867
2	1080	2364.972667808299	14.056936116224
2	1088	2370.595198959792	2.821352076813
2	1093	2382.470085666083	3.895486710765
2	1104	2426.353169317824	1.236741271034
2	1109	2443.295380912286	11.308403596536
2	1113	2460.672999301803	2.426764769467
2	1119	2492.50969884862	10.883160344335
3	127	352.899554407909	4.618936049001
3	128	353.656308224275	5.235613952752
3	131	358.869815898493	0
3	134	363.575345481466	0
3	137	370.634362612352	3.727622011932
3	140	371.895046822157	0
3	145	384.423513862534	6.500086585947
3	152	389.368126797752	7.583293784575
3	155	391.042518894509	6.243143765543
3	156	396.629665463949	10.378789956815
3	173	413.632789909674	26.008735385381
3	176	426.876653076632	37.127530506783
3	177	428.647903826976	29.098315027554
3	178	430.003660052968	26.292904792417
3	183	438.760195699074	28.885234609699
3	184	439.023139141008	27.936731552343
3	185	440.389570717442	26.940786888242
3	186	441.113612893541	18.453455442633
3	191	445.238448632288	11.464692821352
3	196	458.363765344836	21.829035546827
3	197	459.493155448007	16.947836514776
3	200	461.761640049654	17.944407491992
3	201	468.861310168858	23.493336306776
3	202	469.35409678219	17.854087395469
3	205	475.837773527424	15.356084856025
3	229	499.658688536989	27.328365385318
3	232	501.923746667147	25.63314443573
3	239	521.270872582878	43.267400891525
3	242	527.238370481105	45.659304412761
3	247	543.494283183058	59.379312336046
3	252	545.518953854203	61.111750417146
3	255	551.051250983652	64.215455796438
3	258	554.305712846718	63.786386554212
3	259	558.186926763515	65.783984828867
3	260	559.172706646988	62.839232036259
3	271	575.530074032988	78.967195685342
3	274	589.442913825198	88.743717092762
3	277	592.597719118616	81.981131045562
3	278	599.808354830268	83.405185972722
3	279	604.464398645205	86.962257180226
3	280	606.459411453671	82.475904762516
3	281	607.568012606027	78.525346300278
3	282	610.375440388215	69.26730045863
3	283	614.730885259963	70.833644918449
3	284	617.00694247899	71.760271316959
3	285	621.750864803042	72.027456863781
3	286	622.186272708236	69.498815121374
3	287	626.712807505413	63.785515055548
3	290	629.52315569644	62.713627821592
3	291	631.789385618437	63.065496139707
3	292	631.993986599386	62.694937831883
3	293	635.473602911205	61.990027008687
3	294	644.177831784848	57.907316124089
3	295	645.078673608477	55.479164737959
3	296	647.199389273854	20.355504736957
3	312	679.461678147211	32.107882843858
3	313	680.811249651671	28.131830607572
3	316	682.963612328661	19.113142206059
3	317	684.71198774992	18.216171732633
3	318	684.808600220827	10.630123325751
3	319	685.364931486415	10.928999934394
3	324	693.565406122524	12.645775722661
3	327	712.060376766334	26.188333166624
3	330	725.31275896276	37.806899981848
3	335	727.185718984706	29.74334202415
3	336	728.312394309411	9.137060378335
3	337	737.271352322918	11.508312095594
3	343	745.558100806863	19.782073607295
3	344	745.576152803172	7.075682859804
3	347	747.679645429777	0
3	350	752.045525628458	0
3	353	755.63646562893	0
3	362	767.655560810221	1.808991000088
3	371	797.929656108619	0
3	374	812.530843378195	9.164029865793
3	377	822.021854249861	0
3	386	835.572442706909	11.480226954016
3	389	847.440130184786	21.712694348435
3	390	850.980851985264	25.110560001913
3	391	860.626254683197	30.420948060326
3	392	871.086038386089	29.417799592811
3	395	878.79683226779	2.300302665823
3	398	883.170043642793	0.091047983729
3	401	890.143175704757	6.028950712173
3	406	903.277620051	2.968042627499
3	409	906.478508643097	3.792480090391
3	414	910.533083262889	4.302902631576
3	415	910.707929588094	2.866471494786
3	420	916.793230848832	8.569747085072
3	423	920.03996977754	6.054073281495
3	424	920.237424549611	4.72620478108
3	425	921.28015052306	2.950696888216
3	428	936.150174684048	0
3	431	957.350522892456	0
3	453	986.46870007259	29.080355898426
3	463	989.732085156356	30.194518781145
3	464	992.446932389651	31.431910840175
3	465	996.450835722652	22.6446647347
3	476	1008.108766635204	33.774985312104
3	479	1011.980761194574	26.247629798408
3	482	1026.497586544224	39.914154434453
3	483	1026.793883762002	39.375397635241
3	486	1037.596360506341	47.878416064251
3	491	1056.468817108838	59.833455905959
3	492	1061.842960912376	64.340983452536
3	495	1066.188498084789	65.574117350875
3	496	1067.681788669768	64.744249251808
3	503	1079.722224921605	76.582312224126
3	504	1081.520468805233	72.861597398423
3	505	1082.646523271964	59.192920618081
3	510	1087.071511909615	59.227406567916
3	511	1090.663700398247	50.198235581647
3	512	1092.676182986423	38.215355679603
3	513	1094.725727624268	29.249616807755
3	514	1097.95000658148	29.173055165866
3	521	1105.150214487631	34.995034759742
3	528	1121.192890043163	47.303036721446
3	529	1124.120387016282	37.896688834311
3	530	1128.893574635613	41.865323114798
3	538	1140.519433124107	40.207704288316
3	539	1143.299410620909	40.362284218505
3	540	1148.265705787533	44.969537071954
3	541	1149.332512499533	43.789205104216
3	542	1159.273623820504	40.042834843781
3	543	1159.381840406215	38.382248553157
3	544	1161.429440368815	31.013140089226
3	547	1166.454255550552	33.894082985599
3	550	1177.527350911715	15.567007506365
3	553	1183.395412475341	6.199415084399
3	556	1188.534374581426	8.452958106623
3	557	1191.246005913729	3.628340376367
3	563	1210.932903490067	0
3	566	1215.469320776207	0
3	569	1219.981616020391	3.364684135567
3	575	1230.212834470246	0
3	578	1231.567563007815	0
3	581	1235.080320368757	1.923371473389
3	584	1239.63087825766	1.692892329859
3	590	1265.284747023638	5.767947467014
3	597	1279.35019217639	8.809643517549
3	598	1282.010443368094	10.689644216098
3	605	1290.584198601872	16.330777241258
3	606	1291.529852022954	6.37706194921
3	609	1300.701778514649	13.851398355137
3	612	1304.825625295174	15.570021716423
3	613	1307.481968182336	8.22503477662
3	618	1320.469686660022	17.625671215057
3	623	1329.9478948362	17.498827620492
3	624	1332.720335289933	16.44083541913
3	627	1337.107520871203	9.312905612431
3	638	1350.962116503219	22.053016922967
3	639	1352.374631880715	18.588634027692
3	640	1354.997940716424	17.609610633289
3	641	1356.218424209908	7.835275486157
3	644	1363.842141545331	0
3	649	1378.777783776844	10.964928252149
3	650	1379.747053701747	4.947929650095
3	656	1388.69537653517	0.550761448494
3	659	1420.952007139121	0
3	662	1433.410097304958	0
3	665	1439.52300280655	0.850537679925
3	668	1441.499454043538	0
3	674	1449.302335563521	0.871559400084
3	695	1499.731031527247	32.631292247241
3	700	1506.411747267074	5.563771977647
3	707	1514.534036415429	13.267076347768
3	710	1522.134516694561	14.944322720471
3	711	1523.058802329151	14.201326393072
3	714	1523.566413539536	12.302754863102
3	715	1526.887024691094	6.652397278368
3	716	1528.424935932074	5.043439368426
3	719	1530.680263322624	0
3	725	1543.528964095949	4.595672766859
3	728	1555.691787578848	0
3	740	1606.52284380874	0.817039141369
3	748	1619.569815074006	10.641198576316
3	749	1620.013294463013	0.996960823675
3	752	1625.295518020935	2.855283871396
3	755	1641.110894273024	0
3	760	1659.156260721308	12.546173258151
3	761	1662.030003064564	14.086770266764
3	766	1669.896734752134	7.066226557133
3	767	1670.256762601418	2.556882870011
3	773	1731.095008268191	4.03497368263
3	776	1732.575873732124	0
3	779	1740.131284095942	0
3	782	1742.088416458281	0
3	788	1754.713226187395	0
3	791	1758.057199375726	3.232007426067
3	794	1773.115304760274	0
3	797	1787.885383079952	0
3	809	1819.757551536556	0
3	818	1849.952015362654	0
3	834	1872.187826322763	12.217023898933
3	835	1881.501136100814	18.594257974192
3	838	1884.117033066116	21.166370204578
3	841	1886.291952680363	3.834242214761
3	842	1889.301088196759	4.260150978019
3	845	1895.294256602229	0
3	848	1898.255995949292	0
3	851	1913.119553731396	0
3	854	1916.947606572373	0
3	860	1934.945801855677	0
3	863	1944.800417032737	0
3	866	1957.582475281708	6.038743676692
3	869	1962.190647572055	0
3	872	1989.943338272855	0
3	875	1995.884336036208	0
3	878	2002.056261418425	1.592680513205
3	881	2004.267835654423	1.017642605938
3	884	2014.257045477032	3.349606005044
3	887	2017.303153012704	0.036909299726
3	893	2025.955543780031	0
3	900	2030.671700635974	4.421511381383
3	903	2040.475181163112	11.480237726526
3	906	2042.272974402751	13.067441002602
3	907	2042.573074142079	9.77818758813
3	908	2043.713829001337	3.087938704921
3	911	2044.968266093801	0.398285086827
3	920	2051.092164488795	5.477066623344
3	923	2053.357461322387	5.739134632181
3	926	2057.479208347455	9.804113596793
3	927	2059.500330611226	10.221823988753
3	928	2061.0114280189	8.990364838065
3	933	2065.891790164587	12.012874355295
3	936	2071.576242289692	9.643191826523
3	937	2079.94996463242	15.796417257101
3	938	2081.064013980482	12.313792988555
3	943	2082.496666893199	0.716411257139
3	946	2085.679106115885	3.714906760584
3	947	2090.651905837858	6.654829986539
3	950	2107.844581482129	0
3	953	2111.538694057014	0
3	968	2152.127239252624	8.425473865176
3	971	2162.923318210554	0
3	976	2168.536885251022	4.458867121335
3	977	2174.792341007154	9.826233583969
3	980	2177.139364210375	0
3	983	2183.062835881011	3.291742647463
3	986	2186.702562610127	0.730639211706
3	989	2191.392652329195	0
3	997	2204.451148461155	3.861390998658
3	998	2207.991887017562	6.000885502548
3	1001	2210.81382373994	0
3	1004	2216.54883369492	0.880893975603
3	1031	2267.996261033935	51.024820339101
3	1034	2273.14438152119	50.358846150474
3	1035	2273.621819193488	24.528007335282
3	1036	2276.182590622934	23.972506409117
3	1037	2276.203185394155	5.351434229485
3	1040	2279.261371273158	1.337630247596
3	1045	2288.855794517137	4.789730237088
3	1048	2292.496360164775	3.830243818837
3	1053	2297.238460552483	8.123960277612
3	1056	2299.724794730215	6.970194614503
3	1057	2300.133282197801	3.473800364633
3	1058	2301.894991882913	4.018113440495
3	1061	2313.85941372327	0
3	1064	2319.616467540876	0
3	1070	2344.407621983521	0
3	1080	2364.972667808299	10.719082621466
3	1083	2366.315940112008	6.199402948978
3	1088	2370.595198959792	7.350256216076
3	1089	2372.362286351943	7.360492701806
3	1090	2373.250880331802	6.1660466013
3	1093	2382.470085666083	14.696238783104
3	1094	2389.326436347169	10.751837391851
3	1097	2400.55978060362	10.86129215061
3	1100	2419.125378170064	3.656142817037
3	1109	2443.295380912286	0.46262259202
3	1115	2470.443226876066	0
3	1121	2498.157739472885	0
4	128	353.656308224275	32
4	129	358.187405527494	33
4	132	359.371480052689	34
4	138	371.562239600881	35
4	156	396.629665463949	36
4	176	426.876653076632	37
4	177	428.647903826976	38
4	178	430.003660052968	39
4	183	438.760195699074	40
4	184	439.023139141008	41
4	185	440.389570717442	42
4	186	441.113612893541	43
4	197	459.493155448007	44
4	200	461.761640049654	45
4	201	468.861310168858	46
4	202	469.35409678219	47
4	205	475.837773527424	48
4	232	501.923746667147	49
4	242	527.238370481105	50
4	252	545.518953854203	51
4	258	554.305712846718	52
4	259	558.186926763515	53
4	260	559.172706646988	54
4	277	592.597719118616	55
4	278	599.808354830268	56
4	279	604.464398645205	57
4	280	606.459411453671	58
4	281	607.568012606027	59
4	282	610.375440388215	60
4	283	614.730885259963	61
4	284	617.00694247899	62
4	285	621.750864803042	63
4	286	622.186272708236	64
4	287	626.712807505413	65
4	291	631.789385618437	66
4	292	631.993986599386	67
4	293	635.473602911205	68
4	294	644.177831784848	69
4	295	645.078673608477	70
4	296	647.199389273854	71
4	313	680.811249651671	72
4	317	684.71198774992	73
4	318	684.808600220827	74
4	319	685.364931486415	75
4	324	693.565406122524	76
4	330	725.31275896276	77
4	336	728.312394309411	78
4	337	737.271352322918	79
4	344	745.576152803172	80
4	345	746.491821234294	81
4	348	748.623896964881	82
4	351	755.175150284397	83
4	354	755.849748976433	84
4	363	769.709338032024	85
4	374	812.530843378195	86
4	375	816.363729368868	87
4	390	850.980851985264	88
4	391	860.626254683197	89
4	392	871.086038386089	90
4	395	878.79683226779	91
4	398	883.170043642793	92
4	401	890.143175704757	93
4	406	903.277620051	94
4	414	910.533083262889	95
4	415	910.707929588094	96
4	420	916.793230848832	97
4	424	920.237424549611	98
4	425	921.28015052306	99
4	426	925.511317828283	100
4	429	941.842680789369	101
4	464	992.446932389651	102
4	465	996.450835722652	103
4	476	1008.108766635204	104
4	482	1026.497586544224	105
4	483	1026.793883762002	106
4	486	1037.596360506341	107
4	491	1056.468817108838	108
4	492	1061.842960912376	109
4	495	1066.188498084789	110
4	496	1067.681788669768	111
4	504	1081.520468805233	112
4	505	1082.646523271964	113
4	510	1087.071511909615	114
4	511	1090.663700398247	115
4	512	1092.676182986423	116
4	513	1094.725727624268	117
4	514	1097.95000658148	118
4	521	1105.150214487631	119
4	528	1121.192890043163	120
4	529	1124.120387016282	121
4	530	1128.893574635613	122
4	539	1143.299410620909	123
4	540	1148.265705787533	124
4	541	1149.332512499533	125
4	542	1159.273623820504	126
4	543	1159.381840406215	127
4	544	1161.429440368815	128
4	547	1166.454255550552	129
4	550	1177.527350911715	130
4	553	1183.395412475341	131
4	556	1188.534374581426	132
4	557	1191.246005913729	133
4	558	1194.862148458006	134
4	564	1212.077847439403	135
4	570	1220.16010363961	136
4	576	1230.415040492244	137
4	581	1235.080320368757	138
4	584	1239.63087825766	139
4	585	1244.885585693124	140
4	597	1279.35019217639	141
4	598	1282.010443368094	142
4	606	1291.529852022954	143
4	609	1300.701778514649	144
4	613	1307.481968182336	145
4	618	1320.469686660022	146
4	624	1332.720335289933	147
4	627	1337.107520871203	148
4	639	1352.374631880715	149
4	640	1354.997940716424	150
4	641	1356.218424209908	151
4	642	1359.287070138995	152
4	650	1379.747053701747	153
4	651	1386.306088169375	154
4	657	1389.065602243659	155
4	660	1424.837276741883	156
4	666	1440.073813778187	157
4	669	1443.61074667329	158
4	675	1452.486193230989	159
4	710	1522.134516694561	160
4	711	1523.058802329151	161
4	714	1523.566413539536	162
4	715	1526.887024691094	163
4	716	1528.424935932074	164
4	717	1530.379779591679	165
4	720	1532.519875900632	166
4	726	1544.268271281434	167
4	729	1564.32082350631	168
4	749	1620.013294463013	169
4	753	1625.39600506635	170
4	760	1659.156260721308	171
4	761	1662.030003064564	172
4	766	1669.896734752134	173
4	767	1670.256762601418	174
4	768	1672.232979643717	175
4	774	1731.887766294319	176
4	777	1733.134190519889	177
4	780	1740.702191886331	178
4	783	1743.331020695634	179
4	791	1758.057199375726	180
4	792	1763.520557828644	181
4	795	1773.906075940049	182
4	798	1788.958682292379	183
4	810	1820.385007641527	184
4	819	1850.601532103562	185
4	835	1881.501136100814	186
4	842	1889.301088196759	187
4	843	1891.726928504721	188
4	846	1897.094409816257	189
4	849	1900.447071077888	190
4	852	1915.440128375008	191
4	855	1917.683089457445	192
4	861	1939.740508265728	193
4	866	1957.582475281708	194
4	867	1961.584852372065	195
4	870	1977.757207296999	196
4	873	1992.556503886501	197
4	878	2002.056261418425	198
4	881	2004.267835654423	199
4	884	2014.257045477032	200
4	887	2017.303153012704	201
4	888	2020.173724711002	202
4	900	2030.671700635974	203
4	907	2042.573074142079	204
4	908	2043.713829001337	205
4	911	2044.968266093801	206
4	920	2051.092164488795	207
4	923	2053.357461322387	208
4	927	2059.500330611226	209
4	928	2061.0114280189	210
4	937	2079.94996463242	211
4	938	2081.064013980482	212
4	946	2085.679106115885	213
4	947	2090.651905837858	214
4	948	2096.506881668954	215
4	951	2109.748021626629	216
4	954	2120.639139958416	217
4	969	2157.736548515413	218
4	976	2168.536885251022	219
4	977	2174.792341007154	220
4	978	2175.741688056251	221
4	986	2186.702562610127	222
4	987	2189.902475110911	223
4	990	2191.853345674149	224
4	998	2207.991887017562	225
4	999	2208.851397165204	226
4	1004	2216.54883369492	227
4	1034	2273.14438152119	228
4	1035	2273.621819193488	229
4	1036	2276.182590622934	230
4	1037	2276.203185394155	231
4	1048	2292.496360164775	232
4	1056	2299.724794730215	233
4	1057	2300.133282197801	234
4	1058	2301.894991882913	235
4	1059	2310.011791198579	236
4	1062	2316.996139568412	237
4	1065	2321.467685596083	238
4	1071	2344.533267347934	239
4	1083	2366.315940112008	240
4	1089	2372.362286351943	241
4	1090	2373.250880331802	242
4	1094	2389.326436347169	243
4	1097	2400.55978060362	244
4	1100	2419.125378170064	245
4	1101	2423.552781990987	246
4	1110	2456.176888060771	247
4	1116	2479.27552936794	248
5	128	353.656308224275	1
5	129	358.187405527494	0
5	131	358.869815898493	0
5	132	359.371480052689	0
5	134	363.575345481466	0
5	138	371.562239600881	0
5	140	371.895046822157	0
5	142	377.923427276587	1
5	147	384.799375128966	2
5	151	387.624054524293	3
5	156	396.629665463949	3
5	163	403.710755260551	3
5	168	409.874961089375	4
5	170	411.086407588665	5
5	172	413.4487838292	6
5	175	422.660157450908	7
5	176	426.876653076632	7
5	177	428.647903826976	6
5	178	430.003660052968	5
5	180	433.773755810936	5
5	182	436.534729798009	6
5	183	438.760195699074	6
5	184	439.023139141008	5
5	185	440.389570717442	4
5	186	441.113612893541	3
5	188	442.545318933231	3
5	195	451.500009386721	4
5	197	459.493155448007	4
5	199	460.481688671399	4
5	200	461.761640049654	4
5	201	468.861310168858	3
5	202	469.35409678219	2
5	204	472.330323151671	2
5	205	475.837773527424	2
5	207	476.290602231417	2
5	211	481.579066068344	3
5	213	484.114970847012	4
5	215	484.407203437057	5
5	219	486.835795187214	6
5	221	490.519326292506	7
5	224	492.402941934648	8
5	226	496.333474610729	9
5	228	496.562878347646	10
5	231	500.699196732436	11
5	232	501.923746667147	11
5	234	510.616588073054	11
5	236	516.403168857546	12
5	241	523.983506691155	13
5	242	527.238370481105	13
5	246	541.108139929585	13
5	249	543.897240341514	14
5	251	545.246671162031	15
5	252	545.518953854203	15
5	257	552.687457586862	15
5	258	554.305712846718	15
5	259	558.186926763515	14
5	260	559.172706646988	13
5	264	566.809527874848	13
5	266	568.72388947873	14
5	268	569.299048767503	15
5	270	573.483575902518	16
5	276	589.599508870518	17
5	277	592.597719118616	17
5	278	599.808354830268	16
5	279	604.464398645205	15
5	280	606.459411453671	14
5	281	607.568012606027	13
5	282	610.375440388215	12
5	283	614.730885259963	11
5	284	617.00694247899	10
5	285	621.750864803042	9
5	286	622.186272708236	8
5	287	626.712807505413	7
5	291	631.789385618437	6
5	292	631.993986599386	5
5	293	635.473602911205	4
5	294	644.177831784848	3
5	295	645.078673608477	2
5	296	647.199389273854	1
5	300	652.679419044099	1
5	304	663.850470122602	2
5	306	666.495816017287	3
5	309	674.178476895076	4
5	311	674.435931552021	5
5	313	680.811249651671	5
5	317	684.71198774992	4
5	318	684.808600220827	3
5	319	685.364931486415	2
5	321	685.87204359971	2
5	323	687.505858980912	3
5	324	693.565406122524	3
5	329	719.175333931076	3
5	330	725.31275896276	3
5	334	725.776027199568	3
5	336	728.312394309411	3
5	337	737.271352322918	2
5	344	745.576152803172	1
5	345	746.491821234294	0
5	347	747.679645429777	0
5	348	748.623896964881	0
5	350	752.045525628458	0
5	351	755.175150284397	0
5	353	755.63646562893	0
5	354	755.849748976433	0
5	361	765.846569810133	0
5	363	769.709338032024	0
5	371	797.929656108619	0
5	373	803.366813512402	1
5	374	812.530843378195	1
5	375	816.363729368868	0
5	377	822.021854249861	0
5	379	824.092215752893	1
5	383	825.870291983351	2
5	385	830.205306622871	3
5	390	850.980851985264	3
5	391	860.626254683197	2
5	392	871.086038386089	1
5	394	876.496529601967	1
5	395	878.79683226779	1
5	397	883.078995659064	1
5	398	883.170043642793	1
5	400	884.114224992584	1
5	401	890.143175704757	1
5	403	900.309577423501	1
5	405	902.686028552706	2
5	406	903.277620051	2
5	411	907.841458093308	2
5	413	908.22348376376	3
5	414	910.533083262889	3
5	415	910.707929588094	2
5	417	913.985896496045	2
5	419	915.511219768531	3
5	420	916.793230848832	3
5	424	920.237424549611	2
5	425	921.28015052306	1
5	426	925.511317828283	0
5	428	936.150174684048	0
5	429	941.842680789369	0
5	431	957.350522892456	0
5	437	959.537566375211	1
5	439	961.015021549476	2
5	446	973.806170987952	3
5	448	974.3337813231	4
5	451	985.733131396166	5
5	459	987.418486126761	6
5	462	989.71794444209	7
5	464	992.446932389651	7
5	465	996.450835722652	6
5	467	996.635361202879	6
5	469	997.50197745984	7
5	471	1000.614380733914	8
5	473	1002.93753941796	9
5	475	1003.139912697479	10
5	476	1008.108766635204	10
5	481	1023.453602653883	10
5	482	1026.497586544224	10
5	483	1026.793883762002	9
5	485	1027.844105341699	9
5	486	1037.596360506341	9
5	488	1040.4654648166	9
5	490	1054.46082730682	10
5	491	1056.468817108838	10
5	492	1061.842960912376	9
5	494	1065.476110816513	9
5	495	1066.188498084789	9
5	496	1067.681788669768	8
5	498	1068.776951415614	8
5	502	1073.889853321717	9
5	504	1081.520468805233	9
5	505	1082.646523271964	8
5	507	1086.223698181971	8
5	509	1087.028251520815	9
5	510	1087.071511909615	9
5	511	1090.663700398247	8
5	512	1092.676182986423	7
5	513	1094.725727624268	6
5	514	1097.95000658148	5
5	516	1100.311728835791	5
5	518	1102.937126402404	6
5	520	1103.296168715579	7
5	521	1105.150214487631	7
5	523	1105.543307395317	7
5	525	1119.230788976723	8
5	527	1120.999591853058	9
5	528	1121.192890043163	9
5	529	1124.120387016282	8
5	530	1128.893574635613	7
5	536	1132.560172564953	7
5	539	1143.299410620909	7
5	540	1148.265705787533	6
5	541	1149.332512499533	5
5	542	1159.273623820504	4
5	543	1159.381840406215	3
5	544	1161.429440368815	2
5	546	1161.96034340535	2
5	547	1166.454255550552	2
5	549	1177.195997390942	2
5	550	1177.527350911715	2
5	552	1180.081416474803	2
5	553	1183.395412475341	2
5	555	1187.617665537362	2
5	556	1188.534374581426	2
5	557	1191.246005913729	1
5	558	1194.862148458006	0
5	563	1210.932903490067	0
5	564	1212.077847439403	0
5	566	1215.469320776207	0
5	570	1220.16010363961	0
5	575	1230.212834470246	0
5	576	1230.415040492244	0
5	578	1231.567563007815	0
5	580	1233.156948895368	1
5	581	1235.080320368757	1
5	583	1237.937985927801	1
5	584	1239.63087825766	1
5	585	1244.885585693124	0
5	589	1259.516799556624	0
5	592	1270.540548658841	1
5	594	1271.320799151996	2
5	596	1274.253421360614	3
5	597	1279.35019217639	3
5	598	1282.010443368094	2
5	600	1285.152790073744	2
5	604	1289.255603578751	3
5	606	1291.529852022954	3
5	608	1299.256933405716	3
5	609	1300.701778514649	3
5	613	1307.481968182336	2
5	615	1312.449067215708	2
5	617	1316.279499870803	3
5	618	1320.469686660022	3
5	620	1327.794615258772	3
5	624	1332.720335289933	3
5	626	1333.785997853023	3
5	627	1337.107520871203	3
5	637	1348.383148723751	3
5	639	1352.374631880715	3
5	640	1354.997940716424	2
5	641	1356.218424209908	1
5	642	1359.287070138995	0
5	644	1363.842141545331	0
5	646	1367.812855524695	1
5	650	1379.747053701747	1
5	651	1386.306088169375	0
5	655	1388.144615086676	0
5	657	1389.065602243659	0
5	659	1420.952007139121	0
5	660	1424.837276741883	0
5	662	1433.410097304958	0
5	666	1440.073813778187	0
5	668	1441.499454043538	0
5	669	1443.61074667329	0
5	673	1448.430776163437	0
5	675	1452.486193230989	0
5	679	1467.099739280006	0
5	699	1501.266960067661	1
5	702	1507.19019397409	2
5	706	1511.263658676434	3
5	709	1520.234627412726	4
5	710	1522.134516694561	4
5	711	1523.058802329151	3
5	713	1523.381496563648	3
5	714	1523.566413539536	3
5	715	1526.887024691094	2
5	716	1528.424935932074	1
5	717	1530.379779591679	0
5	719	1530.680263322624	0
5	720	1532.519875900632	0
5	724	1538.93329132909	0
5	726	1544.268271281434	0
5	728	1555.691787578848	0
5	729	1564.32082350631	0
5	739	1605.705804667371	0
5	747	1619.016333639338	1
5	749	1620.013294463013	1
5	753	1625.39600506635	0
5	755	1641.110894273024	0
5	757	1646.610087463157	1
5	759	1647.9432327978	2
5	760	1659.156260721308	2
5	761	1662.030003064564	1
5	763	1662.830508195001	1
5	765	1667.699879731407	2
5	766	1669.896734752134	2
5	767	1670.256762601418	1
5	768	1672.232979643717	0
5	772	1727.060034585561	0
5	774	1731.887766294319	0
5	776	1732.575873732124	0
5	777	1733.134190519889	0
5	779	1740.131284095942	0
5	780	1740.702191886331	0
5	782	1742.088416458281	0
5	783	1743.331020695634	0
5	788	1754.713226187395	0
5	790	1754.825191949659	1
5	791	1758.057199375726	1
5	792	1763.520557828644	0
5	794	1773.115304760274	0
5	795	1773.906075940049	0
5	797	1787.885383079952	0
5	798	1788.958682292379	0
5	809	1819.757551536556	0
5	810	1820.385007641527	0
5	818	1849.952015362654	0
5	819	1850.601532103562	0
5	828	1859.97080242383	0
5	830	1862.906878126622	1
5	832	1862.950662861538	2
5	835	1881.501136100814	2
5	842	1889.301088196759	1
5	843	1891.726928504721	0
5	845	1895.294256602229	0
5	846	1897.094409816257	0
5	848	1898.255995949292	0
5	849	1900.447071077888	0
5	851	1913.119553731396	0
5	852	1915.440128375008	0
5	854	1916.947606572373	0
5	855	1917.683089457445	0
5	860	1934.945801855677	0
5	861	1939.740508265728	0
5	863	1944.800417032737	0
5	865	1951.543731605016	1
5	866	1957.582475281708	1
5	867	1961.584852372065	0
5	869	1962.190647572055	0
5	870	1977.757207296999	0
5	872	1989.943338272855	0
5	873	1992.556503886501	0
5	875	1995.884336036208	0
5	877	2000.46358090522	1
5	878	2002.056261418425	1
5	880	2003.250193048485	1
5	881	2004.267835654423	1
5	883	2010.907439471988	1
5	884	2014.257045477032	1
5	886	2017.266243712978	1
5	887	2017.303153012704	1
5	888	2020.173724711002	0
5	893	2025.955543780031	0
5	895	2026.250189254591	1
5	897	2028.994943436586	2
5	899	2029.205533400149	3
5	900	2030.671700635974	3
5	907	2042.573074142079	2
5	908	2043.713829001337	1
5	910	2044.569981006974	1
5	911	2044.968266093801	1
5	913	2045.615097865451	1
5	915	2047.618326690206	2
5	917	2047.675094750662	3
5	919	2049.278506622473	4
5	920	2051.092164488795	4
5	922	2052.021063180835	4
5	923	2053.357461322387	4
5	927	2059.500330611226	3
5	928	2061.0114280189	2
5	930	2061.933050463169	2
5	937	2079.94996463242	2
5	938	2081.064013980482	1
5	942	2081.964199355301	1
5	945	2083.997075851319	2
5	946	2085.679106115885	2
5	947	2090.651905837858	1
5	948	2096.506881668954	0
5	950	2107.844581482129	0
5	951	2109.748021626629	0
5	953	2111.538694057014	0
5	954	2120.639139958416	0
5	963	2143.701765387448	0
5	969	2157.736548515413	0
5	971	2162.923318210554	0
5	973	2164.078018129687	1
5	975	2164.966107423185	2
5	976	2168.536885251022	2
5	977	2174.792341007154	1
5	978	2175.741688056251	0
5	980	2177.139364210375	0
5	985	2185.971923398421	1
5	986	2186.702562610127	1
5	987	2189.902475110911	0
5	989	2191.392652329195	0
5	990	2191.853345674149	0
5	994	2200.589757462497	0
5	996	2201.991001515014	1
5	998	2207.991887017562	1
5	999	2208.851397165204	0
5	1001	2210.81382373994	0
5	1003	2215.667939719317	1
5	1004	2216.54883369492	1
5	1008	2222.785535370716	1
5	1024	2249.093811858206	2
5	1026	2252.210084213817	3
5	1033	2270.85175116467	4
5	1034	2273.14438152119	4
5	1035	2273.621819193488	3
5	1036	2276.182590622934	2
5	1037	2276.203185394155	1
5	1042	2284.066064280049	1
5	1047	2289.114500274871	2
5	1048	2292.496360164775	2
5	1050	2292.754600115712	2
5	1055	2297.876878442418	3
5	1056	2299.724794730215	3
5	1057	2300.133282197801	2
5	1058	2301.894991882913	1
5	1059	2310.011791198579	0
5	1061	2313.85941372327	0
5	1062	2316.996139568412	0
5	1064	2319.616467540876	0
5	1065	2321.467685596083	0
5	1070	2344.407621983521	0
5	1071	2344.533267347934	0
5	1075	2354.253585186833	0
5	1077	2360.11653716303	1
5	1079	2363.244942743716	2
5	1082	2365.001793650137	3
5	1083	2366.315940112008	3
5	1085	2367.084833730502	3
5	1089	2372.362286351943	3
5	1090	2373.250880331802	2
5	1094	2389.326436347169	1
5	1096	2389.69848845301	1
5	1097	2400.55978060362	1
5	1099	2415.469235353027	1
5	1100	2419.125378170064	1
5	1101	2423.552781990987	0
5	1108	2442.832758320266	0
5	1110	2456.176888060771	0
5	1115	2470.443226876066	0
5	1116	2479.27552936794	0
5	1121	2498.157739472885	0
6	128	353.656308224275	5.375689865367
6	129	358.187405527494	9.766711255971
6	132	359.371480052689	0.501664154196
6	138	371.562239600881	4.655499000461
6	156	396.629665463949	11.830290334983
6	176	426.876653076632	39.252598552339
6	177	428.647903826976	38.898781257127
6	178	430.003660052968	30.454071253546
6	183	438.760195699074	35.049440438523
6	184	439.023139141008	29.148178051633
6	185	440.389570717442	29.303163128777
6	186	441.113612893541	27.664829064341
6	197	459.493155448007	22.958425649998
6	200	461.761640049654	19.216321116423
6	201	468.861310168858	25.044077611196
6	202	469.35409678219	23.986122920108
6	205	475.837773527424	24.337764140703
6	232	501.923746667147	29.593423515476
6	242	527.238370481105	49.234898789752
6	252	545.518953854203	61.403983007191
6	258	554.305712846718	67.469917659504
6	259	558.186926763515	67.667600471009
6	260	559.172706646988	66.76976471234
6	277	592.597719118616	91.89852238618
6	278	599.808354830268	89.191766757214
6	279	604.464398645205	88.061229787659
6	280	606.459411453671	88.957269988692
6	281	607.568012606027	83.584505914872
6	282	610.375440388215	81.332774082466
6	283	614.730885259963	73.622745330378
6	284	617.00694247899	73.109702137476
6	285	621.750864803042	76.504193641011
6	286	622.186272708236	72.462864768975
6	287	626.712807505413	74.025349918551
6	291	631.789385618437	64.979857743589
6	292	631.993986599386	63.270097120656
6	293	635.473602911205	66.174554143702
6	294	644.177831784848	70.69425588233
6	295	645.078673608477	58.808157947718
6	296	647.199389273854	57.599880403336
6	313	680.811249651671	33.457454348318
6	317	684.71198774992	20.861517627318
6	318	684.808600220827	18.31278420354
6	319	685.364931486415	11.186454591339
6	324	693.565406122524	19.129474570503
6	330	725.31275896276	39.44071536305
6	336	728.312394309411	30.870017348855
6	337	737.271352322918	18.096018391842
6	344	745.576152803172	19.800125603604
6	345	746.491821234294	7.991351290926
6	348	748.623896964881	0.944251535104
6	351	755.175150284397	3.129624655939
6	354	755.849748976433	0.213283347503
6	363	769.709338032024	3.862768221891
6	374	812.530843378195	14.601187269576
6	375	816.363729368868	12.996915856466
6	390	850.980851985264	25.253416148913
6	391	860.626254683197	34.755962699846
6	392	871.086038386089	40.880731763218
6	395	878.79683226779	37.128593474512
6	398	883.170043642793	6.673514040826
6	401	890.143175704757	7.064180045693
6	406	903.277620051	19.163395058416
6	414	910.533083262889	7.847054710183
6	415	910.707929588094	4.477748956781
6	420	916.793230848832	8.951772755524
6	424	920.237424549611	6.251528053566
6	425	921.28015052306	5.768930754529
6	426	925.511317828283	7.181864193439
6	429	941.842680789369	5.692506105321
6	464	992.446932389651	32.90936601444
6	465	996.450835722652	35.435814173176
6	476	1008.108766635204	34.302595647252
6	482	1026.497586544224	40.764455148058
6	483	1026.793883762002	40.210451652231
6	486	1037.596360506341	50.17787437958
6	491	1056.468817108838	66.750872666748
6	492	1061.842960912376	65.207599709497
6	495	1066.188498084789	68.686520624949
6	496	1067.681788669768	67.067407935854
6	504	1081.520468805233	78.380556107754
6	505	1082.646523271964	73.987651865154
6	510	1087.071511909615	63.617909255732
6	511	1090.663700398247	62.819595056548
6	512	1092.676182986423	52.210718169823
6	513	1094.725727624268	40.264900317448
6	514	1097.95000658148	32.473895764967
6	521	1105.150214487631	36.373263072017
6	528	1121.192890043163	51.037710315274
6	529	1124.120387016282	50.230533694565
6	530	1128.893574635613	42.669876453642
6	539	1143.299410620909	42.987681785118
6	540	1148.265705787533	45.328579385129
6	541	1149.332512499533	46.036343783954
6	542	1159.273623820504	53.730316425187
6	543	1159.381840406215	40.151051429492
6	544	1161.429440368815	40.429848515757
6	547	1166.454255550552	36.037955270963
6	550	1177.527350911715	44.967178346762
6	553	1183.395412475341	21.435069069991
6	556	1188.534374581426	11.338377190484
6	557	1191.246005913729	11.164589438926
6	558	1194.862148458006	7.244482920644
6	564	1212.077847439403	1.144943949336
6	570	1220.16010363961	3.543171754786
6	576	1230.415040492244	0.202206021998
6	581	1235.080320368757	3.512757360942
6	584	1239.63087825766	6.473929362292
6	585	1244.885585693124	6.947599765323
6	597	1279.35019217639	19.833392619766
6	598	1282.010443368094	11.469894709253
6	606	1291.529852022954	17.27643066234
6	609	1300.701778514649	15.548988440905
6	613	1307.481968182336	18.226364603585
6	618	1320.469686660022	21.212753254306
6	624	1332.720335289933	20.271268074225
6	627	1337.107520871203	20.8280210004
6	639	1352.374631880715	23.465532300463
6	640	1354.997940716424	21.211942863401
6	641	1356.218424209908	18.830094126773
6	642	1359.287070138995	10.903921415244
6	650	1379.747053701747	11.934198177052
6	651	1386.306088169375	11.506964117723
6	657	1389.065602243659	0.920987156983
6	660	1424.837276741883	3.885269602762
6	666	1440.073813778187	1.401348651562
6	669	1443.61074667329	2.111292629752
6	675	1452.486193230989	4.055417067552
6	710	1522.134516694561	20.8675566269
6	711	1523.058802329151	15.868608355061
6	714	1523.566413539536	14.708937603457
6	715	1526.887024691094	15.62336601466
6	716	1528.424935932074	8.190308519348
6	717	1530.379779591679	6.998283028031
6	720	1532.519875900632	1.839612578008
6	726	1544.268271281434	5.334979952344
6	729	1564.32082350631	8.629035927462
6	749	1620.013294463013	11.084677965323
6	753	1625.39600506635	2.955770916811
6	760	1659.156260721308	18.045366448284
6	761	1662.030003064564	15.419915601407
6	766	1669.896734752134	21.953501954334
6	767	1670.256762601418	7.426254406417
6	768	1672.232979643717	4.53309991231
6	774	1731.887766294319	4.827731708758
6	777	1733.134190519889	0.558316787765
6	780	1740.702191886331	0.570907790389
6	783	1743.331020695634	1.242604237353
6	791	1758.057199375726	3.343973188331
6	792	1763.520557828644	8.695365878985
6	795	1773.906075940049	0.790771179775
6	798	1788.958682292379	1.073299212427
6	810	1820.385007641527	0.627456104971
6	819	1850.601532103562	0.649516740908
6	835	1881.501136100814	21.530333676984
6	842	1889.301088196759	6.843377731157
6	843	1891.726928504721	6.685991285981
6	846	1897.094409816257	1.800153214028
6	849	1900.447071077888	2.191075128596
6	852	1915.440128375008	2.320574643612
6	855	1917.683089457445	0.735482885072
6	861	1939.740508265728	4.794706410051
6	866	1957.582475281708	12.782058248971
6	867	1961.584852372065	10.041120767049
6	870	1977.757207296999	15.566559724944
6	873	1992.556503886501	2.613165613646
6	878	2002.056261418425	6.171925382217
6	881	2004.267835654423	3.804254749203
6	884	2014.257045477032	11.006852428547
6	887	2017.303153012704	6.395713540716
6	888	2020.173724711002	2.907480998024
6	900	2030.671700635974	4.716156855943
6	907	2042.573074142079	13.36754074193
6	908	2043.713829001337	10.918942447388
6	911	2044.968266093801	4.342375797385
6	920	2051.092164488795	6.522183481821
6	923	2053.357461322387	7.742363456936
6	927	2059.500330611226	11.825235860564
6	928	2061.0114280189	11.732921396427
6	937	2079.94996463242	18.016914169251
6	938	2081.064013980482	16.910466605163
6	946	2085.679106115885	3.898850479825
6	947	2090.651905837858	8.687706482557
6	948	2096.506881668954	12.509805817635
6	951	2109.748021626629	1.9034401445
6	954	2120.639139958416	9.100445901402
6	969	2157.736548515413	14.034783127965
6	976	2168.536885251022	5.613567040468
6	977	2174.792341007154	10.714322877467
6	978	2175.741688056251	10.775580633066
6	986	2186.702562610127	6.931469376579
6	987	2189.902475110911	3.93055171249
6	990	2191.853345674149	0.460693344954
6	998	2207.991887017562	7.402129555065
6	999	2208.851397165204	6.86039565019
6	1004	2216.54883369492	5.73500995498
6	1034	2273.14438152119	56.172940826356
6	1035	2273.621819193488	50.836283822772
6	1036	2276.182590622934	27.088778764728
6	1037	2276.203185394155	23.993101180338
6	1048	2292.496360164775	8.430295884726
6	1056	2299.724794730215	10.610294455344
6	1057	2300.133282197801	7.378682082089
6	1058	2301.894991882913	5.235510049745
6	1059	2310.011791198579	12.134912756161
6	1062	2316.996139568412	3.136725845142
6	1065	2321.467685596083	1.851218055207
6	1071	2344.533267347934	0.125645364413
6	1083	2366.315940112008	12.062354925175
6	1089	2372.362286351943	9.117343608227
6	1090	2373.250880331802	8.249086681665
6	1094	2389.326436347169	21.55258946419
6	1097	2400.55978060362	21.985181648302
6	1100	2419.125378170064	29.426889717054
6	1101	2423.552781990987	8.08354663796
6	1110	2456.176888060771	13.344129740505
6	1116	2479.27552936794	8.832302491874
7	131	358.869815898493	1
7	134	363.575345481466	1
7	140	371.895046822157	1
7	142	377.923427276587	2
7	147	384.799375128966	3
7	151	387.624054524293	4
7	163	403.710755260551	4
7	168	409.874961089375	5
7	170	411.086407588665	6
7	172	413.4487838292	7
7	175	422.660157450908	8
7	180	433.773755810936	6
7	182	436.534729798009	7
7	188	442.545318933231	4
7	195	451.500009386721	5
7	199	460.481688671399	5
7	204	472.330323151671	3
7	207	476.290602231417	3
7	211	481.579066068344	4
7	213	484.114970847012	5
7	215	484.407203437057	6
7	219	486.835795187214	7
7	221	490.519326292506	8
7	224	492.402941934648	9
7	226	496.333474610729	10
7	228	496.562878347646	11
7	231	500.699196732436	12
7	234	510.616588073054	12
7	236	516.403168857546	13
7	241	523.983506691155	14
7	246	541.108139929585	14
7	249	543.897240341514	15
7	251	545.246671162031	16
7	257	552.687457586862	16
7	264	566.809527874848	14
7	266	568.72388947873	15
7	268	569.299048767503	16
7	270	573.483575902518	17
7	276	589.599508870518	18
7	300	652.679419044099	2
7	304	663.850470122602	3
7	306	666.495816017287	4
7	309	674.178476895076	5
7	311	674.435931552021	6
7	321	685.87204359971	3
7	323	687.505858980912	4
7	329	719.175333931076	4
7	334	725.776027199568	4
7	347	747.679645429777	1
7	350	752.045525628458	1
7	353	755.63646562893	1
7	361	765.846569810133	1
7	371	797.929656108619	1
7	373	803.366813512402	2
7	377	822.021854249861	1
7	379	824.092215752893	2
7	383	825.870291983351	3
7	385	830.205306622871	4
7	394	876.496529601967	2
7	397	883.078995659064	2
7	400	884.114224992584	2
7	403	900.309577423501	2
7	405	902.686028552706	3
7	411	907.841458093308	3
7	413	908.22348376376	4
7	417	913.985896496045	3
7	419	915.511219768531	4
7	428	936.150174684048	1
7	431	957.350522892456	1
7	437	959.537566375211	2
7	439	961.015021549476	3
7	446	973.806170987952	4
7	448	974.3337813231	5
7	451	985.733131396166	6
7	459	987.418486126761	7
7	462	989.71794444209	8
7	467	996.635361202879	7
7	469	997.50197745984	8
7	471	1000.614380733914	9
7	473	1002.93753941796	10
7	475	1003.139912697479	11
7	481	1023.453602653883	11
7	485	1027.844105341699	10
7	488	1040.4654648166	10
7	490	1054.46082730682	11
7	494	1065.476110816513	10
7	498	1068.776951415614	9
7	502	1073.889853321717	10
7	507	1086.223698181971	9
7	509	1087.028251520815	10
7	516	1100.311728835791	6
7	518	1102.937126402404	7
7	520	1103.296168715579	8
7	523	1105.543307395317	8
7	525	1119.230788976723	9
7	527	1120.999591853058	10
7	536	1132.560172564953	8
7	546	1161.96034340535	3
7	549	1177.195997390942	3
7	552	1180.081416474803	3
7	555	1187.617665537362	3
7	563	1210.932903490067	1
7	566	1215.469320776207	1
7	575	1230.212834470246	1
7	578	1231.567563007815	1
7	580	1233.156948895368	2
7	583	1237.937985927801	2
7	589	1259.516799556624	1
7	592	1270.540548658841	2
7	594	1271.320799151996	3
7	596	1274.253421360614	4
7	600	1285.152790073744	3
7	604	1289.255603578751	4
7	608	1299.256933405716	4
7	615	1312.449067215708	3
7	617	1316.279499870803	4
7	620	1327.794615258772	4
7	626	1333.785997853023	4
7	637	1348.383148723751	4
7	644	1363.842141545331	1
7	646	1367.812855524695	2
7	655	1388.144615086676	1
7	659	1420.952007139121	1
7	662	1433.410097304958	1
7	668	1441.499454043538	1
7	673	1448.430776163437	1
7	679	1467.099739280006	1
7	699	1501.266960067661	2
7	702	1507.19019397409	3
7	706	1511.263658676434	4
7	709	1520.234627412726	5
7	713	1523.381496563648	4
7	719	1530.680263322624	1
7	724	1538.93329132909	1
7	728	1555.691787578848	1
7	739	1605.705804667371	1
7	747	1619.016333639338	2
7	755	1641.110894273024	1
7	757	1646.610087463157	2
7	759	1647.9432327978	3
7	763	1662.830508195001	2
7	765	1667.699879731407	3
7	772	1727.060034585561	1
7	776	1732.575873732124	1
7	779	1740.131284095942	1
7	782	1742.088416458281	1
7	788	1754.713226187395	1
7	790	1754.825191949659	2
7	794	1773.115304760274	1
7	797	1787.885383079952	1
7	809	1819.757551536556	1
7	818	1849.952015362654	1
7	828	1859.97080242383	1
7	830	1862.906878126622	2
7	832	1862.950662861538	3
7	845	1895.294256602229	1
7	848	1898.255995949292	1
7	851	1913.119553731396	1
7	854	1916.947606572373	1
7	860	1934.945801855677	1
7	863	1944.800417032737	1
7	865	1951.543731605016	2
7	869	1962.190647572055	1
7	872	1989.943338272855	1
7	875	1995.884336036208	1
7	877	2000.46358090522	2
7	880	2003.250193048485	2
7	883	2010.907439471988	2
7	886	2017.266243712978	2
7	893	2025.955543780031	1
7	895	2026.250189254591	2
7	897	2028.994943436586	3
7	899	2029.205533400149	4
7	910	2044.569981006974	2
7	913	2045.615097865451	2
7	915	2047.618326690206	3
7	917	2047.675094750662	4
7	919	2049.278506622473	5
7	922	2052.021063180835	5
7	930	2061.933050463169	3
7	942	2081.964199355301	2
7	945	2083.997075851319	3
7	950	2107.844581482129	1
7	953	2111.538694057014	1
7	963	2143.701765387448	1
7	971	2162.923318210554	1
7	973	2164.078018129687	2
7	975	2164.966107423185	3
7	980	2177.139364210375	1
7	985	2185.971923398421	2
7	989	2191.392652329195	1
7	994	2200.589757462497	1
7	996	2201.991001515014	2
7	1001	2210.81382373994	1
7	1003	2215.667939719317	2
7	1008	2222.785535370716	2
7	1024	2249.093811858206	3
7	1026	2252.210084213817	4
7	1033	2270.85175116467	5
7	1042	2284.066064280049	2
7	1047	2289.114500274871	3
7	1050	2292.754600115712	3
7	1055	2297.876878442418	4
7	1061	2313.85941372327	1
7	1064	2319.616467540876	1
7	1070	2344.407621983521	1
7	1075	2354.253585186833	1
7	1077	2360.11653716303	2
7	1079	2363.244942743716	3
7	1082	2365.001793650137	4
7	1085	2367.084833730502	4
7	1096	2389.69848845301	2
7	1099	2415.469235353027	2
7	1108	2442.832758320266	1
7	1115	2470.443226876066	1
7	1121	2498.157739472885	1
8	136	366.90674060042	1
8	144	381.784833013177	1
8	149	386.250875507134	1
8	154	389.749122569849	1
8	158	399.549588799422	1
8	160	402.504371015353	2
8	165	408.499009690112	2
8	190	443.817232557662	1
8	193	445.367973862082	1
8	209	478.003471691353	1
8	217	484.600153220399	2
8	238	517.502141464979	1
8	244	529.042666305749	1
8	254	549.723407939261	1
8	262	562.927292449865	1
8	273	586.270515660759	1
8	289	626.843884536897	1
8	298	647.353795303353	1
8	302	662.438482297379	2
8	315	680.919630399863	1
8	326	697.442376960556	1
8	332	725.763040227324	1
8	339	738.500469943368	1
8	341	739.177665474985	2
8	356	762.526755291277	1
8	359	765.313687185756	1
8	365	779.370713826155	1
8	368	791.075455498199	1
8	381	825.727435836351	1
8	388	841.668238793278	1
8	408	906.230180631313	1
8	422	918.329453634844	1
8	433	957.388344174164	1
8	435	957.723820241117	2
8	441	965.1212364791	3
8	444	970.625671301786	3
8	455	986.583432109771	1
8	457	987.393290059605	2
8	478	1008.65887140681	1
8	500	1070.155179727889	1
8	532	1130.416300279589	1
8	534	1132.048297238397	2
8	560	1205.642446634233	1
8	568	1216.616931884824	1
8	572	1228.520457625003	1
8	587	1254.734196931696	1
8	602	1286.850380159512	1
8	611	1302.844015444965	1
8	622	1328.909099580252	1
8	629	1337.388330083135	1
8	631	1339.233828183082	2
8	634	1343.29505004117	2
8	648	1374.799124051652	1
8	653	1387.35074829731	1
8	664	1438.672465126625	1
8	671	1446.386407934709	1
8	677	1465.471776737086	1
8	681	1472.526123282645	2
8	683	1477.260476761024	3
8	685	1478.758750500482	4
8	689	1484.290723402252	3
8	693	1490.187265864041	2
8	697	1500.847975289427	1
8	704	1508.857475936079	1
8	722	1534.984185702364	1
8	731	1584.596546818588	1
8	733	1584.900654196861	2
8	737	1604.854966012996	1
8	742	1608.92861649769	1
8	744	1610.735235706327	2
8	751	1622.440234149539	1
8	770	1725.797566812866	1
8	785	1744.043509672546	1
8	800	1790.574625413366	1
8	802	1793.295441535686	2
8	804	1796.601928198126	3
8	812	1830.0117169173	1
8	815	1848.743132659626	1
8	821	1853.658041950659	1
8	824	1855.784039861942	1
8	826	1857.679617678275	2
8	837	1882.457710465602	1
8	840	1885.04093721874	1
8	857	1925.63764088096	1
8	890	2022.200134446936	1
8	902	2032.794886553949	1
8	905	2040.625890296416	1
8	925	2053.878915809292	1
8	932	2064.153547375319	1
8	935	2068.750220991927	1
8	940	2081.78025563606	1
8	956	2126.915847722145	1
8	959	2137.731399979001	1
8	961	2139.643418030477	2
8	966	2146.629260054248	2
8	982	2179.771093233548	1
8	992	2196.627595088498	1
8	1006	2216.971440694834	1
8	1010	2226.000127713074	2
8	1013	2228.447023846671	2
8	1016	2234.20252635727	2
8	1019	2237.414483346714	2
8	1022	2249.077865559208	2
8	1028	2259.534430219018	3
8	1039	2277.923741025562	1
8	1044	2288.666116345938	1
8	1052	2296.659481833168	1
8	1067	2330.015315462675	1
8	1073	2350.915731692075	1
8	1087	2367.773846882979	1
8	1092	2378.574598955318	1
8	1103	2425.11642804679	1
8	1106	2431.98697731575	1
8	1112	2458.246234532336	1
8	1118	2481.626538504285	1
9	136	366.90674060042	5
9	144	381.784833013177	6
9	149	386.250875507134	7
9	154	389.749122569849	8
9	158	399.549588799422	9
9	190	443.817232557662	10
9	193	445.367973862082	11
9	209	478.003471691353	12
9	238	517.502141464979	13
9	244	529.042666305749	14
9	254	549.723407939261	15
9	262	562.927292449865	16
9	273	586.270515660759	17
9	289	626.843884536897	18
9	298	647.353795303353	19
9	315	680.919630399863	20
9	326	697.442376960556	21
9	332	725.763040227324	22
9	339	738.500469943368	23
9	381	825.727435836351	24
9	388	841.668238793278	25
9	408	906.230180631313	26
9	422	918.329453634844	27
9	433	957.388344174164	28
9	455	986.583432109771	29
9	478	1008.65887140681	30
9	500	1070.155179727889	31
9	532	1130.416300279589	32
9	568	1216.616931884824	33
9	602	1286.850380159512	34
9	611	1302.844015444965	35
9	622	1328.909099580252	36
9	629	1337.388330083135	37
9	648	1374.799124051652	38
9	664	1438.672465126625	39
9	697	1500.847975289427	40
9	704	1508.857475936079	41
9	742	1608.92861649769	42
9	751	1622.440234149539	43
9	837	1882.457710465602	44
9	840	1885.04093721874	45
9	902	2032.794886553949	46
9	905	2040.625890296416	47
9	925	2053.878915809292	48
9	932	2064.153547375319	49
9	935	2068.750220991927	50
9	940	2081.78025563606	51
9	982	2179.771093233548	52
9	1006	2216.971440694834	53
9	1039	2277.923741025562	54
9	1044	2288.666116345938	55
9	1052	2296.659481833168	56
9	1087	2367.773846882979	57
9	1092	2378.574598955318	58
10	136	366.90674060042	0
10	144	381.784833013177	0
10	149	386.250875507134	0
10	154	389.749122569849	0
10	158	399.549588799422	0
10	161	402.737637913654	0.233266898301
10	166	408.624733434725	0.125723744613
10	190	443.817232557662	0
10	193	445.367973862082	0
10	209	478.003471691353	0
10	222	491.208080440856	6.607927220457
10	238	517.502141464979	0
10	244	529.042666305749	0
10	254	549.723407939261	0
10	262	562.927292449865	0
10	273	586.270515660759	0
10	289	626.843884536897	0
10	298	647.353795303353	0
10	307	670.723578604228	8.285096306849
10	315	680.919630399863	0
10	326	697.442376960556	0
10	332	725.763040227324	0
10	339	738.500469943368	0
10	342	743.445396081465	4.26773060648
10	356	762.526755291277	0
10	359	765.313687185756	0
10	365	779.370713826155	0
10	368	791.075455498199	0
10	381	825.727435836351	0
10	388	841.668238793278	0
10	408	906.230180631313	0
10	422	918.329453634844	0
10	433	957.388344174164	0
10	442	967.036509870337	9.31268962922
10	449	979.535164316384	14.413927837284
10	452	985.903815938265	15.278144636479
10	455	986.583432109771	0
10	460	988.338128105498	0.944838045893
10	478	1008.65887140681	0
10	500	1070.155179727889	0
10	532	1130.416300279589	0
10	537	1139.714634503136	7.666337264739
10	560	1205.642446634233	0
10	568	1216.616931884824	0
10	572	1228.520457625003	0
10	587	1254.734196931696	0
10	602	1286.850380159512	0
10	611	1302.844015444965	0
10	622	1328.909099580252	0
10	629	1337.388330083135	0
10	632	1339.287136685094	0.053308502012
10	635	1344.837227144822	1.542177103652
10	648	1374.799124051652	0
10	653	1387.35074829731	0
10	664	1438.672465126625	0
10	671	1446.386407934709	0
10	677	1465.471776737086	0
10	686	1478.949636779415	6.42351349677
10	687	1482.591348890473	5.330872129449
10	690	1486.506196963334	7.747446462852
10	691	1487.606741166596	3.316017764344
10	694	1492.892517735359	2.705251871318
10	697	1500.847975289427	0
10	704	1508.857475936079	0
10	722	1534.984185702364	0
10	731	1584.596546818588	0
10	734	1586.682487701251	1.78183350439
10	737	1604.854966012996	0
10	742	1608.92861649769	0
10	745	1618.342886963525	7.607651257198
10	751	1622.440234149539	0
10	770	1725.797566812866	0
10	785	1744.043509672546	0
10	800	1790.574625413366	0
10	805	1799.283103134452	5.987661598766
10	806	1805.564066981363	8.962138783237
10	812	1830.0117169173	0
10	815	1848.743132659626	0
10	821	1853.658041950659	0
10	824	1855.784039861942	0
10	833	1867.449406894151	9.769789215876
10	837	1882.457710465602	0
10	840	1885.04093721874	0
10	857	1925.63764088096	0
10	890	2022.200134446936	0
10	902	2032.794886553949	0
10	905	2040.625890296416	0
10	925	2053.878915809292	0
10	932	2064.153547375319	0
10	935	2068.750220991927	0
10	940	2081.78025563606	0
10	956	2126.915847722145	0
10	959	2137.731399979001	0
10	964	2144.149389840911	4.505971810434
10	967	2150.990240334434	4.360980280186
10	982	2179.771093233548	0
10	992	2196.627595088498	0
10	1006	2216.971440694834	0
10	1011	2226.298265108195	0.298137395121
10	1014	2232.71509264011	4.268068793439
10	1017	2236.032001334797	1.829474977527
10	1020	2238.160191188217	0.745707841503
10	1029	2264.653422187359	15.575556628151
10	1030	2265.89077686342	6.356346644402
10	1039	2277.923741025562	0
10	1044	2288.666116345938	0
10	1052	2296.659481833168	0
10	1067	2330.015315462675	0
10	1073	2350.915731692075	0
10	1087	2367.773846882979	0
10	1092	2378.574598955318	0
10	1103	2425.11642804679	0
10	1106	2431.98697731575	0
10	1112	2458.246234532336	0
10	1118	2481.626538504285	0
11	1122	2500	0.0992
12	1122	2500	0.05

