file 62569 1678524084                                           
version 2
run experiments_medium_game_mode1-421-20230311-09:41:24-10789
attr configname experiments_medium_game_mode1
attr datetime 20230311-09:41:24
attr experiment experiments_medium_game_mode1
attr inifile omnetpp.ini
attr iterationvars "$0=5.5, $1=5, $2=0"
attr iterationvarsf 5.5,5,0-
attr measurement "$0=5.5, $1=5, $2=0"
attr network Network
attr processid 10789
attr repetition 1
attr replication #1
attr resultdir results
attr runnumber 421
attr seedset 1
param *.boss.arrival_mean 20
param *.boss.service_mean 5.5
param *.minion.arrival_mean 10
param *.minion.service_mean 5
param *.player.recover_rate_x 0
param **.minion.arrival_distribution 0
param **.minion.service_distribution 0
param **.boss.arrival_distribution 0
param **.boss.service_distribution 0

vector 0 Network.player minion_jobs_number_stat:vector ETV
attr source signal_minion_jobs_number
vector 1 Network.player minion_jobs_queue_number_stat:vector ETV
attr source signal_minion_jobs_queue_number
vector 2 Network.player minion_waiting_time_stat:vector ETV
attr source signal_minion_waiting_time
vector 3 Network.player minion_defeated_stat:vector ETV
attr source signal_minion_defeated
vector 4 Network.player minion_response_time_stat:vector ETV
attr source signal_minion_response_time
vector 5 Network.player boss_jobs_number_stat:vector ETV
attr source signal_boss_jobs_number
vector 6 Network.player boss_jobs_queue_number_stat:vector ETV
attr source signal_boss_jobs_queue_number
vector 7 Network.player minion_recovered_stat:vector ETV
attr source signal_minion_recovered
vector 8 Network.player boss_waiting_time_stat:vector ETV
attr source signal_boss_waiting_time
vector 9 Network.player boss_defeated_stat:vector ETV
attr source signal_boss_defeated
vector 10 Network.player boss_response_time_stat:vector ETV
attr source signal_boss_response_time
vector 11 Network.player minion_throughput:vector ETV
attr source signal_minion_throughput
vector 12 Network.player boss_throughput:vector ETV
attr source signal_boss_throughput
0	2016 5716 134 1089 354.557151855681 2480.108407740282 222 1 17 992 7704
1	7732 11358 134 1089 354.557151855681 2480.108407740282 441 0 16 1537 11879
2	19090 10217 134 1092 354.557151855681 2484.708070596515 276 0 85.609452317856 6257.4351410034 287808.62603193
3	29307 5987 135 1085 355.418868568985 2478.078510670566 219 27 245 29784 4925894
4	35294 8594 135 1085 355.418868568985 2478.078510670566 219 0.062232742601 88.779019343037 5945.9713095596 279954.05477884
5	43888 2579 141 1094 369.375255317272 2496.852317827315 100 1 4 120 168
6	46467 5129 141 1094 369.375255317272 2496.852317827315 199 0 3 40 56
7	51596 1526 141 1094 369.375255317272 2496.852317827315 57 8 64 2052 89300
8	53122 2802 141 1094 369.375255317272 2496.852317827315 100 0 21.845058296189 102.015264688 1183.3508035422
9	55924 2667 144 1092 373.186272445956 2484.708070596515 99 19 117 6732 538626
10	58591 3938 144 1092 373.186272445956 2484.708070596515 99 0.00785344053 34.874412424336 607.67862125827 7184.3014503871
11	62529 19 1095 1095 2500 2500 1 0.098 0.098 0.098 0.009604
12	62548 20 1095 1095 2500 2500 1 0.0468 0.0468 0.0468 0.00219024

