version 2
run experiments_medium_game_mode1-1172-20230311-09:44:04-14551
attr configname experiments_medium_game_mode1
attr datetime 20230311-09:44:04
attr experiment experiments_medium_game_mode1
attr inifile omnetpp.ini
attr iterationvars "$0=6.5, $1=7, $2=100"
attr iterationvarsf 6.5,7,100-
attr measurement "$0=6.5, $1=7, $2=100"
attr network Network
attr processid 14551
attr repetition 2
attr replication #2
attr resultdir results
attr runnumber 1172
attr seedset 2
param *.boss.arrival_mean 20
param *.boss.service_mean 6.5
param *.minion.arrival_mean 10
param *.minion.service_mean 7
param *.player.recover_rate_x 100
param **.minion.arrival_distribution 0
param **.minion.service_distribution 0
param **.boss.arrival_distribution 0
param **.boss.service_distribution 0

vector 0 Network.player minion_defeated_stat:vector ETV
attr source signal_minion_defeated
vector 1 Network.player minion_jobs_queue_number_stat:vector ETV
attr source signal_minion_jobs_queue_number
vector 2 Network.player minion_response_time_stat:vector ETV
attr source signal_minion_response_time
vector 3 Network.player minion_waiting_time_stat:vector ETV
attr source signal_minion_waiting_time
vector 4 Network.player minion_jobs_number_stat:vector ETV
attr source signal_minion_jobs_number
vector 5 Network.player boss_jobs_number_stat:vector ETV
attr source signal_boss_jobs_number
vector 6 Network.player boss_jobs_queue_number_stat:vector ETV
attr source signal_boss_jobs_queue_number
vector 7 Network.player minion_recovered_stat:vector ETV
attr source signal_minion_recovered
vector 8 Network.player boss_waiting_time_stat:vector ETV
attr source signal_boss_waiting_time
vector 9 Network.player boss_defeated_stat:vector ETV
attr source signal_boss_defeated
vector 10 Network.player boss_response_time_stat:vector ETV
attr source signal_boss_response_time
vector 11 Network.player minion_throughput:vector ETV
attr source signal_minion_throughput
vector 12 Network.player boss_throughput:vector ETV
attr source signal_boss_throughput
0	159	357.470580046104	25
0	162	366.757731303152	26
0	163	367.034364770986	27
0	167	378.113660944583	28
0	172	386.577694617218	29
0	179	392.5305572327	30
0	182	393.549178964794	31
0	199	445.880195795604	32
0	206	453.575361858164	33
0	224	496.644786274946	34
0	225	502.200786225737	35
0	244	543.852267004313	36
0	247	550.803543960742	37
0	253	561.313539325284	38
0	254	567.138307694027	39
0	255	579.333913191537	40
0	256	586.477081569938	41
0	257	590.864253122812	42
0	287	660.154156152376	43
0	288	671.552352762573	44
0	304	692.812500031903	45
0	312	708.53738990666	46
0	313	715.782387346112	47
0	314	716.554670122561	48
0	318	720.820358178409	49
0	326	726.539927787607	50
0	329	736.661858337782	51
0	354	788.940469166166	52
0	364	794.512862583173	53
0	372	827.177691165765	54
0	386	847.984479278438	55
0	387	855.737286489981	56
0	388	857.68710040634	57
0	389	867.6160192248	58
0	390	873.71777406048	59
0	414	912.0407669018	60
0	415	912.375546559971	61
0	440	950.98749098485	62
0	444	957.721769757307	63
0	452	968.692460747031	64
0	453	973.051734769175	65
0	454	973.460334582715	66
0	455	974.681391952937	67
0	463	989.134783137551	68
0	464	993.129911539597	69
0	465	997.930078406819	70
0	470	1004.235828642457	71
0	478	1024.702802095969	72
0	479	1025.759849803721	73
0	482	1029.763241807841	74
0	499	1077.311062232808	75
0	504	1104.260818916069	76
0	576	1242.062300227149	77
0	579	1250.208256672212	78
0	582	1253.700318450447	79
0	596	1276.289232706664	80
0	607	1306.276307369347	81
0	608	1306.5580871519	82
0	619	1342.319178354708	83
0	620	1342.625756702993	84
0	623	1349.739578260381	85
0	628	1358.605716692304	86
0	629	1359.910986444351	87
0	630	1364.246330800277	88
0	639	1376.26897832378	89
0	645	1382.905918037978	90
0	648	1386.521676651491	91
0	649	1386.797017988194	92
0	650	1394.636891718348	93
0	651	1395.937247972732	94
0	652	1400.084426144249	95
0	655	1402.001875988623	96
0	659	1411.081674409082	97
0	668	1422.573569801466	98
0	669	1425.741657066186	99
0	670	1426.983881613689	100
0	671	1427.945503153151	101
0	672	1439.122118232029	102
0	675	1440.167619583709	103
0	676	1440.676258455955	104
0	679	1443.723222867121	105
0	687	1461.028714094242	106
0	688	1465.66701893324	107
0	691	1479.954975452281	108
0	698	1492.262040093367	109
0	699	1492.304363236651	110
0	709	1514.300883888962	111
0	712	1522.200839807752	112
0	713	1522.448650028391	113
0	721	1537.044782533897	114
0	736	1573.865921079242	115
0	737	1574.027848298405	116
0	738	1574.545029693186	117
0	741	1577.836430100128	118
0	747	1599.557155000051	119
0	752	1610.973288792088	120
0	753	1613.911712793333	121
0	754	1613.943732837801	122
0	757	1618.054055707249	123
0	758	1619.772474035309	124
0	759	1629.381990821321	125
0	767	1652.651536468107	126
0	770	1661.805602901892	127
0	775	1669.656093413318	128
0	776	1673.401280077738	129
0	785	1701.888389362616	130
0	788	1704.585507989874	131
0	789	1706.273377331432	132
0	790	1714.529559296176	133
0	811	1765.539472683686	134
0	812	1765.801729511815	135
0	819	1776.042069139117	136
0	820	1778.33824671038	137
0	821	1780.188805421297	138
0	822	1780.535900997258	139
0	848	1816.851895302467	140
0	849	1826.820112231894	141
0	852	1830.584117478274	142
0	855	1835.714817267723	143
0	861	1851.079947071679	144
0	862	1855.853135551889	145
0	863	1855.910384323576	146
0	864	1862.914383189574	147
0	867	1866.8497905265	148
0	868	1869.727323806328	149
0	888	1949.272105907394	150
0	889	1955.256144318961	151
0	890	1960.943073290302	152
0	891	1961.957668990694	153
0	892	1964.480749596012	154
0	893	1965.591982073133	155
0	894	1966.28290170914	156
0	913	2029.552580769397	157
0	914	2031.335405076772	158
0	915	2037.031151600731	159
0	916	2038.076900484752	160
0	919	2061.141829705325	161
0	920	2067.463219267706	162
0	925	2074.143575183181	163
0	928	2082.968191885989	164
0	932	2089.870671395984	165
0	933	2090.807519412382	166
0	934	2092.223641386731	167
0	940	2095.982164905961	168
0	946	2119.849026593998	169
0	947	2120.132078269596	170
0	948	2122.522605342694	171
0	952	2133.419047229345	172
0	953	2141.846411096735	173
0	956	2147.330399535562	174
0	957	2152.052072813052	175
0	958	2153.183442778483	176
0	967	2162.612744170587	177
0	968	2162.825050406641	178
0	993	2217.179551995819	179
0	1002	2229.856048891377	180
0	1003	2238.860947636898	181
0	1004	2239.47163186512	182
0	1005	2242.535279927132	183
0	1014	2280.040846330579	184
0	1015	2280.092033324767	185
0	1021	2286.328090999075	186
0	1027	2305.605507313972	187
0	1046	2326.671284730184	188
0	1089	2394.86676000823	189
0	1090	2401.856479565739	190
0	1091	2403.068832866875	191
0	1094	2408.169676492104	192
0	1149	2484.014006962928	193
0	1157	2493.557666323433	194
0	1158	2494.057718950927	195
1	159	357.470580046104	9
1	161	361.253872248248	9
1	162	366.757731303152	9
1	163	367.034364770986	8
1	167	378.113660944583	7
1	169	382.033569988247	7
1	171	386.094833956454	8
1	172	386.577694617218	8
1	174	386.647961139654	8
1	176	389.11721552314	9
1	178	392.226410515015	10
1	179	392.5305572327	10
1	181	392.907147651836	10
1	182	393.549178964794	10
1	184	396.36227194133	10
1	197	437.031828547986	11
1	199	445.880195795604	11
1	201	448.318011895377	11
1	203	449.686015902366	12
1	205	453.261598126964	13
1	206	453.575361858164	13
1	208	457.149607354789	13
1	210	459.167132141822	14
1	212	459.902982320572	15
1	214	465.705246785592	16
1	216	468.251201226019	17
1	221	475.822507308272	18
1	223	480.825237471622	19
1	224	496.644786274946	19
1	225	502.200786225737	18
1	232	509.866602764496	18
1	239	532.51419919372	19
1	242	539.722009720888	20
1	244	543.852267004313	20
1	246	543.960260144784	20
1	247	550.803543960742	20
1	252	555.155696511461	20
1	253	561.313539325284	20
1	254	567.138307694027	19
1	255	579.333913191537	18
1	256	586.477081569938	17
1	257	590.864253122812	16
1	261	596.98708789577	16
1	263	598.284845066716	17
1	265	598.576374058973	18
1	269	602.620604624623	19
1	271	606.95438653281	20
1	273	610.162704550092	21
1	275	614.958540455523	22
1	279	623.406264846895	23
1	283	637.852286977402	24
1	285	648.643934406955	25
1	287	660.154156152376	25
1	288	671.552352762573	24
1	290	676.580654484565	24
1	294	679.89463627924	25
1	297	683.746700318794	26
1	299	685.331815749873	27
1	301	690.996536964801	28
1	303	692.204779726722	29
1	304	692.812500031903	29
1	308	695.353883843244	29
1	311	706.298540363435	30
1	312	708.53738990666	30
1	313	715.782387346112	29
1	314	716.554670122561	28
1	318	720.820358178409	27
1	323	722.445853962356	27
1	325	723.104634167044	28
1	326	726.539927787607	28
1	328	733.272343944783	28
1	329	736.661858337782	28
1	333	739.797730469372	28
1	335	740.509362681322	29
1	342	750.972521332418	30
1	344	760.22695815373	31
1	346	761.712095157267	32
1	350	777.587614563966	33
1	354	788.940469166166	33
1	356	789.201234791078	33
1	358	789.526551019467	34
1	360	789.861488633681	35
1	364	794.512862583173	35
1	366	795.939403761245	35
1	371	819.542236411746	36
1	372	827.177691165765	36
1	379	835.156933545261	36
1	382	837.724076214384	37
1	386	847.984479278438	37
1	387	855.737286489981	36
1	388	857.68710040634	35
1	389	867.6160192248	34
1	390	873.71777406048	33
1	394	882.462444236032	33
1	396	890.900647318088	34
1	405	899.670495225509	35
1	407	902.698546084606	36
1	409	903.095442213722	37
1	411	905.089861502072	38
1	413	911.003404036779	39
1	414	912.0407669018	39
1	415	912.375546559971	38
1	419	915.690760576577	38
1	421	917.775434736723	39
1	426	924.213556890148	40
1	429	934.076817536199	41
1	435	936.960064299383	42
1	437	939.38482909942	43
1	440	950.98749098485	43
1	444	957.721769757307	42
1	446	957.912134853835	42
1	450	959.548743667564	43
1	452	968.692460747031	43
1	453	973.051734769175	42
1	454	973.460334582715	41
1	455	974.681391952937	40
1	459	978.23760579542	40
1	462	985.919423558647	41
1	463	989.134783137551	41
1	464	993.129911539597	40
1	465	997.930078406819	39
1	467	998.744812864239	39
1	469	999.8027166863	40
1	470	1004.235828642457	40
1	474	1005.637083893272	40
1	477	1018.773414308077	41
1	478	1024.702802095969	41
1	479	1025.759849803721	40
1	481	1026.72492787685	40
1	482	1029.763241807841	40
1	492	1054.801043001804	40
1	494	1064.652973912992	41
1	499	1077.311062232808	41
1	501	1093.355992575201	41
1	503	1100.282182876396	42
1	504	1104.260818916069	42
1	506	1104.978036121906	42
1	508	1118.356984565768	43
1	512	1127.414208507312	44
1	517	1133.514281915121	45
1	522	1144.360864369609	46
1	528	1153.951718723298	47
1	533	1161.097070572118	48
1	540	1172.04226562065	49
1	542	1178.407903726891	50
1	550	1184.211304218178	51
1	552	1184.300423029734	52
1	554	1184.435390764814	53
1	556	1185.138503952723	54
1	558	1185.401070630046	55
1	561	1191.107114039485	56
1	564	1194.270322303708	57
1	566	1199.917749928224	58
1	568	1215.207056702361	59
1	570	1217.263576943163	60
1	576	1242.062300227149	60
1	578	1245.863388766485	60
1	579	1250.208256672212	60
1	581	1253.407346792082	60
1	582	1253.700318450447	60
1	584	1254.654480348304	60
1	591	1263.794569950446	61
1	596	1276.289232706664	61
1	598	1277.485357624897	61
1	602	1290.248085656458	62
1	607	1306.276307369347	62
1	608	1306.5580871519	61
1	613	1328.607576263913	61
1	615	1332.266115075993	62
1	619	1342.319178354708	62
1	620	1342.625756702993	61
1	622	1345.999171837684	61
1	623	1349.739578260381	61
1	625	1351.180955470854	61
1	627	1358.024277942655	62
1	628	1358.605716692304	62
1	629	1359.910986444351	61
1	630	1364.246330800277	60
1	638	1375.328048318735	60
1	639	1376.26897832378	60
1	643	1376.578224452794	60
1	645	1382.905918037978	60
1	647	1385.424457924955	60
1	648	1386.521676651491	60
1	649	1386.797017988194	59
1	650	1394.636891718348	58
1	651	1395.937247972732	57
1	652	1400.084426144249	56
1	654	1400.686626234377	56
1	655	1402.001875988623	56
1	659	1411.081674409082	55
1	661	1412.945932439393	55
1	663	1413.277010384735	56
1	665	1420.422398902746	57
1	667	1421.552048863122	58
1	668	1422.573569801466	58
1	669	1425.741657066186	57
1	670	1426.983881613689	56
1	671	1427.945503153151	55
1	672	1439.122118232029	54
1	674	1439.27524498052	54
1	675	1440.167619583709	54
1	676	1440.676258455955	53
1	678	1441.998615398113	53
1	679	1443.723222867121	53
1	684	1454.752516381548	53
1	686	1458.614725343514	54
1	687	1461.028714094242	54
1	688	1465.66701893324	53
1	690	1478.733427612972	53
1	691	1479.954975452281	53
1	698	1492.262040093367	52
1	699	1492.304363236651	51
1	704	1505.301943959205	51
1	706	1507.576092677335	52
1	708	1513.948258337622	53
1	709	1514.300883888962	53
1	711	1517.494098948675	53
1	712	1522.200839807752	53
1	713	1522.448650028391	52
1	715	1523.807210772095	52
1	720	1530.266107318484	53
1	721	1537.044782533897	53
1	725	1547.121827412251	53
1	729	1553.926200376688	54
1	731	1556.691645862258	55
1	734	1566.048321592974	56
1	736	1573.865921079242	56
1	737	1574.027848298405	55
1	738	1574.545029693186	54
1	740	1575.850548390337	54
1	741	1577.836430100128	54
1	745	1592.939572376582	54
1	747	1599.557155000051	54
1	749	1600.440615470523	54
1	751	1607.942529139216	55
1	752	1610.973288792088	55
1	753	1613.911712793333	54
1	754	1613.943732837801	53
1	756	1617.209974063659	53
1	757	1618.054055707249	53
1	758	1619.772474035309	52
1	759	1629.381990821321	51
1	763	1645.212310001142	51
1	765	1648.295608035408	52
1	767	1652.651536468107	52
1	769	1661.146836982142	52
1	770	1661.805602901892	52
1	772	1666.811507272016	52
1	774	1668.780869812961	53
1	775	1669.656093413318	53
1	776	1673.401280077738	52
1	778	1675.853363345013	52
1	780	1685.52198025974	53
1	782	1690.619515589583	54
1	784	1698.881351353874	55
1	785	1701.888389362616	55
1	787	1702.270853690546	55
1	788	1704.585507989874	55
1	789	1706.273377331432	54
1	790	1714.529559296176	53
1	794	1716.684891854079	53
1	802	1742.107707459114	54
1	807	1758.540050622779	55
1	810	1763.847708067724	56
1	811	1765.539472683686	56
1	812	1765.801729511815	55
1	814	1767.394836815643	55
1	816	1769.754296063747	56
1	818	1771.243760096415	57
1	819	1776.042069139117	57
1	820	1778.33824671038	56
1	821	1780.188805421297	55
1	822	1780.535900997258	54
1	829	1797.197225012532	54
1	840	1807.286711899146	55
1	843	1812.682840100208	56
1	845	1812.766270975972	57
1	847	1814.271161976253	58
1	848	1816.851895302467	58
1	849	1826.820112231894	57
1	851	1829.810402453992	57
1	852	1830.584117478274	57
1	854	1830.86100559469	57
1	855	1835.714817267723	57
1	859	1837.834111699134	57
1	861	1851.079947071679	57
1	862	1855.853135551889	56
1	863	1855.910384323576	55
1	864	1862.914383189574	54
1	866	1863.053869228857	54
1	867	1866.8497905265	54
1	868	1869.727323806328	53
1	880	1921.548888446662	53
1	883	1925.084728108583	54
1	888	1949.272105907394	54
1	889	1955.256144318961	53
1	890	1960.943073290302	52
1	891	1961.957668990694	51
1	892	1964.480749596012	50
1	893	1965.591982073133	49
1	894	1966.28290170914	48
1	896	1966.461828507534	48
1	903	1996.442726234962	49
1	905	1999.018505728651	50
1	907	2003.133855187522	51
1	909	2022.102208161922	52
1	911	2026.984715526444	53
1	913	2029.552580769397	53
1	914	2031.335405076772	52
1	915	2037.031151600731	51
1	916	2038.076900484752	50
1	918	2043.741429300996	50
1	919	2061.141829705325	50
1	920	2067.463219267706	49
1	922	2068.035895002599	49
1	924	2070.729528780533	50
1	925	2074.143575183181	50
1	927	2082.060564272508	50
1	928	2082.968191885989	50
1	932	2089.870671395984	49
1	933	2090.807519412382	48
1	934	2092.223641386731	47
1	938	2092.756536328325	47
1	940	2095.982164905961	47
1	944	2107.788762825608	47
1	946	2119.849026593998	47
1	947	2120.132078269596	46
1	948	2122.522605342694	45
1	952	2133.419047229345	44
1	953	2141.846411096735	43
1	955	2145.586000304457	43
1	956	2147.330399535562	43
1	957	2152.052072813052	42
1	958	2153.183442778483	41
1	960	2157.470008204503	41
1	967	2162.612744170587	41
1	968	2162.825050406641	40
1	974	2170.621603874021	40
1	980	2197.669224470044	41
1	984	2198.674373501187	42
1	987	2203.554715304965	43
1	990	2210.498316660967	44
1	992	2212.274921811409	45
1	993	2217.179551995819	45
1	995	2218.480584148708	45
1	997	2221.48183917862	46
1	999	2221.489280892939	47
1	1001	2223.125972974633	48
1	1002	2229.856048891377	48
1	1003	2238.860947636898	47
1	1004	2239.47163186512	46
1	1005	2242.535279927132	45
1	1012	2268.169216379668	45
1	1014	2280.040846330579	45
1	1015	2280.092033324767	44
1	1017	2280.874800280286	44
1	1021	2286.328090999075	44
1	1026	2301.881038404028	44
1	1027	2305.605507313972	44
1	1035	2309.910991732672	44
1	1038	2312.359914615875	45
1	1041	2318.170158082466	46
1	1046	2326.671284730184	46
1	1048	2327.468414806708	46
1	1060	2343.996904793849	47
1	1065	2350.382606851478	48
1	1070	2358.611579696822	49
1	1074	2363.060537216027	50
1	1078	2373.50460996526	51
1	1081	2381.039792987798	52
1	1086	2386.087771682966	53
1	1088	2394.407798511697	54
1	1089	2394.86676000823	54
1	1090	2401.856479565739	53
1	1091	2403.068832866875	52
1	1093	2404.565149470387	52
1	1094	2408.169676492104	52
1	1104	2422.495692925158	52
1	1106	2423.823415495132	53
1	1108	2424.472143381992	54
1	1110	2430.129653405028	55
1	1117	2439.453006626528	56
1	1122	2446.289358719912	57
1	1127	2453.293347744151	58
1	1132	2458.70246381101	59
1	1134	2460.449554175474	60
1	1136	2464.794619718189	61
1	1138	2466.366369433583	62
1	1143	2477.751206080727	63
1	1149	2484.014006962928	63
1	1153	2487.907921574443	63
1	1155	2491.854625862879	64
1	1157	2493.557666323433	64
1	1158	2494.057718950927	63
2	159	357.470580046104	97.102534958853
2	162	366.757731303152	101.23670727224
2	163	367.034364770986	89.052378308149
2	167	378.113660944583	73.41208580916
2	172	386.577694617218	81.66100912283
2	179	392.5305572327	82.061013943519
2	182	393.549178964794	78.728451216055
2	199	445.880195795604	121.06738829325
2	206	453.575361858164	92.321489609916
2	224	496.644786274946	114.6112162867
2	225	502.200786225737	116.10595226928
2	244	543.852267004313	150.94511935248
2	247	550.803543960742	154.44127201941
2	253	561.313539325284	124.2817107773
2	254	567.138307694027	118.82029579865
2	255	579.333913191537	129.64789728917
2	256	586.477081569938	133.21548344297
2	257	590.864253122812	133.71464576802
2	287	660.154156152376	194.44890936678
2	288	671.552352762573	203.30115153655
2	304	692.812500031903	216.98999272363
2	312	708.53738990666	205.24270613055
2	313	715.782387346112	208.07173214831
2	314	716.554670122561	206.68806735806
2	318	720.820358178409	188.30615898469
2	326	726.539927787607	182.57966764282
2	329	736.661858337782	183.78207850847
2	354	788.940469166166	190.65562409945
2	364	794.512862583173	191.89225795855
2	372	827.177691165765	217.01498661567
2	386	847.984479278438	210.13219230104
2	387	855.737286489981	207.09335208303
2	388	857.68710040634	181.10644592177
2	389	867.6160192248	189.85855195232
2	390	873.71777406048	193.82313778124
2	414	912.0407669018	221.044229937
2	415	912.375546559971	220.17076683325
2	440	950.98749098485	244.68895062141
2	444	957.721769757307	236.50102380894
2	452	968.692460747031	245.58782657999
2	453	973.051734769175	239.77939082439
2	454	973.460334582715	236.59808107219
2	455	974.681391952937	234.88366148356
2	463	989.134783137551	241.59516891237
2	464	993.129911539597	242.15739020718
2	465	997.930078406819	237.70312025309
2	470	1004.235828642457	242.52373348519
2	478	1024.702802095969	243.92887533767
2	479	1025.759849803721	236.55861501264
2	482	1029.763241807841	240.23669078837
2	499	1077.311062232808	269.65342928335
2	504	1104.260818916069	284.71858250432
2	576	1242.062300227149	361.30060299451
2	579	1250.208256672212	367.74581243618
2	582	1253.700318450447	362.79967113236
2	596	1276.289232706664	373.59068662206
2	607	1306.276307369347	401.18644586727
2	608	1306.5580871519	395.55468311512
2	619	1342.319178354708	424.54374361799
2	620	1342.625756702993	418.41219981285
2	623	1349.739578260381	415.66276072418
2	628	1358.605716692304	423.93300851258
2	629	1359.910986444351	422.95092214497
2	630	1364.246330800277	424.86150170086
2	639	1376.26897832378	418.05889603578
2	645	1382.905918037978	406.31800599538
2	648	1386.521676651491	408.28407085607
2	649	1386.797017988194	400.87759442955
2	650	1394.636891718348	395.89207885411
2	651	1395.937247972732	396.13453128643
2	652	1400.084426144249	394.49428816887
2	655	1402.001875988623	396.36479209535
2	659	1411.081674409082	384.35674653223
2	668	1422.573569801466	384.26541178294
2	669	1425.741657066186	372.44820488219
2	670	1426.983881613689	372.18283861189
2	671	1427.945503153151	363.29252924016
2	672	1439.122118232029	366.89658782584
2	675	1440.167619583709	346.81162700851
2	676	1440.676258455955	340.39407557956
2	679	1443.723222867121	338.74518674521
2	687	1461.028714094242	340.94228791114
2	688	1465.66701893324	338.25281042593
2	691	1479.954975452281	346.44069353716
2	698	1492.262040093367	338.31032137007
2	699	1492.304363236651	338.16137976768
2	709	1514.300883888962	351.98350298369
2	712	1522.200839807752	352.72994837831
2	713	1522.448650028391	350.40638440774
2	721	1537.044782533897	352.83347831572
2	736	1573.865921079242	389.43053031443
2	737	1574.027848298405	388.88934434568
2	738	1574.545029693186	389.14395906314
2	741	1577.836430100128	386.72931606064
2	747	1599.557155000051	399.63940507183
2	752	1610.973288792088	395.76623208973
2	753	1613.911712793333	396.64813585017
2	754	1613.943732837801	368.08034407132
2	757	1618.054055707249	364.64670891517
2	758	1619.772474035309	365.117993687
2	759	1629.381990821321	371.66161308974
2	767	1652.651536468107	382.37460520657
2	770	1661.805602901892	384.32024527699
2	775	1669.656093413318	379.6938110095
2	776	1673.401280077738	383.15319442128
2	785	1701.888389362616	393.46181920847
2	788	1704.585507989874	375.97793172596
2	789	1706.273377331432	374.00726225544
2	790	1714.529559296176	379.78741761259
2	811	1765.539472683686	414.35851721283
2	812	1765.801729511815	407.77745156916
2	819	1776.042069139117	407.0830245487
2	820	1778.33824671038	406.39103909243
2	821	1780.188805421297	404.86075710256
2	822	1780.535900997258	404.15211657197
2	848	1816.851895302467	416.16526906809
2	849	1826.820112231894	421.31228515989
2	852	1830.584117478274	417.63818503888
2	855	1835.714817267723	422.43780688299
2	861	1851.079947071679	429.52789820856
2	862	1855.853135551889	416.57789057137
2	863	1855.910384323576	413.91176892546
2	864	1862.914383189574	418.52926961473
2	867	1866.8497905265	412.09727414495
2	868	1869.727323806328	411.11259846281
2	888	1949.272105907394	453.13096964755
2	889	1955.256144318961	449.95420035976
2	890	1960.943073290302	453.36698061297
2	891	1961.957668990694	448.00941065307
2	892	1964.480749596012	446.98665064734
2	893	1965.591982073133	441.78477130104
2	894	1966.28290170914	442.04056320464
2	913	2029.552580769397	482.43075335715
2	914	2031.335405076772	477.40920470008
2	915	2037.031151600731	480.33950573847
2	916	2038.076900484752	472.02857889178
2	919	2061.141829705325	485.29128131499
2	920	2067.463219267706	476.82122101379
2	925	2074.143575183181	481.2040028066
2	928	2082.968191885989	482.52757641547
2	932	2089.870671395984	472.66069733233
2	933	2090.807519412382	457.09316938513
2	934	2092.223641386731	447.01133138559
2	940	2095.982164905961	434.83532792382
2	946	2119.849026593998	451.06815678104
2	947	2120.132078269596	444.27871492458
2	948	2122.522605342694	437.00062508295
2	952	2133.419047229345	434.53769587547
2	953	2141.846411096735	439.57555740619
2	956	2147.330399535562	432.10064715548
2	957	2152.052072813052	435.36718095897
2	958	2153.183442778483	411.07573531937
2	967	2162.612744170587	395.21790735494
2	968	2162.825050406641	393.07075434289
2	993	2217.179551995819	436.15880907425
2	1002	2229.856048891377	432.65882387884
2	1003	2238.860947636898	438.88727862461
2	1004	2239.47163186512	432.18491996597
2	1005	2242.535279927132	429.85243982692
2	1014	2280.040846330579	450.23044387659
2	1015	2280.092033324767	449.23102773008
2	1021	2286.328090999075	448.49397929994
2	1027	2305.605507313972	431.390687479
2	1046	2326.671284730184	405.12239628352
2	1089	2394.86676000823	410.32048455746
2	1090	2401.856479565739	405.84363715182
2	1091	2403.068832866875	406.62610663191
2	1094	2408.169676492104	409.15117076345
2	1149	2484.014006962928	461.91179880101
2	1157	2493.557666323433	449.81623702244
2	1158	2494.057718950927	426.02182394833
3	159	357.470580046104	91.949556015193
3	162	366.757731303152	88.775744840315
3	163	367.034364770986	72.000267536185
3	166	369.706647916529	65.005072781106
3	167	378.113660944583	73.196975450195
3	172	386.577694617218	76.108151328037
3	179	392.5305572327	77.709829483961
3	182	393.549178964794	75.3165674105
3	198	444.856861679103	120.04405417675
3	199	445.880195795604	84.626323547356
3	206	453.575361858164	84.616959352175
3	219	475.560736145245	93.527166156998
3	224	496.644786274946	110.54995231849
3	225	502.200786225737	115.55282508608
3	228	504.467461175157	115.35024565202
3	233	516.388016615315	124.1616061003
3	243	540.432502434589	147.52535478275
3	244	543.852267004313	147.48999506298
3	247	550.803543960742	147.92322683909
3	250	553.014305843574	115.98247729559
3	253	561.313539325284	112.99552742991
3	254	567.138307694027	117.45229179166
3	255	579.333913191537	126.07231506457
3	256	586.477081569938	129.32747421515
3	257	590.864253122812	131.69712098099
3	277	618.506326964628	158.60334464406
3	286	656.861785714184	191.15653892859
3	287	660.154156152376	191.90295492636
3	288	671.552352762573	201.75010451363
3	295	680.229641562427	204.40713425415
3	304	692.812500031903	211.98726256028
3	309	703.112409770809	199.8177259947
3	312	708.53738990666	200.82673470886
3	313	715.782387346112	205.91578458162
3	314	716.554670122561	189.88188054223
3	317	719.519118120137	187.00491892642
3	318	720.820358178409	181.09834845752
3	321	721.38630691573	177.42604677095
3	326	726.539927787607	173.66014795829
3	329	736.661858337782	181.50616182632
3	336	746.110932249725	151.21949313683
3	348	775.145794216661	178.15870632089
3	353	784.21359790987	185.92875284315
3	354	788.940469166166	190.36409510719
3	363	792.867528949155	190.24692432453
3	364	794.512862583173	187.55847605036
3	369	809.024934397681	198.86222984759
3	372	827.177691165765	212.21915071024
3	375	832.578324263277	209.17205941638
3	380	835.599384689797	207.80762181682
3	385	846.54785504646	208.69556806906
3	386	847.984479278438	199.34054487148
3	387	855.737286489981	179.15663200542
3	388	857.68710040634	179.92963313386
3	389	867.6160192248	187.72138294556
3	390	873.71777406048	189.97107374169
3	400	894.300022823941	208.96820707407
3	403	895.46886423821	204.47232727341
3	414	912.0407669018	219.83598717508
3	415	912.375546559971	219.04916542467
3	427	931.405961709453	236.05207786621
3	439	944.910648779697	238.61210841626
3	440	950.98749098485	232.5855351842
3	443	957.420429712762	236.1996837644
3	444	957.721769757307	235.27591579495
3	451	968.150427350234	245.04579318319
3	452	968.692460747031	235.42011680225
3	453	973.051734769175	236.18948125865
3	454	973.460334582715	233.66260411334
3	455	974.681391952937	234.17202927162
3	460	980.835900614381	233.2962863892
3	463	989.134783137551	238.16226180513
3	464	993.129911539597	232.90295338587
3	465	997.930078406819	236.21798324955
3	470	1004.235828642457	226.64821407849
3	475	1005.888775815508	225.11484905721
3	478	1024.702802095969	235.50156730489
3	479	1025.759849803721	236.23329878425
3	482	1029.763241807841	239.90175317416
3	488	1047.957976796359	257.83700281946
3	495	1065.53774021036	269.59833644911
3	498	1076.023112698034	268.36547974858
3	499	1077.311062232808	257.76882582106
3	504	1104.260818916069	274.17782885978
3	523	1149.117132143312	315.0008386469
3	526	1152.712043693066	317.55511014781
3	531	1159.367808033855	321.64373181947
3	536	1166.906908885771	321.1286675453
3	575	1231.0248269039	350.26312967126
3	576	1242.062300227149	359.59985599112
3	579	1250.208256672212	359.30760935412
3	582	1253.700318450447	359.32729000893
3	592	1263.81847473532	364.14797950981
3	595	1273.898309983995	371.19976389939
3	596	1276.289232706664	373.19379049294
3	606	1303.610020683177	398.5201591811
3	607	1306.276307369347	395.27290333257
3	608	1306.5580871519	392.95056139637
3	611	1308.854301699517	393.16354112294
3	618	1335.027852963383	417.25241822666
3	619	1342.319178354708	418.10562146456
3	620	1342.625756702993	408.54893916679
3	623	1349.739578260381	415.06687008066
3	628	1358.605716692304	421.64565239292
3	629	1359.910986444351	420.52615734493
3	630	1364.246330800277	407.19824378345
3	633	1371.906958273264	413.99482341943
3	636	1373.366739783233	415.15665749524
3	639	1376.26897832378	416.72023465622
3	644	1376.855653288805	400.2677412462
3	645	1382.905918037978	404.66831224256
3	648	1386.521676651491	400.60225309284
3	649	1386.797017988194	388.05220512395
3	650	1394.636891718348	394.83417503205
3	651	1395.937247972732	390.34710999735
3	652	1400.084426144249	394.44734225098
3	655	1402.001875988623	383.22846168055
3	658	1409.714164240837	382.98923636399
3	659	1411.081674409082	372.77351639056
3	668	1422.573569801466	369.28011761747
3	669	1425.741657066186	370.94061406438
3	670	1426.983881613689	362.3309077007
3	671	1427.945503153151	355.71997274696
3	672	1439.122118232029	345.76612565683
3	675	1440.167619583709	339.88543670731
3	676	1440.676258455955	335.69822233405
3	679	1443.723222867121	325.36623830135
3	682	1446.885878566811	326.79945238371
3	687	1461.028714094242	333.61450558693
3	688	1465.66701893324	332.15273701812
3	691	1479.954975452281	335.59411108267
3	694	1480.304396875358	328.0577251549
3	697	1489.200678915332	335.24896019203
3	698	1492.262040093367	338.1190566244
3	699	1492.304363236651	331.20729266453
3	702	1496.180251661172	333.8628707559
3	709	1514.300883888962	344.82999245952
3	712	1522.200839807752	350.1585741871
3	713	1522.448650028391	344.0407463015
3	718	1526.470939786107	342.25963556793
3	721	1537.044782533897	352.74435950416
3	735	1569.332786471716	384.8973957069
3	736	1573.865921079242	388.72741712652
3	737	1574.027848298405	388.62677766836
3	738	1574.545029693186	383.4379156537
3	741	1577.836430100128	383.56610779642
3	746	1597.998357808113	398.08060787989
3	747	1599.557155000051	384.35009829769
3	752	1610.973288792088	393.70971184892
3	753	1613.911712793333	368.04832402685
3	754	1613.943732837801	360.53638604572
3	757	1618.054055707249	363.39957535895
3	758	1619.772474035309	362.05209630372
3	759	1629.381990821321	365.58742087088
3	766	1649.042007282665	378.76507602113
3	767	1652.651536468107	375.16617884321
3	770	1661.805602901892	371.84332049807
3	775	1669.656093413318	379.40800775686
3	776	1673.401280077738	364.97470992359
3	785	1701.888389362616	373.2808130987
3	788	1704.585507989874	372.31939291388
3	789	1706.273377331432	371.53123564785
3	790	1714.529559296176	368.53038745849
3	808	1763.830334779709	412.64937930885
3	811	1765.539472683686	407.51519474103
3	812	1765.801729511815	396.84268492139
3	819	1776.042069139117	404.09486152116
3	820	1778.33824671038	403.01019839165
3	821	1780.188805421297	403.80502099601
3	822	1780.535900997258	403.95767654446
3	833	1798.855504765703	413.43104684075
3	841	1811.743986233853	411.05735999948
3	848	1816.851895302467	411.34406823047
3	849	1826.820112231894	413.8741797925
3	852	1830.584117478274	417.30710709354
3	855	1835.714817267723	415.29241836498
3	860	1838.409696337816	416.85764747469
3	861	1851.079947071679	411.80470209116
3	862	1855.853135551889	413.85452015378
3	863	1855.910384323576	411.52527074873
3	864	1862.914383189574	408.16186680803
3	867	1866.8497905265	408.23506518299
3	868	1869.727323806328	390.99389619336
3	871	1876.200499270262	396.14077798833
3	874	1881.217657026791	392.49136224589
3	887	1939.267408643819	443.12627238398
3	888	1949.272105907394	443.97016194819
3	889	1955.256144318961	447.68005164163
3	890	1960.943073290302	446.99481495268
3	891	1961.957668990694	444.46357004202
3	892	1964.480749596012	440.67353882392
3	893	1965.591982073133	441.34964356863
3	894	1966.28290170914	436.01679439066
3	899	1984.96846389706	442.52083227476
3	912	2029.161301856563	482.03947444431
3	913	2029.552580769397	475.62638039271
3	914	2031.335405076772	474.64375921451
3	915	2037.031151600731	470.98283000776
3	916	2038.076900484752	462.22635209442
3	919	2061.141829705325	470.49983145141
3	920	2067.463219267706	474.52364689112
3	925	2074.143575183181	473.70295971266
3	928	2082.968191885989	475.02566274677
3	931	2083.991334383291	466.78136031963
3	932	2089.870671395984	456.15632136873
3	933	2090.807519412382	445.59520941124
3	934	2092.223641386731	443.92803335132
3	939	2095.171849021282	434.02501203914
3	940	2095.982164905961	429.17065763394
3	945	2114.419781468569	445.63891165561
3	946	2119.849026593998	443.99566324899
3	947	2120.132078269596	434.61009800986
3	948	2122.522605342694	431.90308975311
3	951	2132.657729529595	433.77637817572
3	952	2133.419047229345	431.1481935388
3	953	2141.846411096735	426.61665871665
3	956	2147.330399535562	430.64550768148
3	957	2152.052072813052	409.94436535394
3	958	2153.183442778483	394.6433921557
3	963	2159.849941544255	396.00223347653
3	966	2162.341782326392	394.94694551075
3	967	2162.612744170587	392.85844810684
3	968	2162.825050406641	391.58129031023
3	988	2205.302549287388	424.28180636582
3	993	2217.179551995819	419.98232698329
3	1002	2229.856048891377	429.88237987908
3	1003	2238.860947636898	431.57423573775
3	1004	2239.47163186512	426.78879176491
3	1005	2242.535279927132	429.76900895116
3	1008	2262.820655659844	448.54949368359
3	1013	2270.108081267488	440.2976788135
3	1014	2280.040846330579	449.17984073589
3	1015	2280.092033324767	442.8842237231
3	1020	2284.198818833146	446.36470713401
3	1021	2286.328090999075	423.27422177022
3	1024	2298.483179979292	424.26836014432
3	1027	2305.605507313972	428.1131842144
3	1042	2324.623951526055	425.61204296527
3	1045	2325.927080021095	404.37819157443
3	1046	2326.671284730184	401.5865566216
3	1079	2374.891865080828	408.43003657329
3	1084	2383.617237029955	399.07096157918
3	1089	2394.86676000823	398.85391759431
3	1090	2401.856479565739	405.41375333078
3	1091	2403.068832866875	404.05032713822
3	1094	2408.169676492104	405.03582130458
3	1148	2483.010634292451	460.90842613053
3	1149	2484.014006962928	457.02929143648
3	1156	2492.721898941169	448.98046964017
3	1157	2493.557666323433	425.52177132083
3	1158	2494.057718950927	423.32819017039
4	161	361.253872248248	10
4	169	382.033569988247	8
4	171	386.094833956454	9
4	174	386.647961139654	9
4	176	389.11721552314	10
4	178	392.226410515015	11
4	181	392.907147651836	11
4	184	396.36227194133	11
4	197	437.031828547986	12
4	201	448.318011895377	12
4	203	449.686015902366	13
4	205	453.261598126964	14
4	208	457.149607354789	14
4	210	459.167132141822	15
4	212	459.902982320572	16
4	214	465.705246785592	17
4	216	468.251201226019	18
4	221	475.822507308272	19
4	223	480.825237471622	20
4	232	509.866602764496	19
4	239	532.51419919372	20
4	242	539.722009720888	21
4	246	543.960260144784	21
4	252	555.155696511461	21
4	261	596.98708789577	17
4	263	598.284845066716	18
4	265	598.576374058973	19
4	269	602.620604624623	20
4	271	606.95438653281	21
4	273	610.162704550092	22
4	275	614.958540455523	23
4	279	623.406264846895	24
4	283	637.852286977402	25
4	285	648.643934406955	26
4	290	676.580654484565	25
4	294	679.89463627924	26
4	297	683.746700318794	27
4	299	685.331815749873	28
4	301	690.996536964801	29
4	303	692.204779726722	30
4	308	695.353883843244	30
4	311	706.298540363435	31
4	323	722.445853962356	28
4	325	723.104634167044	29
4	328	733.272343944783	29
4	333	739.797730469372	29
4	335	740.509362681322	30
4	342	750.972521332418	31
4	344	760.22695815373	32
4	346	761.712095157267	33
4	350	777.587614563966	34
4	356	789.201234791078	34
4	358	789.526551019467	35
4	360	789.861488633681	36
4	366	795.939403761245	36
4	371	819.542236411746	37
4	379	835.156933545261	37
4	382	837.724076214384	38
4	394	882.462444236032	34
4	396	890.900647318088	35
4	405	899.670495225509	36
4	407	902.698546084606	37
4	409	903.095442213722	38
4	411	905.089861502072	39
4	413	911.003404036779	40
4	419	915.690760576577	39
4	421	917.775434736723	40
4	426	924.213556890148	41
4	429	934.076817536199	42
4	435	936.960064299383	43
4	437	939.38482909942	44
4	446	957.912134853835	43
4	450	959.548743667564	44
4	459	978.23760579542	41
4	462	985.919423558647	42
4	467	998.744812864239	40
4	469	999.8027166863	41
4	474	1005.637083893272	41
4	477	1018.773414308077	42
4	481	1026.72492787685	41
4	492	1054.801043001804	41
4	494	1064.652973912992	42
4	501	1093.355992575201	42
4	503	1100.282182876396	43
4	506	1104.978036121906	43
4	508	1118.356984565768	44
4	512	1127.414208507312	45
4	517	1133.514281915121	46
4	522	1144.360864369609	47
4	528	1153.951718723298	48
4	533	1161.097070572118	49
4	540	1172.04226562065	50
4	542	1178.407903726891	51
4	550	1184.211304218178	52
4	552	1184.300423029734	53
4	554	1184.435390764814	54
4	556	1185.138503952723	55
4	558	1185.401070630046	56
4	561	1191.107114039485	57
4	564	1194.270322303708	58
4	566	1199.917749928224	59
4	568	1215.207056702361	60
4	570	1217.263576943163	61
4	578	1245.863388766485	61
4	581	1253.407346792082	61
4	584	1254.654480348304	61
4	591	1263.794569950446	62
4	598	1277.485357624897	62
4	602	1290.248085656458	63
4	613	1328.607576263913	62
4	615	1332.266115075993	63
4	622	1345.999171837684	62
4	625	1351.180955470854	62
4	627	1358.024277942655	63
4	638	1375.328048318735	61
4	643	1376.578224452794	61
4	647	1385.424457924955	61
4	654	1400.686626234377	57
4	661	1412.945932439393	56
4	663	1413.277010384735	57
4	665	1420.422398902746	58
4	667	1421.552048863122	59
4	674	1439.27524498052	55
4	678	1441.998615398113	54
4	684	1454.752516381548	54
4	686	1458.614725343514	55
4	690	1478.733427612972	54
4	704	1505.301943959205	52
4	706	1507.576092677335	53
4	708	1513.948258337622	54
4	711	1517.494098948675	54
4	715	1523.807210772095	53
4	720	1530.266107318484	54
4	725	1547.121827412251	54
4	729	1553.926200376688	55
4	731	1556.691645862258	56
4	734	1566.048321592974	57
4	740	1575.850548390337	55
4	745	1592.939572376582	55
4	749	1600.440615470523	55
4	751	1607.942529139216	56
4	756	1617.209974063659	54
4	763	1645.212310001142	52
4	765	1648.295608035408	53
4	769	1661.146836982142	53
4	772	1666.811507272016	53
4	774	1668.780869812961	54
4	778	1675.853363345013	53
4	780	1685.52198025974	54
4	782	1690.619515589583	55
4	784	1698.881351353874	56
4	787	1702.270853690546	56
4	794	1716.684891854079	54
4	802	1742.107707459114	55
4	807	1758.540050622779	56
4	810	1763.847708067724	57
4	814	1767.394836815643	56
4	816	1769.754296063747	57
4	818	1771.243760096415	58
4	829	1797.197225012532	55
4	840	1807.286711899146	56
4	843	1812.682840100208	57
4	845	1812.766270975972	58
4	847	1814.271161976253	59
4	851	1829.810402453992	58
4	854	1830.86100559469	58
4	859	1837.834111699134	58
4	866	1863.053869228857	55
4	880	1921.548888446662	54
4	883	1925.084728108583	55
4	896	1966.461828507534	49
4	903	1996.442726234962	50
4	905	1999.018505728651	51
4	907	2003.133855187522	52
4	909	2022.102208161922	53
4	911	2026.984715526444	54
4	918	2043.741429300996	51
4	922	2068.035895002599	50
4	924	2070.729528780533	51
4	927	2082.060564272508	51
4	938	2092.756536328325	48
4	944	2107.788762825608	48
4	955	2145.586000304457	44
4	960	2157.470008204503	42
4	974	2170.621603874021	41
4	980	2197.669224470044	42
4	984	2198.674373501187	43
4	987	2203.554715304965	44
4	990	2210.498316660967	45
4	992	2212.274921811409	46
4	995	2218.480584148708	46
4	997	2221.48183917862	47
4	999	2221.489280892939	48
4	1001	2223.125972974633	49
4	1012	2268.169216379668	46
4	1017	2280.874800280286	45
4	1026	2301.881038404028	45
4	1035	2309.910991732672	45
4	1038	2312.359914615875	46
4	1041	2318.170158082466	47
4	1048	2327.468414806708	47
4	1060	2343.996904793849	48
4	1065	2350.382606851478	49
4	1070	2358.611579696822	50
4	1074	2363.060537216027	51
4	1078	2373.50460996526	52
4	1081	2381.039792987798	53
4	1086	2386.087771682966	54
4	1088	2394.407798511697	55
4	1093	2404.565149470387	53
4	1104	2422.495692925158	53
4	1106	2423.823415495132	54
4	1108	2424.472143381992	55
4	1110	2430.129653405028	56
4	1117	2439.453006626528	57
4	1122	2446.289358719912	58
4	1127	2453.293347744151	59
4	1132	2458.70246381101	60
4	1134	2460.449554175474	61
4	1136	2464.794619718189	62
4	1138	2466.366369433583	63
4	1143	2477.751206080727	64
4	1153	2487.907921574443	64
4	1155	2491.854625862879	65
5	165	368.958402505989	1
5	186	402.880317121656	1
5	188	402.959438767677	2
5	191	411.151057594791	2
5	194	425.50773619485	2
5	218	469.80224824894	1
5	227	503.294683776111	1
5	230	507.710655197798	1
5	235	526.672789580331	1
5	237	527.294692179906	2
5	249	552.879779829314	1
5	259	594.891439112898	1
5	267	601.794162164892	2
5	281	627.791762872973	1
5	292	677.757467272476	1
5	306	693.3263811353	1
5	316	718.401955800649	1
5	320	721.220745948366	1
5	331	736.862253510529	1
5	338	747.539614225181	1
5	340	750.606602021905	2
5	352	780.773926758294	1
5	362	790.1209739769	1
5	368	807.657632949454	1
5	374	830.082990056291	1
5	377	834.116293496415	1
5	384	845.77824134047	1
5	392	880.761697232639	1
5	398	892.145415789384	2
5	402	894.373028441513	1
5	417	913.607525755531	1
5	423	920.277206925292	2
5	431	934.672708179719	1
5	433	936.028935313202	2
5	442	957.048087016828	1
5	448	958.210082287997	1
5	457	976.587912042603	1
5	472	1005.590137975379	1
5	484	1038.308158018523	1
5	486	1038.545319263007	2
5	490	1053.293452183994	1
5	497	1072.225530406186	1
5	510	1120.086426183102	1
5	514	1128.152243321753	2
5	519	1135.843037619533	2
5	525	1152.246671720459	1
5	530	1154.142983468966	1
5	535	1162.317380905273	1
5	538	1169.470891429442	1
5	544	1180.063672947012	2
5	546	1182.484086536195	3
5	548	1184.083476601723	4
5	572	1219.368073518	3
5	586	1257.720377731584	1
5	588	1258.681009477602	2
5	594	1270.276931261535	1
5	600	1289.96228240382	1
5	604	1292.563411709023	2
5	610	1308.426570154145	1
5	617	1334.742141683582	1
5	632	1368.959044590421	1
5	635	1371.947207617954	1
5	641	1376.38378442529	1
5	657	1405.507827071999	1
5	681	1444.385113574848	1
5	693	1480.059721281932	1
5	696	1488.726294780898	1
5	701	1496.141136259839	1
5	717	1524.242338504501	1
5	723	1542.447631622299	1
5	727	1549.466082130356	2
5	743	1590.641998253917	1
5	761	1633.714350027253	1
5	792	1715.229752380084	1
5	796	1723.105769530319	2
5	798	1735.705584841452	3
5	800	1739.312436688954	4
5	824	1781.020742921571	1
5	826	1790.989767933443	2
5	831	1798.01125817734	2
5	835	1799.973669012292	1
5	837	1802.788611750136	2
5	857	1837.207809601665	1
5	870	1874.214819834976	1
5	873	1877.492323099577	1
5	876	1899.01190856079	1
5	878	1908.705791028292	2
5	885	1926.80487591959	2
5	898	1984.546275450773	1
5	901	1996.012842413922	1
5	930	2083.855153346219	1
5	936	2092.664060113132	1
5	942	2104.851380459965	1
5	950	2122.543875262575	1
5	962	2157.532000019822	1
5	965	2160.769943346489	1
5	970	2166.560262012353	1
5	972	2170.316721573153	2
5	977	2188.511548646784	2
5	982	2198.633767710102	2
5	1007	2245.259994245578	1
5	1010	2265.579539773758	1
5	1019	2280.874893329279	1
5	1023	2290.195761337989	1
5	1029	2308.037549004393	1
5	1031	2308.085742285505	2
5	1033	2308.887224526848	3
5	1044	2324.804840986635	1
5	1050	2333.642706438426	1
5	1052	2336.358455922297	2
5	1054	2338.017678787934	3
5	1056	2339.680804628958	4
5	1062	2346.97091279548	3
5	1067	2352.329510823868	3
5	1072	2360.360545668002	3
5	1083	2381.934676952752	1
5	1096	2411.664070294826	1
5	1098	2416.504309095825	2
5	1100	2417.319899226566	3
5	1102	2421.859081073032	4
5	1113	2433.0836491068	4
5	1120	2442.737002327712	2
5	1125	2450.301596221221	2
5	1129	2455.396158994061	3
5	1140	2475.635191458486	3
5	1145	2478.070608996934	3
5	1151	2486.574186514758	1
6	165	368.958402505989	0
6	166	369.706647916529	0
6	186	402.880317121656	0
6	188	402.959438767677	1
6	189	407.622721466366	1
6	191	411.151057594791	1
6	192	422.204902756391	1
6	194	425.50773619485	1
6	195	432.207927424517	1
6	198	444.856861679103	0
6	218	469.80224824894	0
6	219	475.560736145245	0
6	227	503.294683776111	0
6	228	504.467461175157	0
6	230	507.710655197798	0
6	233	516.388016615315	0
6	235	526.672789580331	0
6	237	527.294692179906	1
6	240	533.176562197901	1
6	243	540.432502434589	0
6	249	552.879779829314	0
6	250	553.014305843574	0
6	259	594.891439112898	0
6	267	601.794162164892	1
6	276	617.699465251588	1
6	277	618.506326964628	0
6	281	627.791762872973	0
6	286	656.861785714184	0
6	292	677.757467272476	0
6	295	680.229641562427	0
6	306	693.3263811353	0
6	309	703.112409770809	0
6	316	718.401955800649	0
6	317	719.519118120137	0
6	320	721.220745948366	0
6	321	721.38630691573	0
6	331	736.862253510529	0
6	336	746.110932249725	0
6	338	747.539614225181	0
6	340	750.606602021905	1
6	347	764.061586822477	1
6	348	775.145794216661	0
6	352	780.773926758294	0
6	353	784.21359790987	0
6	362	790.1209739769	0
6	363	792.867528949155	0
6	368	807.657632949454	0
6	369	809.024934397681	0
6	374	830.082990056291	0
6	375	832.578324263277	0
6	377	834.116293496415	0
6	380	835.599384689797	0
6	384	845.77824134047	0
6	385	846.54785504646	0
6	392	880.761697232639	0
6	398	892.145415789384	1
6	399	893.730052334291	1
6	400	894.300022823941	0
6	402	894.373028441513	0
6	403	895.46886423821	0
6	417	913.607525755531	0
6	423	920.277206925292	1
6	424	921.715096576798	1
6	427	931.405961709453	0
6	431	934.672708179719	0
6	433	936.028935313202	1
6	438	940.62118232579	1
6	439	944.910648779697	0
6	442	957.048087016828	0
6	443	957.420429712762	0
6	448	958.210082287997	0
6	451	968.150427350234	0
6	457	976.587912042603	0
6	460	980.835900614381	0
6	472	1005.590137975379	0
6	475	1005.888775815508	0
6	484	1038.308158018523	0
6	486	1038.545319263007	1
6	487	1041.646711885229	1
6	488	1047.957976796359	0
6	490	1053.293452183994	0
6	495	1065.53774021036	0
6	497	1072.225530406186	0
6	498	1076.023112698034	0
6	510	1120.086426183102	0
6	514	1128.152243321753	1
6	515	1128.31096406051	1
6	519	1135.843037619533	1
6	520	1143.127614656938	1
6	523	1149.117132143312	0
6	525	1152.246671720459	0
6	526	1152.712043693066	0
6	530	1154.142983468966	0
6	531	1159.367808033855	0
6	535	1162.317380905273	0
6	536	1166.906908885771	0
6	538	1169.470891429442	0
6	544	1180.063672947012	1
6	546	1182.484086536195	2
6	548	1184.083476601723	3
6	559	1188.827497975856	3
6	562	1192.892031572801	2
6	572	1219.368073518	2
6	573	1220.958952113949	2
6	574	1228.343112980093	1
6	575	1231.0248269039	0
6	586	1257.720377731584	0
6	588	1258.681009477602	1
6	589	1262.035706985079	1
6	592	1263.81847473532	0
6	594	1270.276931261535	0
6	595	1273.898309983995	0
6	600	1289.96228240382	0
6	604	1292.563411709023	1
6	605	1300.308810830662	1
6	606	1303.610020683177	0
6	610	1308.426570154145	0
6	611	1308.854301699517	0
6	617	1334.742141683582	0
6	618	1335.027852963383	0
6	632	1368.959044590421	0
6	633	1371.906958273264	0
6	635	1371.947207617954	0
6	636	1373.366739783233	0
6	641	1376.38378442529	0
6	644	1376.855653288805	0
6	657	1405.507827071999	0
6	658	1409.714164240837	0
6	681	1444.385113574848	0
6	682	1446.885878566811	0
6	693	1480.059721281932	0
6	694	1480.304396875358	0
6	696	1488.726294780898	0
6	697	1489.200678915332	0
6	701	1496.141136259839	0
6	702	1496.180251661172	0
6	717	1524.242338504501	0
6	718	1526.470939786107	0
6	723	1542.447631622299	0
6	727	1549.466082130356	1
6	732	1559.185445391266	1
6	735	1569.332786471716	0
6	743	1590.641998253917	0
6	746	1597.998357808113	0
6	761	1633.714350027253	0
6	766	1649.042007282665	0
6	792	1715.229752380084	0
6	796	1723.105769530319	1
6	798	1735.705584841452	2
6	800	1739.312436688954	3
6	803	1744.118874290295	3
6	804	1754.344733381338	2
6	805	1758.467038278914	1
6	808	1763.830334779709	0
6	824	1781.020742921571	0
6	826	1790.989767933443	1
6	827	1792.295897443494	1
6	831	1798.01125817734	1
6	832	1798.517441375714	1
6	833	1798.855504765703	0
6	835	1799.973669012292	0
6	837	1802.788611750136	1
6	838	1802.889619859997	1
6	841	1811.743986233853	0
6	857	1837.207809601665	0
6	860	1838.409696337816	0
6	870	1874.214819834976	0
6	871	1876.200499270262	0
6	873	1877.492323099577	0
6	874	1881.217657026791	0
6	876	1899.01190856079	0
6	878	1908.705791028292	1
6	881	1923.570329564267	1
6	885	1926.80487591959	1
6	886	1932.149371756245	1
6	887	1939.267408643819	0
6	898	1984.546275450773	0
6	899	1984.96846389706	0
6	901	1996.012842413922	0
6	912	2029.161301856563	0
6	930	2083.855153346219	0
6	931	2083.991334383291	0
6	936	2092.664060113132	0
6	939	2095.171849021282	0
6	942	2104.851380459965	0
6	945	2114.419781468569	0
6	950	2122.543875262575	0
6	951	2132.657729529595	0
6	962	2157.532000019822	0
6	963	2159.849941544255	0
6	965	2160.769943346489	0
6	966	2162.341782326392	0
6	970	2166.560262012353	0
6	972	2170.316721573153	1
6	975	2174.411360239034	1
6	977	2188.511548646784	1
6	978	2194.029272869641	1
6	982	2198.633767710102	1
6	985	2202.653293293329	1
6	988	2205.302549287388	0
6	1007	2245.259994245578	0
6	1008	2262.820655659844	0
6	1010	2265.579539773758	0
6	1013	2270.108081267488	0
6	1019	2280.874893329279	0
6	1020	2284.198818833146	0
6	1023	2290.195761337989	0
6	1024	2298.483179979292	0
6	1029	2308.037549004393	0
6	1031	2308.085742285505	1
6	1033	2308.887224526848	2
6	1036	2310.9225697133	2
6	1039	2313.945602065398	1
6	1042	2324.623951526055	0
6	1044	2324.804840986635	0
6	1045	2325.927080021095	0
6	1050	2333.642706438426	0
6	1052	2336.358455922297	1
6	1054	2338.017678787934	2
6	1056	2339.680804628958	3
6	1057	2343.04174923194	3
6	1058	2343.405520660099	2
6	1062	2346.97091279548	2
6	1063	2350.278106224723	2
6	1067	2352.329510823868	2
6	1068	2357.116462951799	2
6	1072	2360.360545668002	2
6	1075	2367.944367265727	2
6	1076	2368.211017908834	1
6	1079	2374.891865080828	0
6	1083	2381.934676952752	0
6	1084	2383.617237029955	0
6	1096	2411.664070294826	0
6	1098	2416.504309095825	1
6	1100	2417.319899226566	2
6	1102	2421.859081073032	3
6	1111	2432.184152661437	3
6	1113	2433.0836491068	3
6	1114	2436.158281264743	3
6	1115	2438.799082220718	2
6	1118	2440.974930276155	1
6	1120	2442.737002327712	1
6	1123	2449.687370604941	1
6	1125	2450.301596221221	1
6	1129	2455.396158994061	2
6	1130	2458.16896747308	2
6	1140	2475.635191458486	2
6	1141	2477.619593408259	2
6	1145	2478.070608996934	2
6	1146	2479.707859477971	2
6	1147	2482.35344096179	1
6	1148	2483.010634292451	0
6	1151	2486.574186514758	0
6	1156	2492.721898941169	0
7	165	368.958402505989	6
7	186	402.880317121656	7
7	218	469.80224824894	8
7	227	503.294683776111	9
7	230	507.710655197798	10
7	235	526.672789580331	11
7	249	552.879779829314	12
7	259	594.891439112898	13
7	281	627.791762872973	14
7	292	677.757467272476	15
7	306	693.3263811353	16
7	316	718.401955800649	17
7	320	721.220745948366	18
7	331	736.862253510529	19
7	338	747.539614225181	20
7	352	780.773926758294	21
7	362	790.1209739769	22
7	368	807.657632949454	23
7	374	830.082990056291	24
7	377	834.116293496415	25
7	384	845.77824134047	26
7	392	880.761697232639	27
7	402	894.373028441513	28
7	417	913.607525755531	29
7	431	934.672708179719	30
7	442	957.048087016828	31
7	448	958.210082287997	32
7	457	976.587912042603	33
7	472	1005.590137975379	34
7	484	1038.308158018523	35
7	490	1053.293452183994	36
7	497	1072.225530406186	37
7	510	1120.086426183102	38
7	525	1152.246671720459	39
7	530	1154.142983468966	40
7	535	1162.317380905273	41
7	538	1169.470891429442	42
7	586	1257.720377731584	43
7	594	1270.276931261535	44
7	600	1289.96228240382	45
7	610	1308.426570154145	46
7	617	1334.742141683582	47
7	632	1368.959044590421	48
7	635	1371.947207617954	49
7	641	1376.38378442529	50
7	657	1405.507827071999	51
7	681	1444.385113574848	52
7	693	1480.059721281932	53
7	696	1488.726294780898	54
7	701	1496.141136259839	55
7	717	1524.242338504501	56
7	723	1542.447631622299	57
7	743	1590.641998253917	58
7	761	1633.714350027253	59
7	792	1715.229752380084	60
7	824	1781.020742921571	61
7	835	1799.973669012292	62
7	857	1837.207809601665	63
7	870	1874.214819834976	64
7	873	1877.492323099577	65
7	876	1899.01190856079	66
7	898	1984.546275450773	67
7	901	1996.012842413922	68
7	930	2083.855153346219	69
7	936	2092.664060113132	70
7	942	2104.851380459965	71
7	950	2122.543875262575	72
7	962	2157.532000019822	73
7	965	2160.769943346489	74
7	970	2166.560262012353	75
7	1007	2245.259994245578	76
7	1010	2265.579539773758	77
7	1019	2280.874893329279	78
7	1023	2290.195761337989	79
7	1029	2308.037549004393	80
7	1044	2324.804840986635	81
7	1050	2333.642706438426	82
7	1083	2381.934676952752	83
7	1096	2411.664070294826	84
7	1151	2486.574186514758	85
8	165	368.958402505989	0
8	186	402.880317121656	0
8	189	407.622721466366	4.663282698689
8	192	422.204902756391	11.0538451616
8	195	432.207927424517	6.700191229667
8	218	469.80224824894	0
8	227	503.294683776111	0
8	230	507.710655197798	0
8	235	526.672789580331	0
8	240	533.176562197901	5.881870017995
8	249	552.879779829314	0
8	259	594.891439112898	0
8	276	617.699465251588	15.905303086696
8	281	627.791762872973	0
8	292	677.757467272476	0
8	306	693.3263811353	0
8	316	718.401955800649	0
8	320	721.220745948366	0
8	331	736.862253510529	0
8	338	747.539614225181	0
8	347	764.061586822477	13.454984800572
8	352	780.773926758294	0
8	362	790.1209739769	0
8	368	807.657632949454	0
8	374	830.082990056291	0
8	377	834.116293496415	0
8	384	845.77824134047	0
8	392	880.761697232639	0
8	399	893.730052334291	1.584636544907
8	402	894.373028441513	0
8	417	913.607525755531	0
8	424	921.715096576798	1.437889651506
8	431	934.672708179719	0
8	438	940.62118232579	4.592247012588
8	442	957.048087016828	0
8	448	958.210082287997	0
8	457	976.587912042603	0
8	472	1005.590137975379	0
8	484	1038.308158018523	0
8	487	1041.646711885229	3.101392622222
8	490	1053.293452183994	0
8	497	1072.225530406186	0
8	510	1120.086426183102	0
8	515	1128.31096406051	0.158720738757
8	520	1143.127614656938	7.284577037405
8	525	1152.246671720459	0
8	530	1154.142983468966	0
8	535	1162.317380905273	0
8	538	1169.470891429442	0
8	559	1188.827497975856	8.763825028844
8	562	1192.892031572801	10.407945036606
8	573	1220.958952113949	36.875475512226
8	574	1228.343112980093	8.975039462093
8	586	1257.720377731584	0
8	589	1262.035706985079	3.354697507477
8	594	1270.276931261535	0
8	600	1289.96228240382	0
8	605	1300.308810830662	7.745399121639
8	610	1308.426570154145	0
8	617	1334.742141683582	0
8	632	1368.959044590421	0
8	635	1371.947207617954	0
8	641	1376.38378442529	0
8	657	1405.507827071999	0
8	681	1444.385113574848	0
8	693	1480.059721281932	0
8	696	1488.726294780898	0
8	701	1496.141136259839	0
8	717	1524.242338504501	0
8	723	1542.447631622299	0
8	732	1559.185445391266	9.71936326091
8	743	1590.641998253917	0
8	761	1633.714350027253	0
8	792	1715.229752380084	0
8	803	1744.118874290295	21.013104759976
8	804	1754.344733381338	18.639148539886
8	805	1758.467038278914	19.15460158996
8	824	1781.020742921571	0
8	827	1792.295897443494	1.306129510051
8	832	1798.517441375714	0.506183198374
8	835	1799.973669012292	0
8	838	1802.889619859997	0.101008109861
8	857	1837.207809601665	0
8	870	1874.214819834976	0
8	873	1877.492323099577	0
8	876	1899.01190856079	0
8	881	1923.570329564267	14.864538535975
8	886	1932.149371756245	5.344495836655
8	898	1984.546275450773	0
8	901	1996.012842413922	0
8	930	2083.855153346219	0
8	936	2092.664060113132	0
8	942	2104.851380459965	0
8	950	2122.543875262575	0
8	962	2157.532000019822	0
8	965	2160.769943346489	0
8	970	2166.560262012353	0
8	975	2174.411360239034	4.094638665881
8	978	2194.029272869641	5.517724222857
8	985	2202.653293293329	4.019525583227
8	1007	2245.259994245578	0
8	1010	2265.579539773758	0
8	1019	2280.874893329279	0
8	1023	2290.195761337989	0
8	1029	2308.037549004393	0
8	1036	2310.9225697133	2.836827427795
8	1039	2313.945602065398	5.05837753855
8	1044	2324.804840986635	0
8	1050	2333.642706438426	0
8	1057	2343.04174923194	6.683293309643
8	1058	2343.405520660099	5.387841872165
8	1063	2350.278106224723	10.597301595765
8	1068	2357.116462951799	10.145550156319
8	1075	2367.944367265727	15.614856441859
8	1076	2368.211017908834	7.850472240832
8	1083	2381.934676952752	0
8	1096	2411.664070294826	0
8	1111	2432.184152661437	15.679843565612
8	1114	2436.158281264743	18.838382038177
8	1115	2438.799082220718	16.940001147686
8	1118	2440.974930276155	7.891281169355
8	1123	2449.687370604941	6.950368277229
8	1130	2458.16896747308	7.867371251859
8	1141	2477.619593408259	22.223434414198
8	1146	2479.707859477971	4.072668019485
8	1147	2482.35344096179	4.282831964856
8	1151	2486.574186514758	0
9	166	369.706647916529	23
9	189	407.622721466366	24
9	192	422.204902756391	25
9	195	432.207927424517	26
9	198	444.856861679103	27
9	219	475.560736145245	28
9	228	504.467461175157	29
9	233	516.388016615315	30
9	240	533.176562197901	31
9	243	540.432502434589	32
9	250	553.014305843574	33
9	276	617.699465251588	34
9	277	618.506326964628	35
9	286	656.861785714184	36
9	295	680.229641562427	37
9	309	703.112409770809	38
9	317	719.519118120137	39
9	321	721.38630691573	40
9	336	746.110932249725	41
9	347	764.061586822477	42
9	348	775.145794216661	43
9	353	784.21359790987	44
9	363	792.867528949155	45
9	369	809.024934397681	46
9	375	832.578324263277	47
9	380	835.599384689797	48
9	385	846.54785504646	49
9	399	893.730052334291	50
9	400	894.300022823941	51
9	403	895.46886423821	52
9	424	921.715096576798	53
9	427	931.405961709453	54
9	438	940.62118232579	55
9	439	944.910648779697	56
9	443	957.420429712762	57
9	451	968.150427350234	58
9	460	980.835900614381	59
9	475	1005.888775815508	60
9	487	1041.646711885229	61
9	488	1047.957976796359	62
9	495	1065.53774021036	63
9	498	1076.023112698034	64
9	515	1128.31096406051	65
9	520	1143.127614656938	66
9	523	1149.117132143312	67
9	526	1152.712043693066	68
9	531	1159.367808033855	69
9	536	1166.906908885771	70
9	559	1188.827497975856	71
9	562	1192.892031572801	72
9	573	1220.958952113949	73
9	574	1228.343112980093	74
9	575	1231.0248269039	75
9	589	1262.035706985079	76
9	592	1263.81847473532	77
9	595	1273.898309983995	78
9	605	1300.308810830662	79
9	606	1303.610020683177	80
9	611	1308.854301699517	81
9	618	1335.027852963383	82
9	633	1371.906958273264	83
9	636	1373.366739783233	84
9	644	1376.855653288805	85
9	658	1409.714164240837	86
9	682	1446.885878566811	87
9	694	1480.304396875358	88
9	697	1489.200678915332	89
9	702	1496.180251661172	90
9	718	1526.470939786107	91
9	732	1559.185445391266	92
9	735	1569.332786471716	93
9	746	1597.998357808113	94
9	766	1649.042007282665	95
9	803	1744.118874290295	96
9	804	1754.344733381338	97
9	805	1758.467038278914	98
9	808	1763.830334779709	99
9	827	1792.295897443494	100
9	832	1798.517441375714	101
9	833	1798.855504765703	102
9	838	1802.889619859997	103
9	841	1811.743986233853	104
9	860	1838.409696337816	105
9	871	1876.200499270262	106
9	874	1881.217657026791	107
9	881	1923.570329564267	108
9	886	1932.149371756245	109
9	887	1939.267408643819	110
9	899	1984.96846389706	111
9	912	2029.161301856563	112
9	931	2083.991334383291	113
9	939	2095.171849021282	114
9	945	2114.419781468569	115
9	951	2132.657729529595	116
9	963	2159.849941544255	117
9	966	2162.341782326392	118
9	975	2174.411360239034	119
9	978	2194.029272869641	120
9	985	2202.653293293329	121
9	988	2205.302549287388	122
9	1008	2262.820655659844	123
9	1013	2270.108081267488	124
9	1020	2284.198818833146	125
9	1024	2298.483179979292	126
9	1036	2310.9225697133	127
9	1039	2313.945602065398	128
9	1042	2324.623951526055	129
9	1045	2325.927080021095	130
9	1057	2343.04174923194	131
9	1058	2343.405520660099	132
9	1063	2350.278106224723	133
9	1068	2357.116462951799	134
9	1075	2367.944367265727	135
9	1076	2368.211017908834	136
9	1079	2374.891865080828	137
9	1084	2383.617237029955	138
9	1111	2432.184152661437	139
9	1114	2436.158281264743	140
9	1115	2438.799082220718	141
9	1118	2440.974930276155	142
9	1123	2449.687370604941	143
9	1130	2458.16896747308	144
9	1141	2477.619593408259	145
9	1146	2479.707859477971	146
9	1147	2482.35344096179	147
9	1148	2483.010634292451	148
9	1156	2492.721898941169	149
10	166	369.706647916529	0.74824541054
10	189	407.622721466366	4.74240434471
10	192	422.204902756391	19.245463988714
10	195	432.207927424517	21.056869829726
10	198	444.856861679103	19.349125484253
10	219	475.560736145245	5.758487896305
10	228	504.467461175157	1.172777399046
10	233	516.388016615315	8.677361417517
10	240	533.176562197901	6.50377261757
10	243	540.432502434589	13.137810254683
10	250	553.014305843574	0.13452601426
10	276	617.699465251588	22.80802613869
10	277	618.506326964628	16.712164799736
10	286	656.861785714184	29.070022841211
10	295	680.229641562427	2.472174289951
10	309	703.112409770809	9.786028635509
10	317	719.519118120137	1.117162319488
10	321	721.38630691573	0.165560967364
10	336	746.110932249725	9.248678739196
10	347	764.061586822477	16.521972597296
10	348	775.145794216661	24.539192194756
10	353	784.21359790987	3.439671151576
10	363	792.867528949155	2.746554972255
10	369	809.024934397681	1.367301448227
10	375	832.578324263277	2.495334206986
10	380	835.599384689797	1.483091193382
10	385	846.54785504646	0.76961370599
10	399	893.730052334291	12.968355101652
10	400	894.300022823941	2.154607034557
10	403	895.46886423821	1.095835796697
10	424	921.715096576798	8.107570821267
10	427	931.405961709453	11.128754784161
10	438	940.62118232579	5.948474146071
10	439	944.910648779697	8.881713466495
10	443	957.420429712762	0.372342695934
10	451	968.150427350234	9.940345062237
10	460	980.835900614381	4.247988571778
10	475	1005.888775815508	0.298637840129
10	487	1041.646711885229	3.338553866706
10	488	1047.957976796359	9.412657533352
10	495	1065.53774021036	12.244288026366
10	498	1076.023112698034	3.797582291848
10	515	1128.31096406051	8.224537877408
10	520	1143.127614656938	14.975371335185
10	523	1149.117132143312	13.274094523779
10	526	1152.712043693066	0.465371972607
10	531	1159.367808033855	5.224824564889
10	536	1166.906908885771	4.589527980498
10	559	1188.827497975856	19.356606546414
10	562	1192.892031572801	12.828358625789
10	573	1220.958952113949	38.474865577754
10	574	1228.343112980093	44.25963637837
10	575	1231.0248269039	11.6567533859
10	589	1262.035706985079	4.315329253495
10	592	1263.81847473532	5.137465257718
10	595	1273.898309983995	3.62137872246
10	605	1300.308810830662	10.346528426842
10	606	1303.610020683177	11.046608974154
10	611	1308.854301699517	0.427731545372
10	618	1335.027852963383	0.285711279801
10	633	1371.906958273264	2.947913682843
10	636	1373.366739783233	1.419532165279
10	644	1376.855653288805	0.471868863515
10	658	1409.714164240837	4.206337168838
10	682	1446.885878566811	2.500764991963
10	694	1480.304396875358	0.244675593426
10	697	1489.200678915332	0.474384134434
10	702	1496.180251661172	0.039115401333
10	718	1526.470939786107	2.228601281606
10	732	1559.185445391266	16.737813768967
10	735	1569.332786471716	19.86670434136
10	746	1597.998357808113	7.356359554196
10	766	1649.042007282665	15.327657255412
10	803	1744.118874290295	28.889121910211
10	804	1754.344733381338	31.238963851019
10	805	1758.467038278914	22.761453437462
10	808	1763.830334779709	24.517898090755
10	827	1792.295897443494	11.275154521923
10	832	1798.517441375714	7.527673442271
10	833	1798.855504765703	0.844246588363
10	838	1802.889619859997	2.915950847705
10	841	1811.743986233853	8.955374483717
10	860	1838.409696337816	1.201886736151
10	871	1876.200499270262	1.985679435286
10	874	1881.217657026791	3.725333927214
10	881	1923.570329564267	24.558421003477
10	886	1932.149371756245	23.443580727953
10	887	1939.267408643819	12.462532724229
10	899	1984.96846389706	0.422188446287
10	912	2029.161301856563	33.148459442641
10	931	2083.991334383291	0.136181037072
10	939	2095.171849021282	2.50778890815
10	945	2114.419781468569	9.568401008604
10	951	2132.657729529595	10.11385426702
10	963	2159.849941544255	2.317941524433
10	966	2162.341782326392	1.571838979903
10	975	2174.411360239034	7.851098226681
10	978	2194.029272869641	23.712551296488
10	985	2202.653293293329	14.141744646545
10	988	2205.302549287388	6.668781577286
10	1008	2262.820655659844	17.560661414266
10	1013	2270.108081267488	4.52854149373
10	1020	2284.198818833146	3.323925503867
10	1024	2298.483179979292	8.287418641303
10	1036	2310.9225697133	2.885020708907
10	1039	2313.945602065398	5.859859779893
10	1042	2324.623951526055	15.736726999207
10	1045	2325.927080021095	1.12223903446
10	1057	2343.04174923194	9.399042793514
10	1058	2343.405520660099	7.047064737802
10	1063	2350.278106224723	12.260427436789
10	1068	2357.116462951799	17.435658322841
10	1075	2367.944367265727	20.973454470247
10	1076	2368.211017908834	15.881507084966
10	1079	2374.891865080828	14.531319412826
10	1084	2383.617237029955	1.682560077203
10	1111	2432.184152661437	20.520082366611
10	1114	2436.158281264743	19.653972168918
10	1115	2438.799082220718	21.479182994152
10	1118	2440.974930276155	19.115849203123
10	1123	2449.687370604941	16.603721498141
10	1130	2458.16896747308	15.431965145368
10	1141	2477.619593408259	27.317997187038
10	1146	2479.707859477971	24.31170048391
10	1147	2482.35344096179	6.718249503304
10	1148	2483.010634292451	4.940025295517
10	1156	2492.721898941169	6.147712426411
11	1159	2500	0.078
12	1159	2500	0.0596

