version 2
run experiments_medium_game_mode1-1764-20230311-09:46:26-17519
attr configname experiments_medium_game_mode1
attr datetime 20230311-09:46:26
attr experiment experiments_medium_game_mode1
attr inifile omnetpp.ini
attr iterationvars "$0=7.5, $1=7, $2=0"
attr iterationvarsf 7.5,7,0-
attr measurement "$0=7.5, $1=7, $2=0"
attr network Network
attr processid 17519
attr repetition 24
attr replication #24
attr resultdir results
attr runnumber 1764
attr seedset 24
param *.boss.arrival_mean 20
param *.boss.service_mean 7.5
param *.minion.arrival_mean 10
param *.minion.service_mean 7
param *.player.recover_rate_x 0
param **.minion.arrival_distribution 0
param **.minion.service_distribution 0
param **.boss.arrival_distribution 0
param **.boss.service_distribution 0

vector 0 Network.player minion_defeated_stat:vector ETV
attr source signal_minion_defeated
vector 1 Network.player minion_jobs_queue_number_stat:vector ETV
attr source signal_minion_jobs_queue_number
vector 2 Network.player minion_response_time_stat:vector ETV
attr source signal_minion_response_time
vector 3 Network.player minion_waiting_time_stat:vector ETV
attr source signal_minion_waiting_time
vector 4 Network.player minion_jobs_number_stat:vector ETV
attr source signal_minion_jobs_number
vector 5 Network.player boss_jobs_number_stat:vector ETV
attr source signal_boss_jobs_number
vector 6 Network.player boss_jobs_queue_number_stat:vector ETV
attr source signal_boss_jobs_queue_number
vector 7 Network.player minion_recovered_stat:vector ETV
attr source signal_minion_recovered
vector 8 Network.player boss_waiting_time_stat:vector ETV
attr source signal_boss_waiting_time
vector 9 Network.player boss_defeated_stat:vector ETV
attr source signal_boss_defeated
vector 10 Network.player boss_response_time_stat:vector ETV
attr source signal_boss_response_time
vector 11 Network.player minion_throughput:vector ETV
attr source signal_minion_throughput
vector 12 Network.player boss_throughput:vector ETV
attr source signal_boss_throughput
0	161	351.141434453673	22
0	162	356.582723829212	23
0	165	359.530156162024	24
0	166	364.126313304101	25
0	174	380.496359632844	26
0	175	381.516735667542	27
0	184	407.674564909044	28
0	185	407.689198835713	29
0	186	408.9164167833	30
0	187	409.163194206817	31
0	188	409.995912229172	32
0	189	415.785426509282	33
0	190	419.540241459476	34
0	191	421.392453431518	35
0	192	423.903114631491	36
0	193	425.227668699986	37
0	194	434.071865231205	38
0	195	435.10008555754	39
0	196	435.387086527534	40
0	197	436.488594805421	41
0	202	445.93299461964	42
0	208	458.504167209946	43
0	209	461.962843127919	44
0	212	468.421443049488	45
0	213	469.201415264285	46
0	222	488.39013344787	47
0	228	496.644207211343	48
0	235	520.383284745494	49
0	248	562.495401940132	50
0	249	566.753044452871	51
0	250	566.921562604662	52
0	253	570.564190414225	53
0	254	575.056111363007	54
0	255	576.400472530004	55
0	258	583.084305292632	56
0	261	585.246660425674	57
0	264	589.181617126919	58
0	270	632.968005193507	59
0	273	640.946774110419	60
0	283	655.501925055987	61
0	286	657.594137359094	62
0	305	695.09446178996	63
0	306	697.279773993525	64
0	318	724.037776950763	65
0	319	724.659995042035	66
0	322	728.711193116666	67
0	334	758.052539627792	68
0	335	758.101121276596	69
0	336	761.466122603274	70
0	341	766.173713167877	71
0	344	785.475644583829	72
0	349	800.269842822671	73
0	352	803.426565934816	74
0	353	807.320001604842	75
0	357	825.798466502927	76
0	358	827.160823296685	77
0	359	828.110810648892	78
0	360	829.170344077776	79
0	361	832.940569144521	80
0	366	837.397492908829	81
0	386	875.591398178446	82
0	390	887.025306524519	83
0	391	894.668700813212	84
0	394	910.85459683125	85
0	395	915.301443110476	86
0	398	920.114163296158	87
0	399	920.862275729619	88
0	407	935.501819896703	89
0	408	936.214533468706	90
0	423	968.536280364199	91
0	424	970.677159123408	92
0	425	972.137450929995	93
0	426	974.794893354806	94
0	427	978.532031036843	95
0	428	988.451669285949	96
0	433	999.869027373625	97
0	434	1003.385397237404	98
0	437	1018.349124192406	99
0	440	1022.468377083064	100
0	445	1024.504961980698	101
0	446	1028.769132297692	102
0	455	1047.72588141875	103
0	469	1093.446758820147	104
0	470	1097.493927371796	105
0	471	1097.784321836327	106
0	472	1099.077413133904	107
0	475	1105.695938076874	108
0	476	1122.73127318733	109
0	477	1142.795217062977	110
0	507	1221.969615958559	111
0	512	1242.816077111667	112
0	515	1244.708245301161	113
0	518	1249.921889606911	114
0	524	1260.378081080556	115
0	528	1262.306717565208	116
0	529	1264.487990706709	117
0	530	1268.782493841032	118
0	533	1271.51539487464	119
0	534	1272.46494245634	120
0	535	1291.543293877342	121
0	536	1298.029040962017	122
0	540	1306.908277204745	123
0	543	1324.194615229656	124
0	549	1334.379235344674	125
0	552	1346.798637889225	126
0	558	1349.009593685074	127
0	566	1361.009319269314	128
0	567	1364.088451068299	129
0	570	1373.769638116866	130
0	579	1413.824432929502	131
0	588	1431.360450108064	132
0	593	1434.973955005762	133
0	603	1442.097881072045	134
0	606	1458.542234008009	135
0	607	1465.486249329487	136
0	613	1474.830373924288	137
0	614	1476.771306281155	138
0	622	1489.176047802342	139
0	623	1489.920199011735	140
0	626	1491.599519963744	141
0	627	1493.04713844911	142
0	630	1509.146062283864	143
0	633	1516.722031199604	144
0	636	1521.33116863554	145
0	639	1523.963488922904	146
0	653	1548.729893926123	147
0	654	1559.594744624957	148
0	659	1564.897110771619	149
0	660	1566.351205834442	150
0	663	1569.142889854874	151
0	668	1580.728208067262	152
0	673	1583.613667038036	153
0	674	1587.270138484121	154
0	675	1592.674488069643	155
0	685	1617.074421022188	156
0	686	1618.767071050666	157
0	687	1622.23618330451	158
0	696	1649.985758541311	159
0	699	1663.101934668059	160
0	700	1669.54883945815	161
0	701	1672.136909089021	162
0	720	1709.413953677416	163
0	723	1711.568389668644	164
0	724	1711.762309906883	165
0	725	1712.18593536432	166
0	728	1713.631786248116	167
0	731	1723.440177140351	168
0	735	1734.494860218643	169
0	736	1735.531662444445	170
0	749	1752.724602746154	171
0	753	1768.36996100602	172
0	769	1797.293874133267	173
0	770	1801.148704179702	174
0	781	1829.260154031376	175
0	782	1833.342471465255	176
0	787	1845.098705183054	177
0	788	1847.06603546401	178
0	789	1862.973642313749	179
0	790	1864.901664518754	180
0	793	1873.379811636609	181
0	794	1873.933636038797	182
0	795	1876.652176973947	183
0	796	1876.714962817214	184
0	797	1885.312153132749	185
0	806	1913.407346189853	186
0	807	1914.709254330246	187
0	810	1918.236777871466	188
0	816	1934.658791196333	189
0	822	1947.295222888578	190
0	868	2046.851507400717	191
0	871	2053.367511264845	192
0	872	2054.880226563372	193
0	873	2056.275839269336	194
0	876	2073.359138715776	195
0	883	2092.544188901343	196
0	884	2100.607530625461	197
0	885	2103.207742848586	198
0	886	2106.553482128815	199
0	891	2121.555002060368	200
0	892	2123.372631824818	201
0	893	2124.962838605234	202
0	930	2226.19610424543	203
0	931	2233.136949184243	204
0	932	2237.668024363078	205
0	933	2240.298956712576	206
0	936	2249.732204540244	207
0	940	2265.690912007922	208
0	941	2265.814893765044	209
0	942	2275.108517187942	210
0	945	2284.245644012862	211
0	955	2297.77922195463	212
0	958	2305.997358413388	213
0	961	2324.436101835282	214
0	967	2333.572132687557	215
0	970	2350.830716698109	216
0	971	2351.138886381257	217
0	979	2361.490568046389	218
0	980	2363.686113194727	219
0	981	2366.058156936394	220
0	984	2369.818739471107	221
0	987	2375.539484800502	222
0	988	2376.661502097841	223
0	991	2381.568912341662	224
0	998	2395.285056501201	225
0	1001	2400.606460147975	226
0	1013	2423.847124658505	227
0	1014	2427.780471026121	228
0	1018	2436.109576619594	229
0	1021	2455.417262325449	230
1	161	351.141434453673	16
1	162	356.582723829212	15
1	164	356.789216703952	15
1	165	359.530156162024	15
1	166	364.126313304101	14
1	168	366.407720533371	14
1	173	377.040571376589	15
1	174	380.496359632844	15
1	175	381.516735667542	14
1	183	407.187138617204	14
1	184	407.674564909044	14
1	185	407.689198835713	13
1	186	408.9164167833	12
1	187	409.163194206817	11
1	188	409.995912229172	10
1	189	415.785426509282	9
1	190	419.540241459476	8
1	191	421.392453431518	7
1	192	423.903114631491	6
1	193	425.227668699986	5
1	194	434.071865231205	4
1	195	435.10008555754	3
1	196	435.387086527534	2
1	197	436.488594805421	1
1	199	441.086758584803	1
1	201	444.494047951664	2
1	202	445.93299461964	2
1	206	454.812616210221	2
1	208	458.504167209946	2
1	209	461.962843127919	1
1	211	465.641600051131	1
1	212	468.421443049488	1
1	213	469.201415264285	0
1	220	479.277820095291	0
1	222	488.39013344787	0
1	227	494.852513830573	0
1	228	496.644207211343	0
1	230	512.690580686026	0
1	232	513.291580781746	1
1	234	513.351339505375	2
1	235	520.383284745494	2
1	241	536.37120453553	2
1	243	543.993126690739	3
1	245	544.734462538936	4
1	248	562.495401940132	4
1	249	566.753044452871	3
1	250	566.921562604662	2
1	252	570.095733877643	2
1	253	570.564190414225	2
1	254	575.056111363007	1
1	255	576.400472530004	0
1	257	581.896687504052	0
1	258	583.084305292632	0
1	260	583.921324485665	0
1	261	585.246660425674	0
1	263	585.279116190361	0
1	264	589.181617126919	0
1	268	628.667395432288	0
1	270	632.968005193507	0
1	272	639.69467870296	0
1	273	640.946774110419	0
1	275	646.035768047026	0
1	277	646.700493880238	1
1	282	654.825600306625	2
1	283	655.501925055987	2
1	285	656.330937168635	2
1	286	657.594137359094	2
1	288	659.22283601459	2
1	292	662.930578404102	3
1	294	668.660465822505	4
1	296	669.213705429238	5
1	300	686.651463762509	6
1	303	689.556081539344	7
1	305	695.09446178996	7
1	306	697.279773993525	6
1	308	699.689261245628	6
1	310	700.697231461097	7
1	315	718.013659795175	8
1	317	722.983967879998	9
1	318	724.037776950763	9
1	319	724.659995042035	8
1	321	726.315870106654	8
1	322	728.711193116666	8
1	324	748.09093089818	8
1	328	754.082570057365	9
1	330	755.845534507378	10
1	333	757.767462288997	11
1	334	758.052539627792	11
1	335	758.101121276596	10
1	336	761.466122603274	9
1	338	763.296326840998	9
1	340	763.756724342622	10
1	341	766.173713167877	10
1	343	783.013662615862	10
1	344	785.475644583829	10
1	346	793.983471542549	10
1	348	798.026774169896	11
1	349	800.269842822671	11
1	351	801.977773532648	11
1	352	803.426565934816	11
1	353	807.320001604842	10
1	357	825.798466502927	9
1	358	827.160823296685	8
1	359	828.110810648892	7
1	360	829.170344077776	6
1	361	832.940569144521	5
1	363	833.465877522527	5
1	365	836.465091621941	6
1	366	837.397492908829	6
1	368	841.389145078265	6
1	372	855.164496103926	7
1	377	859.058740100249	8
1	381	870.96052869789	9
1	384	872.015518815138	10
1	386	875.591398178446	10
1	390	887.025306524519	9
1	391	894.668700813212	8
1	393	905.7906501075	8
1	394	910.85459683125	8
1	395	915.301443110476	7
1	397	917.454414024692	7
1	398	920.114163296158	7
1	399	920.862275729619	6
1	401	921.532650731636	6
1	403	927.925128540496	7
1	407	935.501819896703	7
1	408	936.214533468706	6
1	413	949.937502961437	6
1	415	955.67258158671	7
1	419	961.254644888158	8
1	422	967.551004355144	9
1	423	968.536280364199	9
1	424	970.677159123408	8
1	425	972.137450929995	7
1	426	974.794893354806	6
1	427	978.532031036843	5
1	428	988.451669285949	4
1	430	994.532880761544	4
1	432	995.30254166152	5
1	433	999.869027373625	5
1	434	1003.385397237404	4
1	436	1009.931705878689	4
1	437	1018.349124192406	4
1	439	1021.737113462098	4
1	440	1022.468377083064	4
1	442	1024.17178272167	4
1	444	1024.471307065166	5
1	445	1024.504961980698	5
1	446	1028.769132297692	4
1	453	1044.17301064952	4
1	455	1047.72588141875	4
1	457	1058.134734592907	4
1	466	1077.59144860176	5
1	469	1093.446758820147	5
1	470	1097.493927371796	4
1	471	1097.784321836327	3
1	472	1099.077413133904	2
1	474	1099.7668425196	2
1	475	1105.695938076874	2
1	476	1122.73127318733	1
1	477	1142.795217062977	0
1	486	1177.970402632044	0
1	493	1196.635886742355	1
1	495	1200.226436534748	2
1	497	1205.305018111409	3
1	499	1208.547369053641	4
1	503	1215.12574070078	5
1	505	1219.267934439993	6
1	507	1221.969615958559	6
1	509	1237.053733865379	6
1	511	1239.590833280954	7
1	512	1242.816077111667	7
1	514	1243.366400938419	7
1	515	1244.708245301161	7
1	517	1247.006478551144	7
1	518	1249.921889606911	7
1	520	1256.950644294721	7
1	524	1260.378081080556	7
1	528	1262.306717565208	6
1	529	1264.487990706709	5
1	530	1268.782493841032	4
1	532	1269.448195677003	4
1	533	1271.51539487464	4
1	534	1272.46494245634	3
1	535	1291.543293877342	2
1	536	1298.029040962017	1
1	540	1306.908277204745	0
1	542	1316.893751880655	0
1	543	1324.194615229656	0
1	547	1326.742537226964	0
1	549	1334.379235344674	0
1	551	1345.848286259193	0
1	552	1346.798637889225	0
1	557	1348.648970850869	0
1	558	1349.009593685074	0
1	563	1356.52134966197	0
1	565	1358.668885500997	1
1	566	1361.009319269314	1
1	567	1364.088451068299	0
1	569	1366.071723712859	0
1	570	1373.769638116866	0
1	578	1412.303689929352	0
1	579	1413.824432929502	0
1	587	1429.733317691778	0
1	588	1431.360450108064	0
1	590	1434.323136498465	0
1	592	1434.964109108602	1
1	593	1434.973955005762	1
1	597	1436.961393363256	1
1	599	1438.014710699769	2
1	601	1440.91670006931	3
1	603	1442.097881072045	3
1	605	1452.643273660911	3
1	606	1458.542234008009	3
1	607	1465.486249329487	2
1	612	1471.204834866045	2
1	613	1474.830373924288	2
1	614	1476.771306281155	1
1	616	1477.679218653875	1
1	618	1483.295070252198	2
1	622	1489.176047802342	2
1	623	1489.920199011735	1
1	625	1491.594781451896	1
1	626	1491.599519963744	1
1	627	1493.04713844911	0
1	629	1505.030160024024	0
1	630	1509.146062283864	0
1	632	1516.450343239982	0
1	633	1516.722031199604	0
1	635	1517.991208355858	0
1	636	1521.33116863554	0
1	638	1523.870921068251	0
1	639	1523.963488922904	0
1	648	1538.057668432891	0
1	652	1546.248679213656	1
1	653	1548.729893926123	1
1	654	1559.594744624957	0
1	656	1563.091021173002	0
1	658	1564.606893435329	1
1	659	1564.897110771619	1
1	660	1566.351205834442	0
1	662	1568.309056649513	0
1	663	1569.142889854874	0
1	665	1578.568099306452	0
1	667	1579.021682457924	1
1	668	1580.728208067262	1
1	670	1582.461246981718	1
1	672	1582.712989310234	2
1	673	1583.613667038036	2
1	674	1587.270138484121	1
1	675	1592.674488069643	0
1	677	1603.358994729019	0
1	682	1607.744862763942	1
1	684	1612.46891407111	2
1	685	1617.074421022188	2
1	686	1618.767071050666	1
1	687	1622.23618330451	0
1	689	1636.770725581656	0
1	691	1643.752179947993	1
1	693	1644.931583917353	2
1	695	1645.208321763132	3
1	696	1649.985758541311	3
1	698	1659.176969637964	3
1	699	1663.101934668059	3
1	700	1669.54883945815	2
1	701	1672.136909089021	1
1	703	1674.345312371334	1
1	710	1685.420559474964	2
1	712	1689.950900213952	3
1	714	1697.931056839573	4
1	717	1705.363008194692	5
1	719	1708.149830541008	6
1	720	1709.413953677416	6
1	722	1710.341140059046	6
1	723	1711.568389668644	6
1	724	1711.762309906883	5
1	725	1712.18593536432	4
1	727	1713.362897446005	4
1	728	1713.631786248116	4
1	730	1716.826918214573	4
1	731	1723.440177140351	4
1	735	1734.494860218643	3
1	736	1735.531662444445	2
1	740	1746.520972385423	2
1	744	1750.012828917756	3
1	746	1750.7522501866	4
1	749	1752.724602746154	4
1	753	1768.36996100602	3
1	758	1780.545645202351	3
1	760	1783.624836174733	4
1	762	1785.515637779284	5
1	764	1786.608102528738	6
1	766	1788.100980481798	7
1	768	1792.129076952849	8
1	769	1797.293874133267	8
1	770	1801.148704179702	7
1	774	1809.173374539332	7
1	776	1813.686348165498	8
1	781	1829.260154031376	8
1	782	1833.342471465255	7
1	784	1834.396774731413	7
1	786	1837.476149774725	8
1	787	1845.098705183054	8
1	788	1847.06603546401	7
1	789	1862.973642313749	6
1	790	1864.901664518754	5
1	792	1870.033855423056	5
1	793	1873.379811636609	5
1	794	1873.933636038797	4
1	795	1876.652176973947	3
1	796	1876.714962817214	2
1	797	1885.312153132749	1
1	799	1890.545216059208	1
1	806	1913.407346189853	1
1	807	1914.709254330246	0
1	809	1916.765702130355	0
1	810	1918.236777871466	0
1	815	1934.493965339324	0
1	816	1934.658791196333	0
1	818	1937.97189039777	0
1	822	1947.295222888578	0
1	835	1976.855919890475	0
1	842	1988.823419157974	1
1	847	1996.727013769419	2
1	850	1998.85047389208	3
1	854	2006.840808922118	4
1	858	2024.745438396731	5
1	860	2025.944021961315	6
1	862	2028.289970011253	7
1	867	2040.45613515477	8
1	868	2046.851507400717	8
1	870	2047.342792869357	8
1	871	2053.367511264845	8
1	872	2054.880226563372	7
1	873	2056.275839269336	6
1	875	2067.117905936518	6
1	876	2073.359138715776	6
1	878	2079.932128378416	6
1	880	2080.182697143549	7
1	882	2080.499574889648	8
1	883	2092.544188901343	8
1	884	2100.607530625461	7
1	885	2103.207742848586	6
1	886	2106.553482128815	5
1	888	2107.610656614475	5
1	890	2112.345383053022	6
1	891	2121.555002060368	6
1	892	2123.372631824818	5
1	893	2124.962838605234	4
1	895	2130.249105147754	4
1	897	2138.55333155246	5
1	901	2143.419866067781	6
1	914	2171.416923986947	7
1	916	2174.188701438503	8
1	918	2187.093761591359	9
1	921	2192.155402618666	10
1	923	2204.841647655703	11
1	925	2206.245984870921	12
1	930	2226.19610424543	12
1	931	2233.136949184243	11
1	932	2237.668024363078	10
1	933	2240.298956712576	9
1	935	2244.13923776168	9
1	936	2249.732204540244	9
1	940	2265.690912007922	8
1	941	2265.814893765044	7
1	942	2275.108517187942	6
1	944	2277.537847225243	6
1	945	2284.245644012862	6
1	949	2289.141865512103	6
1	951	2291.318595943235	7
1	954	2295.59156571577	8
1	955	2297.77922195463	8
1	957	2297.947119131108	8
1	958	2305.997358413388	8
1	960	2316.278446438018	8
1	961	2324.436101835282	8
1	963	2327.98601757414	8
1	967	2333.572132687557	8
1	969	2345.680151314537	8
1	970	2350.830716698109	8
1	971	2351.138886381257	7
1	973	2351.582526638814	7
1	978	2361.054874266508	8
1	979	2361.490568046389	8
1	980	2363.686113194727	7
1	981	2366.058156936394	6
1	983	2366.210491028203	6
1	984	2369.818739471107	6
1	986	2370.222330685964	6
1	987	2375.539484800502	6
1	988	2376.661502097841	5
1	990	2379.145448243972	5
1	991	2381.568912341662	5
1	993	2389.248330480956	5
1	995	2389.842691429586	6
1	997	2393.095394791491	7
1	998	2395.285056501201	7
1	1000	2396.301173612793	7
1	1001	2400.606460147975	7
1	1003	2402.826514123312	7
1	1005	2405.848596340953	8
1	1007	2413.005412113603	9
1	1011	2418.180451570403	10
1	1013	2423.847124658505	10
1	1014	2427.780471026121	9
1	1018	2436.109576619594	8
1	1020	2443.112190058738	8
1	1021	2455.417262325449	8
1	1025	2457.571520976012	8
1	1031	2492.925146764597	9
1	1034	2498.096628724313	10
1	1036	2499.167734483319	11
2	161	351.141434453673	137.33060971269
2	162	356.582723829212	117.82876567741
2	165	359.530156162024	113.63119907408
2	166	364.126313304101	107.29169625871
2	174	380.496359632844	116.15338182331
2	175	381.516735667542	113.55337942823
2	184	407.674564909044	130.43016150532
2	185	407.689198835713	127.33408490324
2	186	408.9164167833	128.19123889428
2	187	409.163194206817	106.7153571586
2	188	409.995912229172	102.45255511886
2	189	415.785426509282	108.21413380952
2	190	419.540241459476	98.231532718999
2	191	421.392453431518	83.911227859249
2	192	423.903114631491	67.113897927539
2	193	425.227668699986	58.819948166615
2	194	434.071865231205	61.937066944093
2	195	435.10008555754	58.059514180951
2	196	435.387086527534	52.737177763643
2	197	436.488594805421	38.005720490619
2	202	445.93299461964	38.745856002436
2	208	458.504167209946	14.010119258282
2	209	461.962843127919	9.339556551012
2	212	468.421443049488	13.608826839267
2	213	469.201415264285	3.559815213154
2	222	488.39013344787	9.112313352579
2	228	496.644207211343	1.79169338077
2	235	520.383284745494	7.692704059468
2	248	562.495401940132	49.144062434757
2	249	566.753044452871	40.727420075352
2	250	566.921562604662	30.550358069132
2	253	570.564190414225	26.571063723486
2	254	575.056111363007	30.321648824071
2	255	576.400472530004	6.304738652361
2	258	583.084305292632	1.18761778858
2	261	585.246660425674	1.325335940009
2	264	589.181617126919	3.902500936558
2	270	632.968005193507	4.300609761219
2	273	640.946774110419	1.252095407459
2	283	655.501925055987	8.801431175749
2	286	657.594137359094	6.549359252442
2	305	695.09446178996	38.763524621325
2	306	697.279773993525	38.056937978935
2	318	724.037776950763	61.107198546661
2	319	724.659995042035	55.99952921953
2	322	728.711193116666	59.497487687428
2	334	758.052539627792	68.496458088448
2	335	758.101121276596	58.411860030968
2	336	761.466122603274	60.768891142177
2	341	766.173713167877	57.979281914788
2	344	785.475644583829	67.461984788654
2	349	800.269842822671	77.285874942673
2	352	803.426565934816	77.110695828162
2	353	807.320001604842	59.229070706662
2	357	825.798466502927	71.715896445562
2	358	827.160823296685	71.315288789307
2	359	828.110810648892	70.343348359895
2	360	829.170344077776	65.874017236778
2	361	832.940569144521	69.183844801899
2	366	837.397492908829	54.383830292967
2	386	875.591398178446	73.613624645798
2	390	887.025306524519	53.559429001992
2	391	894.668700813212	58.203609191271
2	394	910.85459683125	69.465451752985
2	395	915.301443110476	68.269162805371
2	398	920.114163296158	64.949667192232
2	399	920.862275729619	62.269785272735
2	407	935.501819896703	64.541291198813
2	408	936.214533468706	64.199014653568
2	423	968.536280364199	51.081866339507
2	424	970.677159123408	49.144508391772
2	425	972.137450929995	44.212322389499
2	426	974.794893354806	44.526970848981
2	427	978.532031036843	41.21182015603
2	428	988.451669285949	38.514166324512
2	433	999.869027373625	44.196445786915
2	434	1003.385397237404	46.037228513796
2	437	1018.349124192406	57.094479304248
2	440	1022.468377083064	54.91737272792
2	445	1024.504961980698	29.972081219154
2	446	1028.769132297692	33.466590636172
2	455	1047.72588141875	23.55409869708
2	469	1093.446758820147	55.618803682768
2	470	1097.493927371796	53.320916722276
2	471	1097.784321836327	39.64958724342
2	472	1099.077413133904	37.610341369292
2	475	1105.695938076874	29.416964847059
2	476	1122.73127318733	45.13982458557
2	477	1142.795217062977	43.028374543377
2	507	1221.969615958559	25.333729216204
2	512	1242.816077111667	42.589640576919
2	515	1244.708245301161	39.403227189752
2	518	1249.921889606911	41.37452055327
2	524	1260.378081080556	45.252340379776
2	528	1262.306717565208	25.252983699829
2	529	1264.487990706709	24.897157425755
2	530	1268.782493841032	25.416092902613
2	533	1271.51539487464	24.508916323496
2	534	1272.46494245634	15.514298161619
2	535	1291.543293877342	34.525696551737
2	536	1298.029040962017	37.178527622788
2	540	1306.908277204745	6.969929320058
2	543	1324.194615229656	7.300863349001
2	549	1334.379235344674	7.63669811771
2	552	1346.798637889225	0.950351630032
2	558	1349.009593685074	0.360622834205
2	566	1361.009319269314	4.487969607344
2	567	1364.088451068299	5.419565567302
2	570	1373.769638116866	7.697914404007
2	579	1413.824432929502	1.52074300015
2	588	1431.360450108064	1.627132416286
2	593	1434.973955005762	0.650818507297
2	603	1442.097881072045	5.375550545004
2	606	1458.542234008009	21.580840644753
2	607	1465.486249329487	27.471538629718
2	613	1474.830373924288	22.187100263377
2	614	1476.771306281155	8.51605184926
2	622	1489.176047802342	11.496829148467
2	623	1489.920199011735	6.625128759537
2	626	1491.599519963744	4.87081481237
2	627	1493.04713844911	1.452356997214
2	630	1509.146062283864	4.11590225984
2	633	1516.722031199604	0.271687959622
2	636	1521.33116863554	3.339960279682
2	639	1523.963488922904	0.092567854653
2	653	1548.729893926123	10.672225493232
2	654	1559.594744624957	13.346065411301
2	659	1564.897110771619	1.806089598617
2	660	1566.351205834442	1.744312399113
2	663	1569.142889854874	0.833833205361
2	668	1580.728208067262	2.16010876081
2	673	1583.613667038036	4.591984580112
2	674	1587.270138484121	4.808891502403
2	675	1592.674488069643	9.961498759409
2	685	1617.074421022188	11.855562863814
2	686	1618.767071050666	11.022208286724
2	687	1622.23618330451	9.7672692334
2	696	1649.985758541311	13.215032959655
2	699	1663.101934668059	19.349754720066
2	700	1669.54883945815	24.617255540797
2	701	1672.136909089021	26.928587325889
2	720	1709.413953677416	27.665403903905
2	723	1711.568389668644	26.163424978265
2	724	1711.762309906883	26.341750431919
2	725	1712.18593536432	22.235035150368
2	728	1713.631786248116	15.700729408543
2	731	1723.440177140351	18.077168945659
2	735	1734.494860218643	24.153720159597
2	736	1735.531662444445	22.16876499844
2	749	1752.724602746154	19.608185692817
2	753	1768.36996100602	21.848988620597
2	769	1797.293874133267	46.541623946667
2	770	1801.148704179702	39.090818897363
2	781	1829.260154031376	48.714508829025
2	782	1833.342471465255	49.717635290522
2	787	1845.098705183054	59.58306740377
2	788	1847.06603546401	60.457932935272
2	789	1862.973642313749	74.872661831951
2	790	1864.901664518754	72.772587565905
2	793	1873.379811636609	70.111298291368
2	794	1873.933636038797	64.760261499465
2	795	1876.652176973947	62.965828808449
2	796	1876.714962817214	42.318188085801
2	797	1885.312153132749	47.836003358024
2	806	1913.407346189853	22.862130130645
2	807	1914.709254330246	15.239570499559
2	810	1918.236777871466	1.471075741111
2	816	1934.658791196333	0.164825857009
2	822	1947.295222888578	6.261662718489
2	868	2046.851507400717	69.995587510242
2	871	2053.367511264845	64.544092106871
2	872	2054.880226563372	58.153212793953
2	873	2056.275839269336	57.425365377256
2	876	2073.359138715776	66.518329793658
2	883	2092.544188901343	67.798750504612
2	884	2100.607530625461	74.663508664146
2	885	2103.207742848586	74.917772837333
2	886	2106.553482128815	66.097346974045
2	891	2121.555002060368	74.212209191011
2	892	2123.372631824818	56.2547258883
2	893	2124.962838605234	45.030710226818
2	930	2226.19610424543	145.69652935578
2	931	2233.136949184243	125.52629256977
2	932	2237.668024363078	125.32264131006
2	933	2240.298956712576	110.04985156482
2	936	2249.732204540244	111.17887298778
2	940	2265.690912007922	122.27104594014
2	941	2265.814893765044	94.397969778097
2	942	2275.108517187942	100.91981574944
2	945	2284.245644012862	97.151882421503
2	955	2297.77922195463	92.937574298927
2	958	2305.997358413388	99.751373542467
2	961	2324.436101835282	80.296864073602
2	967	2333.572132687557	56.034285462314
2	970	2350.830716698109	63.797189768879
2	971	2351.138886381257	61.997020869154
2	979	2361.490568046389	65.899002330619
2	980	2363.686113194727	65.738994063619
2	981	2366.058156936394	49.779710498376
2	984	2369.818739471107	41.832721896967
2	987	2375.539484800502	42.550341299728
2	988	2376.661502097841	30.981350783304
2	991	2381.568912341662	29.986385702848
2	998	2395.285056501201	43.573166377718
2	1001	2400.606460147975	39.551585881467
2	1013	2423.847124658505	53.624793972541
2	1014	2427.780471026121	48.635022782149
2	1018	2436.109576619594	46.266885190008
2	1021	2455.417262325449	62.321867533958
3	161	351.141434453673	112.38747630187
3	162	356.582723829212	110.68376674127
3	165	359.530156162024	102.69553911663
3	166	364.126313304101	103.66984077875
3	171	374.535239493951	110.19226168442
3	174	380.496359632844	112.53300339353
3	175	381.516735667542	113.16089013403
3	178	392.950751242479	117.25153055087
3	181	406.157799287823	128.9133958841
3	184	407.674564909044	127.31945097657
3	185	407.689198835713	126.96402094669
3	186	408.9164167833	106.46857973508
3	187	409.163194206817	101.6198370965
3	188	409.995912229172	102.42461952941
3	189	415.785426509282	94.476717768805
3	190	419.540241459476	82.059015887207
3	191	421.392453431518	64.603236727566
3	192	423.903114631491	57.49539409812
3	193	425.227668699986	53.092870412874
3	194	434.071865231205	57.031293854616
3	195	435.10008555754	52.450176793649
3	196	435.387086527534	36.904212212732
3	197	436.488594805421	29.301456188217
3	202	445.93299461964	4.846236034837
3	207	456.17763824731	11.683590295646
3	208	458.504167209946	5.880880633039
3	209	461.962843127919	7.150226917698
3	212	468.421443049488	2.779842998357
3	221	481.674672036204	2.396851940913
3	227	494.852513830573	0
3	230	512.690580686026	0
3	235	520.383284745494	7.091703963748
3	247	553.042873417174	39.691533911799
3	248	562.495401940132	36.469777562613
3	249	566.753044452871	30.381839917341
3	250	566.921562604662	22.928435913923
3	253	570.564190414225	25.829727875289
3	254	575.056111363007	4.960377485364
3	257	581.896687504052	0
3	260	583.921324485665	0
3	263	585.279116190361	0
3	269	630.168550640302	1.501155208014
3	272	639.69467870296	0
3	275	646.035768047026	0
3	280	654.397878228363	7.697384348125
3	283	655.501925055987	4.457146949335
3	286	657.594137359094	2.768537052469
3	304	692.159240681164	35.828303512529
3	305	695.09446178996	35.87162577537
3	306	697.279773993525	35.502750941103
3	313	713.768499189573	50.837920785471
3	318	724.037776950763	55.377311128258
3	319	724.659995042035	55.446289612797
3	322	728.711193116666	42.059729354157
3	331	756.076756965231	66.520675425887
3	334	758.052539627792	58.363278382164
3	335	758.101121276596	57.403889815499
3	336	761.466122603274	53.271691350185
3	341	766.173713167877	48.160053372702
3	344	785.475644583829	62.491676703831
3	349	800.269842822671	73.953972716017
3	352	803.426565934816	55.335635036636
3	353	807.320001604842	58.648250440169
3	356	813.751155768016	59.668585710651
3	357	825.798466502927	69.952931995549
3	358	827.160823296685	69.393361007688
3	359	828.110810648892	64.814483807894
3	360	829.170344077776	65.413619735154
3	361	832.940569144521	49.926906528659
3	366	837.397492908829	43.41402136628
3	373	855.900734103982	57.873959934086
3	385	874.148719567003	72.170946034355
3	386	875.591398178446	62.577410030384
3	389	886.17795560657	52.712078084043
3	390	887.025306524519	50.560214902578
3	391	894.668700813212	53.279555734947
3	394	910.85459683125	63.822316526145
3	395	915.301443110476	60.13694700655
3	398	920.114163296158	61.521672839274
3	399	920.862275729619	61.80353562937
3	406	934.217894298366	63.257365600476
3	407	935.501819896703	63.486301081565
3	408	936.214533468706	51.82052625109
3	411	943.381800357496	37.591150249996
3	420	967.284037360226	49.829623335534
3	423	968.536280364199	47.003629632563
3	424	970.677159123408	42.752030582912
3	425	972.137450929995	41.86952842417
3	426	974.794893354806	37.474682473993
3	427	978.532031036843	28.594528075406
3	428	988.451669285949	32.779087699239
3	433	999.869027373625	42.520858650017
3	434	1003.385397237404	42.130752349246
3	437	1018.349124192406	50.798119837262
3	440	1022.468377083064	27.93549632152
3	445	1024.504961980698	29.202420319178
3	446	1028.769132297692	18.837426419003
3	449	1036.204364097618	14.46725063552
3	454	1047.076078696418	22.904295974748
3	455	1047.72588141875	23.254574353584
3	460	1074.169023051987	40.557344176624
3	468	1091.967830560578	54.139875423199
3	469	1093.446758820147	49.273748170627
3	470	1097.493927371796	39.359192778889
3	471	1097.784321836327	36.317250071715
3	472	1099.077413133904	22.798439904089
3	475	1105.695938076874	28.104489475114
3	476	1122.73127318733	22.96443066773
3	491	1191.130533628801	13.160130996757
3	506	1220.017098409598	23.381211667243
3	507	1221.969615958559	21.743179423811
3	512	1242.816077111667	37.511059000258
3	515	1244.708245301161	36.16087624752
3	518	1249.921889606911	36.496430427975
3	523	1257.767755177486	42.642014476706
3	524	1260.378081080556	41.110146640563
3	527	1261.182295692788	24.128561827409
3	528	1262.306717565208	22.715884284254
3	529	1264.487990706709	21.12158976829
3	530	1268.782493841032	21.776015289888
3	533	1271.51539487464	14.564750579919
3	534	1272.46494245634	15.447345130735
3	535	1291.543293877342	30.692780538113
3	536	1298.029040962017	28.580845285014
3	539	1303.916766130551	3.978418245864
3	542	1316.893751880655	0
3	548	1333.682711663034	6.94017443607
3	551	1345.848286259193	0
3	557	1348.648970850869	0
3	563	1356.52134966197	0
3	566	1361.009319269314	2.340433768317
3	569	1366.071723712859	0
3	578	1412.303689929352	0
3	587	1429.733317691778	0
3	590	1434.323136498465	0
3	593	1434.973955005762	0.00984589716
3	602	1441.578704922938	4.856374395897
3	603	1442.097881072045	5.136487708789
3	606	1458.542234008009	20.52752330824
3	607	1465.486249329487	24.569549260177
3	610	1468.948443568143	16.305169907232
3	613	1474.830373924288	6.575119492393
3	614	1476.771306281155	5.56647141511
3	621	1487.334639954066	9.655421300191
3	622	1489.176047802342	5.880977550144
3	623	1489.920199011735	3.191493860361
3	626	1491.599519963744	0.004738511848
3	629	1505.030160024024	0
3	632	1516.450343239982	0
3	635	1517.991208355858	0
3	638	1523.870921068251	0
3	650	1541.845782787796	3.788114354905
3	653	1548.729893926123	2.481214712467
3	656	1563.091021173002	0
3	659	1564.897110771619	0.29021733629
3	662	1568.309056649513	0
3	665	1578.568099306452	0
3	668	1580.728208067262	1.706525609338
3	673	1583.613667038036	1.152420056318
3	674	1587.270138484121	4.557149173887
3	677	1603.358994729019	0
3	680	1605.268167425795	0.049309267421
3	685	1617.074421022188	9.329558258246
3	686	1618.767071050666	6.298156979556
3	689	1636.770725581656	0
3	696	1649.985758541311	6.233578593318
3	699	1663.101934668059	18.170350750706
3	700	1669.54883945815	24.340517695018
3	701	1672.136909089021	12.959939451057
3	706	1682.805471889468	8.460159518134
3	715	1702.573350065009	20.824800291498
3	720	1709.413953677416	24.008988987037
3	723	1711.568389668644	26.14783019368
3	724	1711.762309906883	21.811409692931
3	725	1712.18593536432	14.254878524747
3	728	1713.631786248116	8.268778053424
3	731	1723.440177140351	15.290346599343
3	734	1733.65476793533	23.313627876284
3	735	1734.494860218643	21.131962772638
3	736	1735.531662444445	18.704744229872
3	748	1752.593184399368	19.476767346031
3	749	1752.724602746154	6.938619546925
3	752	1763.433220750968	16.912248365545
3	753	1768.36996100602	18.357132088264
3	756	1780.209375904193	29.457125717593
3	769	1797.293874133267	35.235988850928
3	770	1801.148704179702	30.117473233342
3	780	1826.649589688125	46.103944485774
3	781	1829.260154031376	45.635317856643
3	782	1833.342471465255	47.826833685971
3	787	1845.098705183054	58.490602654316
3	788	1847.06603546401	58.965054982212
3	789	1862.973642313749	70.8445653609
3	790	1864.901664518754	61.633151173513
3	793	1873.379811636609	64.206437097277
3	794	1873.933636038797	60.247287873299
3	795	1876.652176973947	42.255402242534
3	796	1876.714962817214	39.238813042489
3	797	1885.312153132749	15.278297709693
3	805	1908.133493113788	17.58827705458
3	806	1913.407346189853	13.937662359166
3	809	1916.765702130355	0
3	815	1934.493965339324	0
3	818	1937.97189039777	0
3	821	1942.659753497338	1.626193327249
3	865	2037.164112127871	60.308192237396
3	868	2046.851507400717	58.028088242743
3	871	2053.367511264845	56.640497495426
3	872	2054.880226563372	56.029752671292
3	873	2056.275839269336	49.435030347218
3	876	2073.359138715776	48.613700319045
3	883	2092.544188901343	66.600166940028
3	884	2100.607530625461	72.317560614208
3	885	2103.207742848586	62.751607693816
3	886	2106.553482128815	59.210689259458
3	891	2121.555002060368	54.43709612385
3	892	2123.372631824818	43.440503446402
3	893	2124.962838605234	44.780141461685
3	929	2222.551594434129	142.05201954448
3	930	2226.19610424543	118.58544763096
3	931	2233.136949184243	120.79156613122
3	932	2237.668024363078	107.41891921532
3	933	2240.298956712576	101.74562516012
3	936	2249.732204540244	109.4774664289
3	939	2263.005017536432	119.58515146865
3	940	2265.690912007922	94.273988020975
3	941	2265.814893765044	91.626192326541
3	942	2275.108517187942	88.014755596583
3	945	2284.245644012862	92.090241394196
3	952	2293.011982120726	88.170334465023
3	955	2297.77922195463	91.533237083709
3	958	2305.997358413388	61.858120651708
3	961	2324.436101835282	73.606965053543
3	966	2333.385757112551	55.847909887308
3	967	2333.572132687557	46.538605758327
3	970	2350.830716698109	61.688851186006
3	971	2351.138886381257	59.820290438022
3	976	2355.264975224424	59.673409508654
3	979	2361.490568046389	63.543448915281
3	980	2363.686113194727	47.407666756709
3	981	2366.058156936394	38.072139362254
3	984	2369.818739471107	36.829595970333
3	987	2375.539484800502	29.859333485965
3	988	2376.661502097841	25.078975459027
3	991	2381.568912341662	29.857022218179
3	998	2395.285056501201	34.230182234693
3	1001	2400.606460147975	34.395969119772
3	1012	2421.907643712117	51.685313026153
3	1013	2423.847124658505	44.701676414533
3	1014	2427.780471026121	38.532140545165
3	1017	2429.821597465188	39.978906035602
3	1018	2436.109576619594	43.014181828103
3	1021	2455.417262325449	59.116088712656
4	164	356.789216703952	16
4	168	366.407720533371	15
4	173	377.040571376589	16
4	183	407.187138617204	15
4	199	441.086758584803	2
4	201	444.494047951664	3
4	206	454.812616210221	3
4	211	465.641600051131	2
4	220	479.277820095291	1
4	227	494.852513830573	1
4	230	512.690580686026	1
4	232	513.291580781746	2
4	234	513.351339505375	3
4	241	536.37120453553	3
4	243	543.993126690739	4
4	245	544.734462538936	5
4	252	570.095733877643	3
4	257	581.896687504052	1
4	260	583.921324485665	1
4	263	585.279116190361	1
4	268	628.667395432288	1
4	272	639.69467870296	1
4	275	646.035768047026	1
4	277	646.700493880238	2
4	282	654.825600306625	3
4	285	656.330937168635	3
4	288	659.22283601459	3
4	292	662.930578404102	4
4	294	668.660465822505	5
4	296	669.213705429238	6
4	300	686.651463762509	7
4	303	689.556081539344	8
4	308	699.689261245628	7
4	310	700.697231461097	8
4	315	718.013659795175	9
4	317	722.983967879998	10
4	321	726.315870106654	9
4	324	748.09093089818	9
4	328	754.082570057365	10
4	330	755.845534507378	11
4	333	757.767462288997	12
4	338	763.296326840998	10
4	340	763.756724342622	11
4	343	783.013662615862	11
4	346	793.983471542549	11
4	348	798.026774169896	12
4	351	801.977773532648	12
4	363	833.465877522527	6
4	365	836.465091621941	7
4	368	841.389145078265	7
4	372	855.164496103926	8
4	377	859.058740100249	9
4	381	870.96052869789	10
4	384	872.015518815138	11
4	393	905.7906501075	9
4	397	917.454414024692	8
4	401	921.532650731636	7
4	403	927.925128540496	8
4	413	949.937502961437	7
4	415	955.67258158671	8
4	419	961.254644888158	9
4	422	967.551004355144	10
4	430	994.532880761544	5
4	432	995.30254166152	6
4	436	1009.931705878689	5
4	439	1021.737113462098	5
4	442	1024.17178272167	5
4	444	1024.471307065166	6
4	453	1044.17301064952	5
4	457	1058.134734592907	5
4	466	1077.59144860176	6
4	474	1099.7668425196	3
4	486	1177.970402632044	1
4	493	1196.635886742355	2
4	495	1200.226436534748	3
4	497	1205.305018111409	4
4	499	1208.547369053641	5
4	503	1215.12574070078	6
4	505	1219.267934439993	7
4	509	1237.053733865379	7
4	511	1239.590833280954	8
4	514	1243.366400938419	8
4	517	1247.006478551144	8
4	520	1256.950644294721	8
4	532	1269.448195677003	5
4	542	1316.893751880655	1
4	547	1326.742537226964	1
4	551	1345.848286259193	1
4	557	1348.648970850869	1
4	563	1356.52134966197	1
4	565	1358.668885500997	2
4	569	1366.071723712859	1
4	578	1412.303689929352	1
4	587	1429.733317691778	1
4	590	1434.323136498465	1
4	592	1434.964109108602	2
4	597	1436.961393363256	2
4	599	1438.014710699769	3
4	601	1440.91670006931	4
4	605	1452.643273660911	4
4	612	1471.204834866045	3
4	616	1477.679218653875	2
4	618	1483.295070252198	3
4	625	1491.594781451896	2
4	629	1505.030160024024	1
4	632	1516.450343239982	1
4	635	1517.991208355858	1
4	638	1523.870921068251	1
4	648	1538.057668432891	1
4	652	1546.248679213656	2
4	656	1563.091021173002	1
4	658	1564.606893435329	2
4	662	1568.309056649513	1
4	665	1578.568099306452	1
4	667	1579.021682457924	2
4	670	1582.461246981718	2
4	672	1582.712989310234	3
4	677	1603.358994729019	1
4	682	1607.744862763942	2
4	684	1612.46891407111	3
4	689	1636.770725581656	1
4	691	1643.752179947993	2
4	693	1644.931583917353	3
4	695	1645.208321763132	4
4	698	1659.176969637964	4
4	703	1674.345312371334	2
4	710	1685.420559474964	3
4	712	1689.950900213952	4
4	714	1697.931056839573	5
4	717	1705.363008194692	6
4	719	1708.149830541008	7
4	722	1710.341140059046	7
4	727	1713.362897446005	5
4	730	1716.826918214573	5
4	740	1746.520972385423	3
4	744	1750.012828917756	4
4	746	1750.7522501866	5
4	758	1780.545645202351	4
4	760	1783.624836174733	5
4	762	1785.515637779284	6
4	764	1786.608102528738	7
4	766	1788.100980481798	8
4	768	1792.129076952849	9
4	774	1809.173374539332	8
4	776	1813.686348165498	9
4	784	1834.396774731413	8
4	786	1837.476149774725	9
4	792	1870.033855423056	6
4	799	1890.545216059208	2
4	809	1916.765702130355	1
4	815	1934.493965339324	1
4	818	1937.97189039777	1
4	835	1976.855919890475	1
4	842	1988.823419157974	2
4	847	1996.727013769419	3
4	850	1998.85047389208	4
4	854	2006.840808922118	5
4	858	2024.745438396731	6
4	860	2025.944021961315	7
4	862	2028.289970011253	8
4	867	2040.45613515477	9
4	870	2047.342792869357	9
4	875	2067.117905936518	7
4	878	2079.932128378416	7
4	880	2080.182697143549	8
4	882	2080.499574889648	9
4	888	2107.610656614475	6
4	890	2112.345383053022	7
4	895	2130.249105147754	5
4	897	2138.55333155246	6
4	901	2143.419866067781	7
4	914	2171.416923986947	8
4	916	2174.188701438503	9
4	918	2187.093761591359	10
4	921	2192.155402618666	11
4	923	2204.841647655703	12
4	925	2206.245984870921	13
4	935	2244.13923776168	10
4	944	2277.537847225243	7
4	949	2289.141865512103	7
4	951	2291.318595943235	8
4	954	2295.59156571577	9
4	957	2297.947119131108	9
4	960	2316.278446438018	9
4	963	2327.98601757414	9
4	969	2345.680151314537	9
4	973	2351.582526638814	8
4	978	2361.054874266508	9
4	983	2366.210491028203	7
4	986	2370.222330685964	7
4	990	2379.145448243972	6
4	993	2389.248330480956	6
4	995	2389.842691429586	7
4	997	2393.095394791491	8
4	1000	2396.301173612793	8
4	1003	2402.826514123312	8
4	1005	2405.848596340953	9
4	1007	2413.005412113603	10
4	1011	2418.180451570403	11
4	1020	2443.112190058738	9
4	1025	2457.571520976012	9
4	1031	2492.925146764597	10
4	1034	2498.096628724313	11
4	1036	2499.167734483319	12
5	170	372.134798287112	1
5	177	382.649908763891	1
5	180	398.482874314802	1
5	204	452.623286576907	1
5	215	469.657341332736	1
5	218	476.563346583834	1
5	224	489.543105686646	1
5	237	526.025624377519	1
5	239	535.796427067984	2
5	266	626.393968682192	1
5	279	651.044778106652	1
5	290	661.777023052422	1
5	298	684.308078529856	2
5	312	708.194431253089	1
5	326	748.671751164673	1
5	355	813.013988148062	1
5	370	847.032280305105	1
5	375	858.592490456884	1
5	379	861.19589677694	2
5	388	884.394007217616	1
5	405	930.267922505825	1
5	410	937.320210880813	1
5	417	957.348168723608	1
5	448	1033.611678875363	1
5	451	1037.827955137379	1
5	459	1061.467071764612	1
5	462	1076.278973229815	1
5	464	1076.925032669892	2
5	479	1158.248829838364	1
5	481	1161.058857976693	2
5	483	1173.962877596753	3
5	489	1180.101638718088	2
5	501	1213.425459178936	1
5	522	1257.017597325605	1
5	526	1260.850513339229	1
5	538	1299.938347884687	1
5	545	1326.453008205057	1
5	554	1347.463605427665	1
5	560	1351.210648716751	1
5	572	1385.198060931911	1
5	575	1403.276454880886	1
5	581	1419.17759583594	1
5	584	1422.002012796862	1
5	595	1436.722330527041	1
5	609	1468.255254431895	1
5	620	1486.728705151374	1
5	641	1524.308443310314	1
5	643	1528.188529657151	2
5	645	1535.346246111982	3
5	679	1605.218858158374	1
5	705	1681.748549773511	1
5	708	1685.404964690379	1
5	733	1733.116417053337	1
5	738	1745.785983199229	1
5	742	1747.360294083479	2
5	751	1762.057885282339	1
5	755	1771.03123094636	1
5	772	1803.268513345241	1
5	778	1815.842102082336	2
5	801	1899.469683830687	1
5	803	1903.469048659292	2
5	812	1928.78649794723	1
5	820	1941.033560170089	1
5	824	1952.135829052273	1
5	827	1966.495807747824	1
5	829	1967.8742062205	2
5	831	1973.023659719139	3
5	833	1974.650065026567	4
5	837	1984.510906702646	5
5	839	1984.867767945828	6
5	844	1991.139207354218	6
5	852	2002.681817417297	5
5	899	2140.25473811134	1
5	903	2143.875117242388	2
5	905	2149.009102541388	3
5	907	2153.547249966718	4
5	909	2162.084817532982	5
5	911	2162.193617147174	6
5	938	2250.829136781739	1
5	947	2287.03352692923	1
5	965	2332.989143500774	1
5	975	2351.711890123483	1
5	1009	2414.616886915989	1
5	1016	2428.112985906692	1
5	1023	2455.475700995089	1
5	1027	2463.575780159213	2
5	1029	2491.203118857694	3
6	170	372.134798287112	0
6	171	374.535239493951	0
6	177	382.649908763891	0
6	178	392.950751242479	0
6	180	398.482874314802	0
6	181	406.157799287823	0
6	204	452.623286576907	0
6	207	456.17763824731	0
6	215	469.657341332736	0
6	216	474.76078650636	0
6	218	476.563346583834	0
6	221	481.674672036204	0
6	224	489.543105686646	0
6	225	492.622882527465	0
6	237	526.025624377519	0
6	239	535.796427067984	1
6	246	545.858240045104	1
6	247	553.042873417174	0
6	266	626.393968682192	0
6	269	630.168550640302	0
6	279	651.044778106652	0
6	280	654.397878228363	0
6	290	661.777023052422	0
6	298	684.308078529856	1
6	301	689.136867266752	1
6	304	692.159240681164	0
6	312	708.194431253089	0
6	313	713.768499189573	0
6	326	748.671751164673	0
6	331	756.076756965231	0
6	355	813.013988148062	0
6	356	813.751155768016	0
6	370	847.032280305105	0
6	373	855.900734103982	0
6	375	858.592490456884	0
6	379	861.19589677694	1
6	382	871.179720079897	1
6	385	874.148719567003	0
6	388	884.394007217616	0
6	389	886.17795560657	0
6	405	930.267922505825	0
6	406	934.217894298366	0
6	410	937.320210880813	0
6	411	943.381800357496	0
6	417	957.348168723608	0
6	420	967.284037360226	0
6	448	1033.611678875363	0
6	449	1036.204364097618	0
6	451	1037.827955137379	0
6	454	1047.076078696418	0
6	459	1061.467071764612	0
6	460	1074.169023051987	0
6	462	1076.278973229815	0
6	464	1076.925032669892	1
6	467	1078.764018377803	1
6	468	1091.967830560578	0
6	479	1158.248829838364	0
6	481	1161.058857976693	1
6	483	1173.962877596753	2
6	484	1177.533964985512	2
6	487	1179.412607550066	1
6	489	1180.101638718088	1
6	490	1183.366743848196	1
6	491	1191.130533628801	0
6	501	1213.425459178936	0
6	506	1220.017098409598	0
6	522	1257.017597325605	0
6	523	1257.767755177486	0
6	526	1260.850513339229	0
6	527	1261.182295692788	0
6	538	1299.938347884687	0
6	539	1303.916766130551	0
6	545	1326.453008205057	0
6	548	1333.682711663034	0
6	554	1347.463605427665	0
6	555	1348.227731842515	0
6	560	1351.210648716751	0
6	561	1353.766677651118	0
6	572	1385.198060931911	0
6	573	1386.364294110359	0
6	575	1403.276454880886	0
6	576	1403.905077889316	0
6	581	1419.17759583594	0
6	582	1420.966392101506	0
6	584	1422.002012796862	0
6	585	1427.844650126597	0
6	595	1436.722330527041	0
6	602	1441.578704922938	0
6	609	1468.255254431895	0
6	610	1468.948443568143	0
6	620	1486.728705151374	0
6	621	1487.334639954066	0
6	641	1524.308443310314	0
6	643	1528.188529657151	1
6	645	1535.346246111982	2
6	646	1536.756716870544	2
6	649	1538.766241998294	1
6	650	1541.845782787796	0
6	679	1605.218858158374	0
6	680	1605.268167425795	0
6	705	1681.748549773511	0
6	706	1682.805471889468	0
6	708	1685.404964690379	0
6	715	1702.573350065009	0
6	733	1733.116417053337	0
6	734	1733.65476793533	0
6	738	1745.785983199229	0
6	742	1747.360294083479	1
6	747	1751.81212417111	1
6	748	1752.593184399368	0
6	751	1762.057885282339	0
6	752	1763.433220750968	0
6	755	1771.03123094636	0
6	756	1780.209375904193	0
6	772	1803.268513345241	0
6	778	1815.842102082336	1
6	779	1823.093721845296	1
6	780	1826.649589688125	0
6	801	1899.469683830687	0
6	803	1903.469048659292	1
6	804	1905.327765826281	1
6	805	1908.133493113788	0
6	812	1928.78649794723	0
6	813	1929.106414033607	0
6	820	1941.033560170089	0
6	821	1942.659753497338	0
6	824	1952.135829052273	0
6	825	1957.717188123766	0
6	827	1966.495807747824	0
6	829	1967.8742062205	1
6	831	1973.023659719139	2
6	833	1974.650065026567	3
6	837	1984.510906702646	4
6	839	1984.867767945828	5
6	840	1987.536749650174	5
6	844	1991.139207354218	5
6	845	1995.202104269866	5
6	848	1998.835680856841	4
6	852	2002.681817417297	4
6	855	2010.931186886602	4
6	856	2018.373365833651	3
6	863	2031.88325177372	2
6	864	2034.980127987012	1
6	865	2037.164112127871	0
6	899	2140.25473811134	0
6	903	2143.875117242388	1
6	905	2149.009102541388	2
6	907	2153.547249966718	3
6	909	2162.084817532982	4
6	911	2162.193617147174	5
6	912	2162.817206635112	5
6	919	2188.696730450378	4
6	926	2214.344446147841	3
6	927	2219.052987299852	2
6	928	2220.251726652288	1
6	929	2222.551594434129	0
6	938	2250.829136781739	0
6	939	2263.005017536432	0
6	947	2287.03352692923	0
6	952	2293.011982120726	0
6	965	2332.989143500774	0
6	966	2333.385757112551	0
6	975	2351.711890123483	0
6	976	2355.264975224424	0
6	1009	2414.616886915989	0
6	1012	2421.907643712117	0
6	1016	2428.112985906692	0
6	1017	2429.821597465188	0
6	1023	2455.475700995089	0
6	1027	2463.575780159213	1
6	1029	2491.203118857694	2
6	1032	2495.999528876731	2
7	170	372.134798287112	8
7	177	382.649908763891	9
7	180	398.482874314802	10
7	204	452.623286576907	11
7	237	526.025624377519	12
7	279	651.044778106652	13
7	290	661.777023052422	14
7	312	708.194431253089	15
7	326	748.671751164673	16
7	355	813.013988148062	17
7	370	847.032280305105	18
7	375	858.592490456884	19
7	388	884.394007217616	20
7	405	930.267922505825	21
7	410	937.320210880813	22
7	417	957.348168723608	23
7	448	1033.611678875363	24
7	451	1037.827955137379	25
7	459	1061.467071764612	26
7	462	1076.278973229815	27
7	501	1213.425459178936	28
7	522	1257.017597325605	29
7	526	1260.850513339229	30
7	538	1299.938347884687	31
7	595	1436.722330527041	32
7	609	1468.255254431895	33
7	620	1486.728705151374	34
7	679	1605.218858158374	35
7	705	1681.748549773511	36
7	708	1685.404964690379	37
7	733	1733.116417053337	38
7	738	1745.785983199229	39
7	751	1762.057885282339	40
7	755	1771.03123094636	41
7	772	1803.268513345241	42
7	801	1899.469683830687	43
7	820	1941.033560170089	44
7	899	2140.25473811134	45
7	938	2250.829136781739	46
7	947	2287.03352692923	47
7	965	2332.989143500774	48
7	975	2351.711890123483	49
7	1009	2414.616886915989	50
7	1016	2428.112985906692	51
7	1023	2455.475700995089	52
8	170	372.134798287112	0
8	177	382.649908763891	0
8	180	398.482874314802	0
8	204	452.623286576907	0
8	215	469.657341332736	0
8	218	476.563346583834	0
8	224	489.543105686646	0
8	237	526.025624377519	0
8	246	545.858240045104	10.06181297712
8	266	626.393968682192	0
8	279	651.044778106652	0
8	290	661.777023052422	0
8	301	689.136867266752	4.828788736896
8	312	708.194431253089	0
8	326	748.671751164673	0
8	355	813.013988148062	0
8	370	847.032280305105	0
8	375	858.592490456884	0
8	382	871.179720079897	9.983823302957
8	388	884.394007217616	0
8	405	930.267922505825	0
8	410	937.320210880813	0
8	417	957.348168723608	0
8	448	1033.611678875363	0
8	451	1037.827955137379	0
8	459	1061.467071764612	0
8	462	1076.278973229815	0
8	467	1078.764018377803	1.838985707911
8	479	1158.248829838364	0
8	484	1177.533964985512	16.475107008819
8	487	1179.412607550066	5.449729953313
8	490	1183.366743848196	3.265105130108
8	501	1213.425459178936	0
8	522	1257.017597325605	0
8	526	1260.850513339229	0
8	538	1299.938347884687	0
8	545	1326.453008205057	0
8	554	1347.463605427665	0
8	560	1351.210648716751	0
8	572	1385.198060931911	0
8	575	1403.276454880886	0
8	581	1419.17759583594	0
8	584	1422.002012796862	0
8	595	1436.722330527041	0
8	609	1468.255254431895	0
8	620	1486.728705151374	0
8	641	1524.308443310314	0
8	646	1536.756716870544	8.568187213393
8	649	1538.766241998294	3.419995886312
8	679	1605.218858158374	0
8	705	1681.748549773511	0
8	708	1685.404964690379	0
8	733	1733.116417053337	0
8	738	1745.785983199229	0
8	747	1751.81212417111	4.451830087631
8	751	1762.057885282339	0
8	755	1771.03123094636	0
8	772	1803.268513345241	0
8	779	1823.093721845296	7.25161976296
8	801	1899.469683830687	0
8	804	1905.327765826281	1.858717166989
8	812	1928.78649794723	0
8	820	1941.033560170089	0
8	824	1952.135829052273	0
8	827	1966.495807747824	0
8	840	1987.536749650174	19.662543429674
8	845	1995.202104269866	22.178444550727
8	848	1998.835680856841	24.185615830274
8	855	2010.931186886602	26.420280183956
8	856	2018.373365833651	33.505597887823
8	863	2031.88325177372	40.744044419502
8	864	2034.980127987012	32.298310569715
8	899	2140.25473811134	0
8	912	2162.817206635112	18.942089392724
8	919	2188.696730450378	39.68762790899
8	926	2214.344446147841	60.797196181123
8	927	2219.052987299852	56.96816976687
8	928	2220.251726652288	58.058109505114
8	938	2250.829136781739	0
8	947	2287.03352692923	0
8	965	2332.989143500774	0
8	975	2351.711890123483	0
8	1009	2414.616886915989	0
8	1016	2428.112985906692	0
8	1023	2455.475700995089	0
8	1032	2495.999528876731	32.423748717518
9	171	374.535239493951	22
9	178	392.950751242479	23
9	181	406.157799287823	24
9	207	456.17763824731	25
9	216	474.76078650636	26
9	221	481.674672036204	27
9	225	492.622882527465	28
9	246	545.858240045104	29
9	247	553.042873417174	30
9	269	630.168550640302	31
9	280	654.397878228363	32
9	301	689.136867266752	33
9	304	692.159240681164	34
9	313	713.768499189573	35
9	331	756.076756965231	36
9	356	813.751155768016	37
9	373	855.900734103982	38
9	382	871.179720079897	39
9	385	874.148719567003	40
9	389	886.17795560657	41
9	406	934.217894298366	42
9	411	943.381800357496	43
9	420	967.284037360226	44
9	449	1036.204364097618	45
9	454	1047.076078696418	46
9	460	1074.169023051987	47
9	467	1078.764018377803	48
9	468	1091.967830560578	49
9	484	1177.533964985512	50
9	487	1179.412607550066	51
9	490	1183.366743848196	52
9	491	1191.130533628801	53
9	506	1220.017098409598	54
9	523	1257.767755177486	55
9	527	1261.182295692788	56
9	539	1303.916766130551	57
9	548	1333.682711663034	58
9	555	1348.227731842515	59
9	561	1353.766677651118	60
9	573	1386.364294110359	61
9	576	1403.905077889316	62
9	582	1420.966392101506	63
9	585	1427.844650126597	64
9	602	1441.578704922938	65
9	610	1468.948443568143	66
9	621	1487.334639954066	67
9	646	1536.756716870544	68
9	649	1538.766241998294	69
9	650	1541.845782787796	70
9	680	1605.268167425795	71
9	706	1682.805471889468	72
9	715	1702.573350065009	73
9	734	1733.65476793533	74
9	747	1751.81212417111	75
9	748	1752.593184399368	76
9	752	1763.433220750968	77
9	756	1780.209375904193	78
9	779	1823.093721845296	79
9	780	1826.649589688125	80
9	804	1905.327765826281	81
9	805	1908.133493113788	82
9	813	1929.106414033607	83
9	821	1942.659753497338	84
9	825	1957.717188123766	85
9	840	1987.536749650174	86
9	845	1995.202104269866	87
9	848	1998.835680856841	88
9	855	2010.931186886602	89
9	856	2018.373365833651	90
9	863	2031.88325177372	91
9	864	2034.980127987012	92
9	865	2037.164112127871	93
9	912	2162.817206635112	94
9	919	2188.696730450378	95
9	926	2214.344446147841	96
9	927	2219.052987299852	97
9	928	2220.251726652288	98
9	929	2222.551594434129	99
9	939	2263.005017536432	100
9	952	2293.011982120726	101
9	966	2333.385757112551	102
9	976	2355.264975224424	103
9	1012	2421.907643712117	104
9	1017	2429.821597465188	105
9	1032	2495.999528876731	106
10	171	374.535239493951	2.400441206839
10	178	392.950751242479	10.300842478588
10	181	406.157799287823	7.674924973021
10	207	456.17763824731	3.554351670403
10	216	474.76078650636	5.103445173624
10	221	481.674672036204	5.11132545237
10	225	492.622882527465	3.079776840819
10	246	545.858240045104	19.832615667585
10	247	553.042873417174	17.24644634919
10	269	630.168550640302	3.77458195811
10	280	654.397878228363	3.353100121711
10	301	689.136867266752	27.35984421433
10	304	692.159240681164	7.851162151308
10	313	713.768499189573	5.574067936484
10	331	756.076756965231	7.405005800558
10	356	813.751155768016	0.737167619954
10	373	855.900734103982	8.868453798877
10	382	871.179720079897	12.587229623013
10	385	874.148719567003	12.952822790063
10	389	886.17795560657	1.783948388954
10	406	934.217894298366	3.949971792541
10	411	943.381800357496	6.061589476683
10	420	967.284037360226	9.935868636618
10	449	1036.204364097618	2.592685222255
10	454	1047.076078696418	9.248123559039
10	460	1074.169023051987	12.701951287375
10	467	1078.764018377803	2.485045147988
10	468	1091.967830560578	15.042797890686
10	484	1177.533964985512	19.285135147148
10	487	1179.412607550066	18.353749573373
10	490	1183.366743848196	9.403866251443
10	491	1191.130533628801	11.028894910713
10	506	1220.017098409598	6.591639230662
10	523	1257.767755177486	0.750157851881
10	527	1261.182295692788	0.331782353559
10	539	1303.916766130551	3.978418245864
10	548	1333.682711663034	7.229703457977
10	555	1348.227731842515	0.76412641485
10	561	1353.766677651118	2.556028934367
10	573	1386.364294110359	1.166233178448
10	576	1403.905077889316	0.62862300843
10	582	1420.966392101506	1.788796265566
10	585	1427.844650126597	5.842637329735
10	602	1441.578704922938	4.856374395897
10	610	1468.948443568143	0.693189136248
10	621	1487.334639954066	0.605934802692
10	646	1536.756716870544	12.44827356023
10	649	1538.766241998294	10.577712341143
10	650	1541.845782787796	6.499536675814
10	680	1605.268167425795	0.049309267421
10	706	1682.805471889468	1.056922115957
10	715	1702.573350065009	17.16838537463
10	734	1733.65476793533	0.538350881993
10	747	1751.81212417111	6.026140971881
10	748	1752.593184399368	5.232890315889
10	752	1763.433220750968	1.375335468629
10	756	1780.209375904193	9.178144957833
10	779	1823.093721845296	19.825208500055
10	780	1826.649589688125	10.807487605789
10	804	1905.327765826281	5.858081995594
10	805	1908.133493113788	4.664444454496
10	813	1929.106414033607	0.319916086377
10	821	1942.659753497338	1.626193327249
10	825	1957.717188123766	5.581359071493
10	840	1987.536749650174	21.04094190235
10	845	1995.202104269866	27.327898049366
10	848	1998.835680856841	25.812021137702
10	855	2010.931186886602	36.281121860035
10	856	2018.373365833651	33.862459131005
10	863	2031.88325177372	47.015483827892
10	864	2034.980127987012	43.840920632794
10	865	2037.164112127871	34.482294710574
10	912	2162.817206635112	22.562468523772
10	919	2188.696730450378	44.82161320799
10	926	2214.344446147841	65.335343606453
10	927	2219.052987299852	65.505737333134
10	928	2220.251726652288	58.166909119306
10	929	2222.551594434129	60.357977286955
10	939	2263.005017536432	12.175880754693
10	952	2293.011982120726	5.978455191496
10	966	2333.385757112551	0.396613611777
10	976	2355.264975224424	3.553085100941
10	1012	2421.907643712117	7.290756796128
10	1017	2429.821597465188	1.708611558496
10	1032	2495.999528876731	40.523827881642
11	1037	2500	0.092
12	1037	2500	0.0424

