version 2
run experiments_medium_game_mode1-423-20230311-09:41:24-10799
attr configname experiments_medium_game_mode1
attr datetime 20230311-09:41:24
attr experiment experiments_medium_game_mode1
attr inifile omnetpp.ini
attr iterationvars "$0=5.5, $1=5, $2=0"
attr iterationvarsf 5.5,5,0-
attr measurement "$0=5.5, $1=5, $2=0"
attr network Network
attr processid 10799
attr repetition 3
attr replication #3
attr resultdir results
attr runnumber 423
attr seedset 3
param *.boss.arrival_mean 20
param *.boss.service_mean 5.5
param *.minion.arrival_mean 10
param *.minion.service_mean 5
param *.player.recover_rate_x 0
param **.minion.arrival_distribution 0
param **.minion.service_distribution 0
param **.boss.arrival_distribution 0
param **.boss.service_distribution 0

vector 0 Network.player boss_defeated_stat:vector ETV
attr source signal_boss_defeated
vector 1 Network.player boss_jobs_queue_number_stat:vector ETV
attr source signal_boss_jobs_queue_number
vector 2 Network.player boss_response_time_stat:vector ETV
attr source signal_boss_response_time
vector 3 Network.player minion_jobs_number_stat:vector ETV
attr source signal_minion_jobs_number
vector 4 Network.player minion_jobs_queue_number_stat:vector ETV
attr source signal_minion_jobs_queue_number
vector 5 Network.player minion_waiting_time_stat:vector ETV
attr source signal_minion_waiting_time
vector 6 Network.player minion_defeated_stat:vector ETV
attr source signal_minion_defeated
vector 7 Network.player minion_response_time_stat:vector ETV
attr source signal_minion_response_time
vector 8 Network.player boss_jobs_number_stat:vector ETV
attr source signal_boss_jobs_number
vector 9 Network.player minion_recovered_stat:vector ETV
attr source signal_minion_recovered
vector 10 Network.player boss_waiting_time_stat:vector ETV
attr source signal_boss_waiting_time
vector 11 Network.player minion_throughput:vector ETV
attr source signal_minion_throughput
vector 12 Network.player boss_throughput:vector ETV
attr source signal_boss_throughput
0	159	359.136816327048	20
0	172	394.390403984467	21
0	175	396.153388215198	22
0	179	406.037428163507	23
0	182	413.871900018616	24
0	190	432.477432067585	25
0	217	497.743492654835	26
0	224	508.786343731611	27
0	235	531.684827908059	28
0	242	540.734951404664	29
0	243	543.753667995404	30
0	244	545.053975340319	31
0	249	554.915611920493	32
0	267	590.678812022541	33
0	275	604.876114829767	34
0	282	607.783705438894	35
0	315	710.685459787433	36
0	318	730.631565773891	37
0	324	736.23100583932	38
0	331	765.583649621124	39
0	363	841.34663597488	40
0	379	915.66596449989	41
0	380	925.203174014506	42
0	383	927.768753768776	43
0	384	929.418550478823	44
0	391	937.279396742635	45
0	392	937.782421171104	46
0	395	943.929533782649	47
0	415	1009.041639985493	48
0	418	1017.181277033756	49
0	430	1030.304522699678	50
0	438	1050.45918976751	51
0	439	1051.882552523075	52
0	446	1061.328647983549	53
0	450	1066.765685095048	54
0	470	1088.03547744255	55
0	473	1093.091370830266	56
0	479	1095.611697217038	57
0	488	1122.666301923088	58
0	494	1132.147399521696	59
0	503	1139.314514094323	60
0	524	1177.289035238016	61
0	569	1258.979103411533	62
0	570	1263.22311825397	63
0	571	1268.170782738376	64
0	586	1292.36755001107	65
0	591	1301.832225849147	66
0	592	1304.32413190458	67
0	610	1347.929260973257	68
0	619	1368.885978416957	69
0	641	1411.400351972116	70
0	650	1439.30934628213	71
0	655	1448.948510106632	72
0	658	1451.944337167082	73
0	669	1476.220530616012	74
0	696	1567.613361396599	75
0	706	1590.366594416289	76
0	715	1602.953461426384	77
0	743	1682.997785874293	78
0	747	1689.286418803202	79
0	756	1717.886279037649	80
0	757	1718.34288212978	81
0	763	1726.555020026771	82
0	775	1745.969726830844	83
0	791	1786.71281540221	84
0	794	1788.743586198703	85
0	809	1802.188357127352	86
0	812	1808.731532835348	87
0	813	1809.716715979004	88
0	814	1809.87947490077	89
0	848	1921.557477069763	90
0	888	2056.315823322022	91
0	907	2082.494955242757	92
0	908	2083.277575607307	93
0	918	2117.076212179435	94
0	923	2121.248021392062	95
0	930	2144.362811039447	96
0	948	2174.915724527676	97
0	953	2178.111140236594	98
0	985	2238.010192104272	99
0	999	2261.278577817117	100
0	1012	2285.043355824681	101
0	1015	2287.328700879789	102
0	1018	2289.529406417497	103
0	1019	2290.858815111348	104
0	1020	2292.054739902508	105
0	1027	2301.558428965186	106
0	1030	2307.895305167988	107
0	1041	2315.521356234161	108
0	1086	2423.399802366215	109
0	1107	2460.33533255147	110
0	1114	2468.44338296426	111
0	1115	2470.714960824686	112
0	1118	2479.345856337852	113
1	159	359.136816327048	0
1	169	380.659473743649	0
1	172	394.390403984467	0
1	174	395.971694417465	0
1	175	396.153388215198	0
1	178	404.35044228479	0
1	179	406.037428163507	0
1	181	410.037356174797	0
1	182	413.871900018616	0
1	185	425.519679098172	0
1	190	432.477432067585	0
1	212	493.340900375065	0
1	214	493.458722537011	1
1	216	496.742594609582	2
1	217	497.743492654835	2
1	224	508.786343731611	1
1	228	519.107824800269	1
1	232	524.050395342014	2
1	234	528.76545634016	3
1	235	531.684827908059	3
1	239	535.742612840699	3
1	242	540.734951404664	3
1	243	543.753667995404	2
1	244	545.053975340319	1
1	249	554.915611920493	0
1	266	589.672238161967	0
1	267	590.678812022541	0
1	274	598.144708626378	0
1	275	604.876114829767	0
1	281	607.520627601297	0
1	282	607.783705438894	0
1	314	702.49001005566	0
1	315	710.685459787433	0
1	317	730.410353463151	0
1	318	730.631565773891	0
1	323	735.549137058382	0
1	324	736.23100583932	0
1	330	764.354773011734	0
1	331	765.583649621124	0
1	362	838.86047744023	0
1	363	841.34663597488	0
1	368	879.741882111558	0
1	370	882.113317559985	1
1	372	884.446492488943	2
1	374	888.24560307094	3
1	376	895.381730109802	4
1	379	915.66596449989	4
1	380	925.203174014506	3
1	382	927.517978306195	3
1	383	927.768753768776	3
1	384	929.418550478823	2
1	391	937.279396742635	1
1	392	937.782421171104	0
1	394	940.401529101434	0
1	395	943.929533782649	0
1	412	990.909014986853	0
1	415	1009.041639985493	0
1	417	1013.261047276616	0
1	418	1017.181277033756	0
1	425	1028.545887104851	0
1	430	1030.304522699678	0
1	435	1034.503025313914	0
1	437	1036.534772003394	1
1	438	1050.45918976751	1
1	439	1051.882552523075	0
1	443	1060.691130510771	0
1	446	1061.328647983549	0
1	449	1063.19383248497	0
1	450	1066.765685095048	0
1	469	1084.594332712561	0
1	470	1088.03547744255	0
1	472	1090.754167319039	0
1	473	1093.091370830266	0
1	476	1094.772215871149	0
1	479	1095.611697217038	0
1	485	1120.122180825996	0
1	488	1122.666301923088	0
1	491	1127.896198946203	0
1	493	1131.632484755457	1
1	494	1132.147399521696	1
1	503	1139.314514094323	0
1	523	1175.335185131008	0
1	524	1177.289035238016	0
1	564	1256.60543472736	0
1	566	1258.346007673972	1
1	568	1258.889412571991	2
1	569	1258.979103411533	2
1	570	1263.22311825397	1
1	571	1268.170782738376	0
1	581	1286.342301461403	0
1	583	1286.57494181929	1
1	585	1287.862513521532	2
1	586	1292.36755001107	2
1	591	1301.832225849147	1
1	592	1304.32413190458	0
1	609	1337.223720075614	0
1	610	1347.929260973257	0
1	616	1363.520401318974	0
1	619	1368.885978416957	0
1	638	1406.512882744487	0
1	641	1411.400351972116	0
1	647	1433.648475926042	0
1	649	1435.347326120521	1
1	650	1439.30934628213	1
1	654	1445.829455077947	1
1	655	1448.948510106632	1
1	658	1451.944337167082	0
1	666	1469.693661528508	0
1	669	1476.220530616012	0
1	695	1564.774017558306	0
1	696	1567.613361396599	0
1	705	1588.196429206383	0
1	706	1590.366594416289	0
1	714	1600.231040489507	0
1	715	1602.953461426384	0
1	740	1682.208424127058	0
1	743	1682.997785874293	0
1	746	1686.419845939918	0
1	747	1689.286418803202	0
1	749	1707.679710106683	0
1	755	1716.345476470025	1
1	756	1717.886279037649	1
1	757	1718.34288212978	0
1	760	1720.55581185757	0
1	763	1726.555020026771	0
1	774	1745.64792178764	0
1	775	1745.969726830844	0
1	786	1779.449199170603	0
1	791	1786.71281540221	0
1	793	1788.294956596051	0
1	794	1788.743586198703	0
1	802	1797.29918631301	0
1	806	1798.359156213276	1
1	808	1799.172771781991	2
1	809	1802.188357127352	2
1	811	1806.766350733902	2
1	812	1808.731532835348	2
1	813	1809.716715979004	1
1	814	1809.87947490077	0
1	845	1917.923427135827	0
1	848	1921.557477069763	0
1	887	2052.509094390919	0
1	888	2056.315823322022	0
1	904	2075.308674587472	0
1	906	2082.099549429316	1
1	907	2082.494955242757	1
1	908	2083.277575607307	0
1	915	2108.685862315649	0
1	918	2117.076212179435	0
1	922	2121.076209533676	0
1	923	2121.248021392062	0
1	929	2142.723683495446	0
1	930	2144.362811039447	0
1	947	2169.304437475917	0
1	948	2174.915724527676	0
1	952	2177.228225124877	0
1	953	2178.111140236594	0
1	982	2234.76196218177	0
1	985	2238.010192104272	0
1	998	2260.983183628547	0
1	999	2261.278577817117	0
1	1003	2264.84038493309	0
1	1007	2268.90144810621	1
1	1009	2273.677289607649	2
1	1012	2285.043355824681	2
1	1014	2285.719432706355	2
1	1015	2287.328700879789	2
1	1017	2288.561711981572	2
1	1018	2289.529406417497	2
1	1019	2290.858815111348	1
1	1020	2292.054739902508	0
1	1022	2293.558850252091	0
1	1026	2298.239937262922	1
1	1027	2301.558428965186	1
1	1030	2307.895305167988	0
1	1038	2312.094400186417	0
1	1041	2315.521356234161	0
1	1085	2421.021190455418	0
1	1086	2423.399802366215	0
1	1096	2446.030079873069	0
1	1100	2451.694476261001	1
1	1104	2455.678417661446	2
1	1106	2458.010288498061	3
1	1107	2460.33533255147	3
1	1114	2468.44338296426	2
1	1115	2470.714960824686	1
1	1118	2479.345856337852	0
2	159	359.136816327048	11.324971318451
2	172	394.390403984467	13.730930240818
2	175	396.153388215198	0.181693797733
2	179	406.037428163507	1.686985878717
2	182	413.871900018616	3.834543843819
2	190	432.477432067585	6.957752969413
2	217	497.743492654835	4.40259227977
2	224	508.786343731611	15.3276211946
2	235	531.684827908059	34.942233298477
2	242	540.734951404664	21.627126604395
2	243	543.753667995404	19.70327265339
2	244	545.053975340319	16.288519000159
2	249	554.915611920493	19.172999079794
2	267	590.678812022541	1.006573860574
2	275	604.876114829767	6.731406203389
2	282	607.783705438894	0.263077837597
2	315	710.685459787433	8.195449731773
2	318	730.631565773891	0.22121231074
2	324	736.23100583932	0.681868780938
2	331	765.583649621124	1.22887660939
2	363	841.34663597488	2.48615853465
2	379	915.66596449989	35.924082388332
2	380	925.203174014506	43.089856454521
2	383	927.768753768776	43.322261279833
2	384	929.418550478823	41.172947407883
2	391	937.279396742635	41.897666632833
2	392	937.782421171104	10.264442864909
2	395	943.929533782649	3.528004681215
2	415	1009.041639985493	18.13262499864
2	418	1017.181277033756	3.92022975714
2	430	1030.304522699678	1.758635594827
2	438	1050.45918976751	15.956164453596
2	439	1051.882552523075	15.347780519681
2	446	1061.328647983549	0.637517472778
2	450	1066.765685095048	3.571852610078
2	470	1088.03547744255	3.441144729989
2	473	1093.091370830266	2.337203511227
2	479	1095.611697217038	0.839481345889
2	488	1122.666301923088	2.544121097092
2	494	1132.147399521696	4.251200575493
2	503	1139.314514094323	7.682029338866
2	524	1177.289035238016	1.953850107008
2	569	1258.979103411533	2.373668684173
2	570	1263.22311825397	4.877110579998
2	571	1268.170782738376	9.281370166385
2	586	1292.36755001107	6.025248549667
2	591	1301.832225849147	15.257284029857
2	592	1304.32413190458	16.461618383048
2	610	1347.929260973257	10.705540897643
2	619	1368.885978416957	5.365577097983
2	641	1411.400351972116	4.887469227629
2	650	1439.30934628213	5.660870356088
2	655	1448.948510106632	13.601183986111
2	658	1451.944337167082	6.114882089135
2	669	1476.220530616012	6.526869087504
2	696	1567.613361396599	2.839343838293
2	706	1590.366594416289	2.170165209906
2	715	1602.953461426384	2.722420936877
2	743	1682.997785874293	0.789361747235
2	747	1689.286418803202	2.866572863284
2	756	1717.886279037649	10.206568930966
2	757	1718.34288212978	1.997405659755
2	763	1726.555020026771	5.999208169201
2	775	1745.969726830844	0.321805043204
2	791	1786.71281540221	7.263616231607
2	794	1788.743586198703	0.448629602652
2	809	1802.188357127352	4.889170814342
2	812	1808.731532835348	10.372376622072
2	813	1809.716715979004	10.543944197013
2	814	1809.87947490077	3.113124166868
2	848	1921.557477069763	3.634049933936
2	888	2056.315823322022	3.806728931103
2	907	2082.494955242757	7.186280655285
2	908	2083.277575607307	1.178026177991
2	918	2117.076212179435	8.390349863786
2	923	2121.248021392062	0.171811858386
2	930	2144.362811039447	1.639127544001
2	948	2174.915724527676	5.611287051759
2	953	2178.111140236594	0.882915111717
2	985	2238.010192104272	3.248229922502
2	999	2261.278577817117	0.29539418857
2	1012	2285.043355824681	20.202970891591
2	1015	2287.328700879789	18.427252773579
2	1018	2289.529406417497	15.852116809848
2	1019	2290.858815111348	5.139382404993
2	1020	2292.054739902508	3.493027920936
2	1027	2301.558428965186	7.999578713095
2	1030	2307.895305167988	9.655367905066
2	1041	2315.521356234161	3.426956047744
2	1086	2423.399802366215	2.378611910797
2	1107	2460.33533255147	14.305252678401
2	1114	2468.44338296426	16.748906703259
2	1115	2470.714960824686	15.03654316324
2	1118	2479.345856337852	21.335567839791
3	161	361.339663494602	1
3	164	367.9828784262	1
3	167	379.513301138535	1
3	171	394.129264259982	2
3	187	425.765741351908	1
3	189	427.517811650595	2
3	192	433.606808067719	3
3	197	448.069818965425	1
3	199	456.351270045832	2
3	201	456.561563782591	3
3	206	472.719413120029	1
3	208	474.172100886485	2
3	219	502.850351250119	1
3	221	504.086422382937	2
3	223	506.614196716074	3
3	226	510.323349281481	4
3	230	522.461553090038	5
3	237	533.592296136414	6
3	241	540.522669763452	7
3	246	546.894682894063	8
3	248	549.159432880295	9
3	252	566.096778961453	9
3	257	576.022142600914	7
3	259	579.441227499843	8
3	263	580.999566973229	7
3	270	594.209352549086	6
3	272	594.753402569665	7
3	279	606.880926727436	6
3	284	608.676596580058	7
3	287	612.645161330649	7
3	293	632.76123856948	4
3	295	636.83562207702	5
3	297	637.217093321776	6
3	305	675.410655830787	1
3	307	677.865079647084	2
3	311	687.662234629069	1
3	320	730.758287029875	1
3	326	760.778512054772	1
3	328	762.676109818951	2
3	334	777.263713199375	2
3	336	778.560288534075	3
3	341	795.990510267887	1
3	344	803.875283134171	1
3	347	809.094828093027	1
3	349	814.571875706268	2
3	352	820.574063313727	2
3	356	829.945582910592	1
3	359	835.06437174103	1
3	365	850.643575561551	1
3	378	903.906946611633	1
3	386	930.044493005324	2
3	388	931.999341308693	3
3	390	935.126957832346	4
3	400	967.986976557275	2
3	404	971.614401115977	1
3	407	977.048754828475	1
3	410	990.426205312561	1
3	414	995.943592048176	2
3	422	1022.382591948731	1
3	427	1028.602936522879	1
3	429	1028.810805650015	2
3	433	1033.490433093267	2
3	445	1061.002901677937	1
3	452	1067.267288635778	1
3	455	1075.724465931961	1
3	457	1076.082481560829	2
3	461	1077.735018370196	1
3	464	1078.615384691453	1
3	466	1081.67931445012	2
3	478	1094.866445323894	1
3	482	1111.881230236583	1
3	487	1121.992740047389	1
3	496	1134.933958298035	1
3	498	1135.217004455986	2
3	500	1135.363051972741	3
3	502	1138.932231129405	4
3	507	1144.787715153364	3
3	509	1147.283264483279	4
3	515	1155.69337419801	1
3	517	1156.259289260176	2
3	519	1163.204706882349	3
3	521	1170.612254816977	4
3	526	1186.949025027116	5
3	530	1192.333899696592	4
3	533	1197.613977193519	4
3	535	1198.108177697727	5
3	537	1198.606263427609	6
3	540	1207.102040070224	6
3	542	1215.572599614181	7
3	546	1231.844375578986	6
3	549	1234.910810938707	6
3	551	1236.116699961997	7
3	559	1247.942971155498	2
3	561	1251.188053035955	3
3	575	1275.249598754447	1
3	578	1285.512833833394	1
3	588	1294.031758144982	1
3	590	1300.819020909668	2
3	596	1310.93961002616	1
3	599	1318.003070602428	1
3	602	1326.696373353387	1
3	605	1332.884941883537	1
3	607	1336.650535836356	2
3	614	1359.16404557901	1
3	618	1366.636648785843	2
3	621	1375.945051716496	3
3	625	1386.322276825134	2
3	627	1395.569428066275	3
3	630	1398.224964158521	3
3	633	1404.092529556116	3
3	635	1404.723363852476	4
3	640	1411.263528282476	4
3	645	1420.224574092024	3
3	652	1442.157175674872	4
3	657	1450.186517457622	5
3	660	1452.524777592798	6
3	668	1471.364551841377	3
3	674	1500.292962552547	1
3	677	1514.628496105396	1
3	679	1515.391585098206	2
3	683	1520.075491215183	1
3	686	1529.117938344292	1
3	689	1536.955543686046	1
3	692	1537.272009496688	1
3	698	1568.170486611142	1
3	700	1579.114421679445	2
3	702	1580.500100178335	3
3	708	1590.644250055458	3
3	710	1590.825644943243	4
3	718	1610.664425130129	2
3	722	1618.936633049524	1
3	725	1647.347486492507	1
3	728	1651.645264029249	1
3	730	1657.544440275635	2
3	734	1667.875743443595	1
3	737	1678.961085905515	1
3	742	1682.270965130991	1
3	751	1708.084792584536	1
3	753	1713.623104352338	2
3	762	1723.283784264192	2
3	765	1728.055282631709	3
3	767	1731.950005401017	4
3	769	1733.335643327318	5
3	771	1737.184569819368	6
3	777	1746.430995735594	6
3	780	1749.876436639148	6
3	782	1750.623721910651	7
3	788	1782.186823052272	6
3	790	1786.678947997071	7
3	796	1791.887006369677	8
3	804	1797.950978938951	5
3	820	1827.242154249278	2
3	824	1850.542439783431	1
3	827	1870.004880988581	1
3	830	1873.144783037164	1
3	833	1884.822081319794	1
3	835	1885.778595246252	2
3	837	1885.811529056579	3
3	839	1897.708087929202	4
3	847	1920.744293764123	1
3	851	1932.417776871576	1
3	854	1957.658186564513	1
3	856	1958.145638604626	2
3	858	1958.20490747963	3
3	861	1962.041132941032	3
3	866	1972.339259434377	1
3	869	1996.972662773382	1
3	872	2001.837521535633	1
3	875	2022.651661072584	1
3	878	2031.708678368501	1
3	880	2039.16582307412	2
3	883	2048.602623725115	2
3	885	2051.296746386859	3
3	891	2060.450138024586	3
3	893	2061.864559880863	4
3	896	2065.608353002928	4
3	900	2073.528318068424	3
3	902	2074.252666708182	4
3	911	2094.944618720664	4
3	917	2111.075776948067	3
3	925	2121.523496411099	2
3	932	2145.763574788525	1
3	935	2151.397617746221	1
3	937	2153.562706682703	2
3	941	2158.8277209331	1
3	944	2161.192638793574	1
3	950	2176.623459025381	1
3	955	2181.362624258206	2
3	957	2184.414138255062	3
3	959	2189.569960956599	4
3	962	2192.862153177103	4
3	968	2214.505848794852	1
3	970	2214.739026256483	2
3	974	2216.997427399395	1
3	977	2228.158970210153	1
3	980	2233.589270654671	1
3	984	2235.134555999138	2
3	989	2245.5746372874	1
3	992	2246.434071313046	1
3	994	2253.60115613332	2
3	1001	2264.722149296945	1
3	1005	2268.784290434962	2
3	1011	2282.192260561595	3
3	1024	2297.26438804666	4
3	1029	2306.451312004043	5
3	1032	2307.906601523895	6
3	1034	2308.451575159593	7
3	1036	2310.57992847033	8
3	1040	2313.938378685859	9
3	1045	2319.089880690129	8
3	1051	2332.875221144699	5
3	1056	2348.332552859931	3
3	1058	2353.692697809273	4
3	1060	2356.62042384619	5
3	1063	2358.091024437805	5
3	1065	2359.250582496203	6
3	1067	2366.186839445675	7
3	1071	2392.876483049199	6
3	1073	2394.55395121754	7
3	1075	2395.905132468107	8
3	1077	2396.699003818489	9
3	1079	2405.987835363148	10
3	1088	2431.543350033688	7
3	1091	2434.969970675909	7
3	1093	2436.854714053433	8
3	1098	2446.703873746544	8
3	1102	2453.818389630889	9
3	1109	2464.591085000307	10
3	1111	2466.762044446235	11
3	1113	2467.46333134511	12
3	1117	2475.219092225462	13
3	1121	2479.611011255182	13
3	1129	2495.728823675633	8
3	1131	2499.804357768263	9
4	161	361.339663494602	0
4	162	365.120901747532	0
4	164	367.9828784262	0
4	165	370.118221488304	0
4	167	379.513301138535	0
4	171	394.129264259982	1
4	176	396.200674955867	1
4	183	423.983325573738	0
4	187	425.765741351908	0
4	189	427.517811650595	1
4	192	433.606808067719	2
4	193	437.242907200992	2
4	194	439.461342318535	1
4	195	440.455467765489	0
4	197	448.069818965425	0
4	199	456.351270045832	1
4	201	456.561563782591	2
4	202	462.958709204954	2
4	203	469.375027318167	1
4	204	470.603884315417	0
4	206	472.719413120029	0
4	208	474.172100886485	1
4	209	486.712561538258	1
4	210	488.636400679209	0
4	219	502.850351250119	0
4	221	504.086422382937	1
4	223	506.614196716074	2
4	226	510.323349281481	3
4	230	522.461553090038	4
4	237	533.592296136414	5
4	241	540.522669763452	6
4	246	546.894682894063	7
4	248	549.159432880295	8
4	250	558.780766126454	8
4	252	566.096778961453	8
4	253	571.272086467256	8
4	254	574.447778588134	7
4	255	574.609896979536	6
4	257	576.022142600914	6
4	259	579.441227499843	7
4	260	579.506482731379	7
4	261	579.84297857243	6
4	263	580.999566973229	6
4	264	585.695316358479	6
4	268	592.382581195103	5
4	270	594.209352549086	5
4	272	594.753402569665	6
4	276	605.147532916997	6
4	277	605.191302584889	5
4	279	606.880926727436	5
4	284	608.676596580058	6
4	285	608.775734737487	6
4	287	612.645161330649	6
4	288	615.639215616334	6
4	289	619.370308587056	5
4	290	623.958150716971	4
4	291	632.337139187999	3
4	293	632.76123856948	3
4	295	636.83562207702	4
4	297	637.217093321776	5
4	298	637.755887209138	5
4	299	638.851841654911	4
4	300	639.24552896317	3
4	301	643.767388403542	2
4	302	649.109579177138	1
4	303	653.02585211365	0
4	305	675.410655830787	0
4	307	677.865079647084	1
4	308	678.969882372652	1
4	309	681.972642381276	0
4	311	687.662234629069	0
4	312	690.930745868789	0
4	320	730.758287029875	0
4	321	734.341175502001	0
4	326	760.778512054772	0
4	328	762.676109818951	1
4	332	771.0996201533	1
4	334	777.263713199375	1
4	336	778.560288534075	2
4	337	783.093027422191	2
4	338	783.093087612767	1
4	339	783.722922398056	0
4	341	795.990510267887	0
4	342	797.408819129708	0
4	344	803.875283134171	0
4	345	804.466534681895	0
4	347	809.094828093027	0
4	349	814.571875706268	1
4	350	815.32284321129	1
4	352	820.574063313727	1
4	353	824.382098888002	1
4	354	826.34421689411	0
4	356	829.945582910592	0
4	357	831.532548677899	0
4	359	835.06437174103	0
4	360	836.686076801904	0
4	365	850.643575561551	0
4	366	855.456730963182	0
4	378	903.906946611633	0
4	386	930.044493005324	1
4	388	931.999341308693	2
4	390	935.126957832346	3
4	396	948.383369466599	3
4	397	960.922306187448	2
4	398	966.723321326963	1
4	400	967.986976557275	1
4	401	970.048738747733	1
4	402	971.450455438873	0
4	404	971.614401115977	0
4	405	973.399339445105	0
4	407	977.048754828475	0
4	408	980.111992936201	0
4	410	990.426205312561	0
4	414	995.943592048176	1
4	419	1018.639678552878	1
4	420	1018.827100612691	0
4	422	1022.382591948731	0
4	423	1022.848254490347	0
4	427	1028.602936522879	0
4	429	1028.810805650015	1
4	431	1032.689327883088	1
4	433	1033.490433093267	1
4	440	1056.521065962485	1
4	441	1058.56419765151	0
4	445	1061.002901677937	0
4	447	1061.673949596652	0
4	452	1067.267288635778	0
4	453	1074.667649921223	0
4	455	1075.724465931961	0
4	457	1076.082481560829	1
4	458	1077.365476164732	1
4	459	1077.717145903833	0
4	461	1077.735018370196	0
4	462	1078.324397616474	0
4	464	1078.615384691453	0
4	466	1081.67931445012	1
4	467	1084.408551058601	1
4	474	1094.104680646385	0
4	478	1094.866445323894	0
4	480	1099.584940737348	0
4	482	1111.881230236583	0
4	483	1116.792400031368	0
4	487	1121.992740047389	0
4	489	1123.408721044737	0
4	496	1134.933958298035	0
4	498	1135.217004455986	1
4	500	1135.363051972741	2
4	502	1138.932231129405	3
4	504	1142.749359878515	3
4	505	1143.269240694185	2
4	507	1144.787715153364	2
4	509	1147.283264483279	3
4	510	1149.53453282375	3
4	511	1150.943424559821	2
4	512	1152.099227532051	1
4	513	1152.92234301258	0
4	515	1155.69337419801	0
4	517	1156.259289260176	1
4	519	1163.204706882349	2
4	521	1170.612254816977	3
4	526	1186.949025027116	4
4	527	1190.307113477206	4
4	528	1191.285482887663	3
4	530	1192.333899696592	3
4	531	1196.984295340317	3
4	533	1197.613977193519	3
4	535	1198.108177697727	4
4	537	1198.606263427609	5
4	538	1202.004285359812	5
4	540	1207.102040070224	5
4	542	1215.572599614181	6
4	543	1229.439119314356	6
4	544	1230.795925393679	5
4	546	1231.844375578986	5
4	547	1234.609704337773	5
4	549	1234.910810938707	5
4	551	1236.116699961997	6
4	552	1238.816609282749	6
4	553	1239.292822784648	5
4	554	1243.359599158818	4
4	555	1244.970999008627	3
4	556	1245.348590380962	2
4	557	1246.377282659465	1
4	559	1247.942971155498	1
4	561	1251.188053035955	2
4	562	1255.531089256723	2
4	572	1270.769437620494	1
4	573	1272.687090464628	0
4	575	1275.249598754447	0
4	576	1278.008321234884	0
4	578	1285.512833833394	0
4	579	1286.295348505362	0
4	588	1294.031758144982	0
4	590	1300.819020909668	1
4	593	1304.338706416854	1
4	594	1305.397994158448	0
4	596	1310.93961002616	0
4	597	1314.444064642034	0
4	599	1318.003070602428	0
4	600	1321.376073144147	0
4	602	1326.696373353387	0
4	603	1329.800454675129	0
4	605	1332.884941883537	0
4	607	1336.650535836356	1
4	611	1355.790540142495	1
4	612	1357.67615914134	0
4	614	1359.16404557901	0
4	618	1366.636648785843	1
4	621	1375.945051716496	2
4	622	1385.507677372572	2
4	623	1385.570335426186	1
4	625	1386.322276825134	1
4	627	1395.569428066275	2
4	628	1395.959010294102	2
4	630	1398.224964158521	2
4	631	1402.84956461616	2
4	633	1404.092529556116	2
4	635	1404.723363852476	3
4	636	1406.305726493475	3
4	640	1411.263528282476	3
4	642	1411.964963807705	3
4	643	1413.01665115078	2
4	645	1420.224574092024	2
4	652	1442.157175674872	3
4	657	1450.186517457622	4
4	660	1452.524777592798	5
4	661	1464.165818300835	5
4	662	1464.888938417933	4
4	663	1467.317652045418	3
4	664	1469.587641783051	2
4	668	1471.364551841377	2
4	670	1477.505246765971	2
4	671	1478.398157119302	1
4	672	1478.549344908623	0
4	674	1500.292962552547	0
4	675	1510.588485738988	0
4	677	1514.628496105396	0
4	679	1515.391585098206	1
4	680	1517.17273542347	1
4	681	1517.905722229986	0
4	683	1520.075491215183	0
4	684	1520.98879765729	0
4	686	1529.117938344292	0
4	687	1530.466364406323	0
4	689	1536.955543686046	0
4	690	1537.159589497433	0
4	692	1537.272009496688	0
4	693	1541.796281942518	0
4	698	1568.170486611142	0
4	700	1579.114421679445	1
4	702	1580.500100178335	2
4	703	1584.807094630837	2
4	708	1590.644250055458	2
4	710	1590.825644943243	3
4	711	1592.585368740515	3
4	712	1593.345711926096	2
4	716	1603.090764948607	1
4	718	1610.664425130129	1
4	719	1612.168399888475	1
4	720	1615.187120453376	0
4	722	1618.936633049524	0
4	723	1622.879491401285	0
4	725	1647.347486492507	0
4	726	1648.037812313676	0
4	728	1651.645264029249	0
4	730	1657.544440275635	1
4	731	1659.152359677814	1
4	732	1666.299782049151	0
4	734	1667.875743443595	0
4	735	1672.048807267146	0
4	737	1678.961085905515	0
4	738	1680.087027077161	0
4	742	1682.270965130991	0
4	744	1685.979684367704	0
4	751	1708.084792584536	0
4	753	1713.623104352338	1
4	758	1719.309166924089	1
4	762	1723.283784264192	1
4	765	1728.055282631709	2
4	767	1731.950005401017	3
4	769	1733.335643327318	4
4	771	1737.184569819368	5
4	772	1745.457910474761	5
4	777	1746.430995735594	5
4	778	1749.701065178884	5
4	780	1749.876436639148	5
4	782	1750.623721910651	6
4	783	1751.780618569477	6
4	784	1762.62479601181	5
4	788	1782.186823052272	5
4	790	1786.678947997071	6
4	796	1791.887006369677	7
4	797	1793.741091696874	7
4	798	1794.512830673287	6
4	799	1795.103634013741	5
4	800	1795.373966794635	4
4	804	1797.950978938951	4
4	815	1812.745202458693	4
4	816	1813.846476398534	3
4	817	1819.380799774468	2
4	818	1826.763010386382	1
4	820	1827.242154249278	1
4	821	1827.989026730162	1
4	822	1828.567792347651	0
4	824	1850.542439783431	0
4	825	1853.280626618864	0
4	827	1870.004880988581	0
4	828	1870.466847643123	0
4	830	1873.144783037164	0
4	831	1878.125326153251	0
4	833	1884.822081319794	0
4	835	1885.778595246252	1
4	837	1885.811529056579	2
4	839	1897.708087929202	3
4	840	1901.79746806947	3
4	841	1904.175513024934	2
4	842	1905.255716521972	1
4	843	1905.363895054136	0
4	847	1920.744293764123	0
4	849	1921.984722173682	0
4	851	1932.417776871576	0
4	852	1951.669110484744	0
4	854	1957.658186564513	0
4	856	1958.145638604626	1
4	858	1958.20490747963	2
4	859	1959.227527629995	2
4	861	1962.041132941032	2
4	862	1966.330624100851	2
4	863	1971.581599667373	1
4	864	1971.740012073316	0
4	866	1972.339259434377	0
4	867	1976.296117135369	0
4	869	1996.972662773382	0
4	870	2001.458277373669	0
4	872	2001.837521535633	0
4	873	2007.803095430382	0
4	875	2022.651661072584	0
4	876	2027.02666262939	0
4	878	2031.708678368501	0
4	880	2039.16582307412	1
4	881	2048.206135892036	1
4	883	2048.602623725115	1
4	885	2051.296746386859	2
4	889	2057.94254592563	2
4	891	2060.450138024586	2
4	893	2061.864559880863	3
4	894	2064.625035640536	3
4	896	2065.608353002928	3
4	897	2069.195248435569	3
4	898	2070.525676294783	2
4	900	2073.528318068424	2
4	902	2074.252666708182	3
4	909	2092.620952735904	3
4	911	2094.944618720664	3
4	912	2100.31312559857	3
4	913	2101.582508581738	2
4	917	2111.075776948067	2
4	919	2119.601464412959	2
4	920	2119.749998844687	1
4	925	2121.523496411099	1
4	926	2125.760116402305	1
4	927	2127.774867957134	0
4	932	2145.763574788525	0
4	933	2146.596768496763	0
4	935	2151.397617746221	0
4	937	2153.562706682703	1
4	938	2154.256001253897	1
4	939	2155.394258103267	0
4	941	2158.8277209331	0
4	942	2160.332142668832	0
4	944	2161.192638793574	0
4	945	2161.542599698057	0
4	950	2176.623459025381	0
4	955	2181.362624258206	1
4	957	2184.414138255062	2
4	959	2189.569960956599	3
4	960	2189.819312505474	3
4	962	2192.862153177103	3
4	963	2196.740508810221	3
4	964	2197.917742725576	2
4	965	2198.910481585168	1
4	966	2200.784819095281	0
4	968	2214.505848794852	0
4	970	2214.739026256483	1
4	971	2215.169283042454	1
4	972	2216.344168720062	0
4	974	2216.997427399395	0
4	975	2218.270645422485	0
4	977	2228.158970210153	0
4	978	2232.062443785101	0
4	980	2233.589270654671	0
4	984	2235.134555999138	1
4	986	2238.476269214627	1
4	987	2240.696876244406	0
4	989	2245.5746372874	0
4	990	2245.746671867493	0
4	992	2246.434071313046	0
4	994	2253.60115613332	1
4	995	2257.83449477874	1
4	996	2259.3023193903	0
4	1001	2264.722149296945	0
4	1005	2268.784290434962	1
4	1011	2282.192260561595	2
4	1024	2297.26438804666	3
4	1029	2306.451312004043	4
4	1032	2307.906601523895	5
4	1034	2308.451575159593	6
4	1036	2310.57992847033	7
4	1040	2313.938378685859	8
4	1042	2315.819950969994	8
4	1043	2319.052726593927	7
4	1045	2319.089880690129	7
4	1046	2326.186622846178	7
4	1047	2329.311867466576	6
4	1048	2330.592877617795	5
4	1049	2331.573658291128	4
4	1051	2332.875221144699	4
4	1052	2336.305470098954	4
4	1053	2337.632365338178	3
4	1054	2344.705982365686	2
4	1056	2348.332552859931	2
4	1058	2353.692697809273	3
4	1060	2356.62042384619	4
4	1061	2356.872645791124	4
4	1063	2358.091024437805	4
4	1065	2359.250582496203	5
4	1067	2366.186839445675	6
4	1068	2380.66511717876	6
4	1069	2384.565298649029	5
4	1071	2392.876483049199	5
4	1073	2394.55395121754	6
4	1075	2395.905132468107	7
4	1077	2396.699003818489	8
4	1079	2405.987835363148	9
4	1080	2406.847318138509	9
4	1081	2409.188904148538	8
4	1082	2411.114816523696	7
4	1083	2411.181259146016	6
4	1088	2431.543350033688	6
4	1089	2432.239558870804	6
4	1091	2434.969970675909	6
4	1093	2436.854714053433	7
4	1094	2439.148080190383	7
4	1098	2446.703873746544	7
4	1102	2453.818389630889	8
4	1109	2464.591085000307	9
4	1111	2466.762044446235	10
4	1113	2467.46333134511	11
4	1117	2475.219092225462	12
4	1119	2479.456703426756	12
4	1121	2479.611011255182	12
4	1122	2479.872090607933	12
4	1123	2487.821334377096	11
4	1124	2488.244399917169	10
4	1125	2489.1861501574	9
4	1126	2491.806994294234	8
4	1127	2493.40437445012	7
4	1129	2495.728823675633	7
4	1131	2499.804357768263	8
5	161	361.339663494602	0
5	164	367.9828784262	0
5	167	379.513301138535	0
5	172	394.390403984467	13.730930240818
5	175	396.153388215198	2.024123955216
5	176	396.200674955867	0.228980538402
5	179	406.037428163507	1.686985878717
5	182	413.871900018616	3.834543843819
5	190	432.477432067585	6.711690715677
5	193	437.242907200992	9.725095550397
5	194	439.461342318535	5.854534250816
5	197	448.069818965425	0
5	202	462.958709204954	6.607439159122
5	203	469.375027318167	12.813463535576
5	206	472.719413120029	0
5	209	486.712561538258	12.540460651773
5	249	554.915611920493	52.065260670374
5	250	558.780766126454	54.694343743517
5	253	571.272086467256	64.657889751182
5	254	574.447778588134	64.124429306653
5	255	574.609896979536	52.148343889498
5	260	579.506482731379	45.914186594965
5	261	579.84297857243	39.320308808978
5	264	585.695316358479	38.800633464416
5	267	590.678812022541	41.519379142246
5	268	592.382581195103	26.28580223365
5	275	604.876114829767	28.853972228853
5	276	605.147532916997	25.706305417154
5	277	605.191302584889	24.19173561166
5	282	607.783705438894	18.111467276927
5	285	608.775734737487	14.566382188401
5	288	615.639215616334	20.885813046669
5	289	619.370308587056	21.225599960678
5	290	623.958150716971	17.077223989535
5	291	632.337139187999	24.816511586702
5	298	637.755887209138	29.07929062908
5	299	638.851841654911	26.206680324262
5	300	639.24552896317	6.48429039369
5	301	643.767388403542	6.931766326522
5	302	649.109579177138	11.892485855362
5	305	675.410655830787	0
5	308	678.969882372652	1.104802725568
5	311	687.662234629069	0
5	320	730.758287029875	0
5	326	760.778512054772	0
5	331	765.583649621124	2.907539802173
5	332	771.0996201533	6.744847141566
5	337	783.093027422191	5.829314222816
5	338	783.093087612767	4.532799078692
5	341	795.990510267887	0
5	344	803.875283134171	0
5	347	809.094828093027	0
5	350	815.32284321129	0.750967505022
5	353	824.382098888002	3.808035574275
5	356	829.945582910592	0
5	359	835.06437174103	0
5	365	850.643575561551	0
5	392	937.782421171104	33.875474559471
5	395	943.929533782649	13.885040777325
5	396	948.383369466599	16.384028157906
5	397	960.922306187448	25.795348355102
5	398	966.723321326963	26.321792225529
5	401	970.048738747733	2.061762190458
5	404	971.614401115977	0
5	407	977.048754828475	0
5	410	990.426205312561	0
5	415	1009.041639985493	18.13262499864
5	418	1017.181277033756	21.23768498558
5	419	1018.639678552878	5.378631276262
5	422	1022.382591948731	0
5	430	1030.304522699678	1.701586176799
5	431	1032.689327883088	3.878522233073
5	439	1051.882552523075	18.392119429808
5	440	1056.521065962485	22.018040648571
5	446	1061.328647983549	0.325746305612
5	452	1067.267288635778	0
5	455	1075.724465931961	0
5	458	1077.365476164732	1.282994603903
5	461	1077.735018370196	0
5	464	1078.615384691453	0
5	467	1084.408551058601	2.729236608481
5	470	1088.03547744255	3.441144729989
5	473	1093.091370830266	2.337203511227
5	479	1095.611697217038	0.745251893144
5	482	1111.881230236583	0
5	488	1122.666301923088	0.673561875699
5	503	1139.314514094323	4.380555796288
5	504	1142.749359878515	7.532355422529
5	505	1143.269240694185	7.906188721444
5	510	1149.53453282375	10.602301694345
5	511	1150.943424559821	6.155709406457
5	512	1152.099227532051	4.815963048772
5	515	1155.69337419801	0
5	524	1177.289035238016	21.02974597784
5	527	1190.307113477206	27.102406594857
5	528	1191.285482887663	20.673228070686
5	531	1196.984295340317	21.649110209309
5	538	1202.004285359812	15.055260332696
5	543	1229.439119314356	37.105219617764
5	544	1230.795925393679	33.18194820016
5	547	1234.609704337773	36.501526640046
5	552	1238.816609282749	40.21034585514
5	553	1239.292822784648	32.190782714424
5	554	1243.359599158818	27.786999544637
5	555	1244.970999008627	13.126623429641
5	556	1245.348590380962	10.437779442255
5	557	1246.377282659465	10.260582697468
5	562	1255.531089256723	7.588118101225
5	571	1268.170782738376	16.982729702421
5	572	1270.769437620494	14.164002893134
5	575	1275.249598754447	0
5	578	1285.512833833394	0
5	592	1304.32413190458	10.292373759598
5	593	1304.338706416854	3.519685507186
5	596	1310.93961002616	0
5	599	1318.003070602428	0
5	602	1326.696373353387	0
5	605	1332.884941883537	0
5	610	1347.929260973257	11.278725136901
5	611	1355.790540142495	18.566820066881
5	614	1359.16404557901	0
5	619	1368.885978416957	5.365577097983
5	622	1385.507677372572	18.871028586729
5	623	1385.570335426186	9.62528370969
5	628	1395.959010294102	9.636733468968
5	631	1402.84956461616	7.280136549885
5	636	1406.305726493475	8.080762334954
5	641	1411.400351972116	7.307822416
5	642	1411.964963807705	7.241599955229
5	643	1413.01665115078	6.503768406293
5	658	1451.944337167082	40.680808884606
5	661	1464.165818300835	43.941244208811
5	662	1464.888938417933	31.240462491891
5	663	1467.317652045418	25.160476370546
5	664	1469.587641783051	19.401124325429
5	669	1476.220530616012	23.695753023214
5	670	1477.505246765971	7.811585237463
5	671	1478.398157119302	7.033605277925
5	674	1500.292962552547	0
5	677	1514.628496105396	0
5	680	1517.17273542347	1.781150325264
5	683	1520.075491215183	0
5	686	1529.117938344292	0
5	689	1536.955543686046	0
5	692	1537.272009496688	0
5	698	1568.170486611142	0
5	703	1584.807094630837	5.692672951392
5	706	1590.366594416289	9.866494237954
5	711	1592.585368740515	4.388939534132
5	712	1593.345711926096	2.701461870638
5	715	1602.953461426384	12.127816483141
5	716	1603.090764948607	2.8597244591
5	719	1612.168399888475	1.503974758346
5	722	1618.936633049524	0
5	725	1647.347486492507	0
5	728	1651.645264029249	0
5	731	1659.152359677814	1.607919402179
5	734	1667.875743443595	0
5	737	1678.961085905515	0
5	743	1682.997785874293	0.726820743302
5	757	1718.34288212978	10.258089545244
5	758	1719.309166924089	5.686062571751
5	763	1726.555020026771	5.999208169201
5	772	1745.457910474761	22.174126210569
5	775	1745.969726830844	17.914444199135
5	778	1749.701065178884	17.751059777867
5	783	1751.780618569477	18.444975242159
5	784	1762.62479601181	25.440226192442
5	791	1786.71281540221	41.06489361457
5	794	1788.743586198703	42.312590463109
5	797	1793.741091696874	43.864655057726
5	798	1794.512830673287	43.889108762636
5	799	1795.103634013741	15.654434843138
5	800	1795.373966794635	13.187143742363
5	814	1809.87947490077	23.200526903699
5	815	1812.745202458693	24.450245862642
5	816	1813.846476398534	21.959470028857
5	817	1819.380799774468	22.081613461458
5	818	1826.763010386382	28.812031447431
5	821	1827.989026730162	0.746872480884
5	824	1850.542439783431	0
5	827	1870.004880988581	0
5	830	1873.144783037164	0
5	833	1884.822081319794	0
5	840	1901.79746806947	16.018872823218
5	841	1904.175513024934	18.363983968355
5	842	1905.255716521972	7.54762859277
5	848	1921.557477069763	0.81318330564
5	851	1932.417776871576	0
5	854	1957.658186564513	0
5	859	1959.227527629995	1.081889025369
5	862	1966.330624100851	8.125716621221
5	863	1971.581599667373	9.540466726341
5	866	1972.339259434377	0
5	869	1996.972662773382	0
5	872	2001.837521535633	0
5	875	2022.651661072584	0
5	878	2031.708678368501	0
5	881	2048.206135892036	9.040312817916
5	888	2056.315823322022	7.713199596907
5	889	2057.94254592563	6.645799538771
5	894	2064.625035640536	12.115941249617
5	897	2069.195248435569	8.745110410983
5	898	2070.525676294783	8.66111641392
5	908	2083.277575607307	17.669222604379
5	909	2092.620952735904	19.09263466748
5	912	2100.31312559857	26.060458890388
5	913	2101.582508581738	26.273833994266
5	918	2117.076212179435	22.131593458771
5	919	2119.601464412959	10.91560209731
5	920	2119.749998844687	8.67422189662
5	923	2121.248021392062	0.171811858386
5	926	2125.760116402305	4.236619991206
5	932	2145.763574788525	0
5	935	2151.397617746221	0
5	938	2154.256001253897	0.693294571194
5	941	2158.8277209331	0
5	944	2161.192638793574	0
5	950	2176.623459025381	0
5	953	2178.111140236594	0.882915111717
5	960	2189.819312505474	8.456688247268
5	963	2196.740508810221	12.326370555159
5	964	2197.917742725576	8.347781768977
5	965	2198.910481585168	6.048328408065
5	968	2214.505848794852	0
5	971	2215.169283042454	0.430256785971
5	974	2216.997427399395	0
5	977	2228.158970210153	0
5	980	2233.589270654671	0
5	985	2238.010192104272	3.248229922502
5	986	2238.476269214627	3.341713215489
5	989	2245.5746372874	0
5	992	2246.434071313046	0
5	995	2257.83449477874	4.23333864542
5	1001	2264.722149296945	0
5	1020	2292.054739902508	27.214354969418
5	1030	2307.895305167988	39.111014733026
5	1041	2315.521356234161	33.329095672566
5	1042	2315.819950969994	22.261100717903
5	1043	2319.052726593927	21.788338547267
5	1046	2326.186622846178	19.735310842135
5	1047	2329.311867466576	21.405265942681
5	1048	2330.592877617795	22.141302458202
5	1049	2331.573658291128	20.993729820798
5	1052	2336.305470098954	24.211069912537
5	1053	2337.632365338178	23.693986652319
5	1054	2344.705982365686	25.616101675557
5	1061	2356.872645791124	23.997424646425
5	1068	2380.66511717876	32.332564318829
5	1069	2384.565298649029	30.872600839756
5	1080	2406.847318138509	50.226894292319
5	1081	2409.188904148538	51.097879710733
5	1082	2411.114816523696	51.864234027493
5	1083	2411.181259146016	44.994419700341
5	1086	2423.399802366215	30.523319317016
5	1089	2432.239558870804	37.685607653264
5	1094	2439.148080190383	43.242947722276
5	1118	2479.345856337852	82.646852519363
5	1119	2479.456703426756	73.468868063608
5	1122	2479.872090607933	58.850900152515
5	1123	2487.821334377096	56.277984343408
5	1124	2488.244399917169	53.27442924126
5	1125	2489.1861501574	52.331436103967
5	1126	2491.806994294234	45.776914421165
5	1127	2493.40437445012	46.700500703576
6	162	365.120901747532	34
6	165	370.118221488304	35
6	176	396.200674955867	36
6	183	423.983325573738	37
6	193	437.242907200992	38
6	194	439.461342318535	39
6	195	440.455467765489	40
6	202	462.958709204954	41
6	203	469.375027318167	42
6	204	470.603884315417	43
6	209	486.712561538258	44
6	210	488.636400679209	45
6	250	558.780766126454	46
6	253	571.272086467256	47
6	254	574.447778588134	48
6	255	574.609896979536	49
6	260	579.506482731379	50
6	261	579.84297857243	51
6	264	585.695316358479	52
6	268	592.382581195103	53
6	276	605.147532916997	54
6	277	605.191302584889	55
6	285	608.775734737487	56
6	288	615.639215616334	57
6	289	619.370308587056	58
6	290	623.958150716971	59
6	291	632.337139187999	60
6	298	637.755887209138	61
6	299	638.851841654911	62
6	300	639.24552896317	63
6	301	643.767388403542	64
6	302	649.109579177138	65
6	303	653.02585211365	66
6	308	678.969882372652	67
6	309	681.972642381276	68
6	312	690.930745868789	69
6	321	734.341175502001	70
6	332	771.0996201533	71
6	337	783.093027422191	72
6	338	783.093087612767	73
6	339	783.722922398056	74
6	342	797.408819129708	75
6	345	804.466534681895	76
6	350	815.32284321129	77
6	353	824.382098888002	78
6	354	826.34421689411	79
6	357	831.532548677899	80
6	360	836.686076801904	81
6	366	855.456730963182	82
6	396	948.383369466599	83
6	397	960.922306187448	84
6	398	966.723321326963	85
6	401	970.048738747733	86
6	402	971.450455438873	87
6	405	973.399339445105	88
6	408	980.111992936201	89
6	419	1018.639678552878	90
6	420	1018.827100612691	91
6	423	1022.848254490347	92
6	431	1032.689327883088	93
6	440	1056.521065962485	94
6	441	1058.56419765151	95
6	447	1061.673949596652	96
6	453	1074.667649921223	97
6	458	1077.365476164732	98
6	459	1077.717145903833	99
6	462	1078.324397616474	100
6	467	1084.408551058601	101
6	474	1094.104680646385	102
6	480	1099.584940737348	103
6	483	1116.792400031368	104
6	489	1123.408721044737	105
6	504	1142.749359878515	106
6	505	1143.269240694185	107
6	510	1149.53453282375	108
6	511	1150.943424559821	109
6	512	1152.099227532051	110
6	513	1152.92234301258	111
6	527	1190.307113477206	112
6	528	1191.285482887663	113
6	531	1196.984295340317	114
6	538	1202.004285359812	115
6	543	1229.439119314356	116
6	544	1230.795925393679	117
6	547	1234.609704337773	118
6	552	1238.816609282749	119
6	553	1239.292822784648	120
6	554	1243.359599158818	121
6	555	1244.970999008627	122
6	556	1245.348590380962	123
6	557	1246.377282659465	124
6	562	1255.531089256723	125
6	572	1270.769437620494	126
6	573	1272.687090464628	127
6	576	1278.008321234884	128
6	579	1286.295348505362	129
6	593	1304.338706416854	130
6	594	1305.397994158448	131
6	597	1314.444064642034	132
6	600	1321.376073144147	133
6	603	1329.800454675129	134
6	611	1355.790540142495	135
6	612	1357.67615914134	136
6	622	1385.507677372572	137
6	623	1385.570335426186	138
6	628	1395.959010294102	139
6	631	1402.84956461616	140
6	636	1406.305726493475	141
6	642	1411.964963807705	142
6	643	1413.01665115078	143
6	661	1464.165818300835	144
6	662	1464.888938417933	145
6	663	1467.317652045418	146
6	664	1469.587641783051	147
6	670	1477.505246765971	148
6	671	1478.398157119302	149
6	672	1478.549344908623	150
6	675	1510.588485738988	151
6	680	1517.17273542347	152
6	681	1517.905722229986	153
6	684	1520.98879765729	154
6	687	1530.466364406323	155
6	690	1537.159589497433	156
6	693	1541.796281942518	157
6	703	1584.807094630837	158
6	711	1592.585368740515	159
6	712	1593.345711926096	160
6	716	1603.090764948607	161
6	719	1612.168399888475	162
6	720	1615.187120453376	163
6	723	1622.879491401285	164
6	726	1648.037812313676	165
6	731	1659.152359677814	166
6	732	1666.299782049151	167
6	735	1672.048807267146	168
6	738	1680.087027077161	169
6	744	1685.979684367704	170
6	758	1719.309166924089	171
6	772	1745.457910474761	172
6	778	1749.701065178884	173
6	783	1751.780618569477	174
6	784	1762.62479601181	175
6	797	1793.741091696874	176
6	798	1794.512830673287	177
6	799	1795.103634013741	178
6	800	1795.373966794635	179
6	815	1812.745202458693	180
6	816	1813.846476398534	181
6	817	1819.380799774468	182
6	818	1826.763010386382	183
6	821	1827.989026730162	184
6	822	1828.567792347651	185
6	825	1853.280626618864	186
6	828	1870.466847643123	187
6	831	1878.125326153251	188
6	840	1901.79746806947	189
6	841	1904.175513024934	190
6	842	1905.255716521972	191
6	843	1905.363895054136	192
6	849	1921.984722173682	193
6	852	1951.669110484744	194
6	859	1959.227527629995	195
6	862	1966.330624100851	196
6	863	1971.581599667373	197
6	864	1971.740012073316	198
6	867	1976.296117135369	199
6	870	2001.458277373669	200
6	873	2007.803095430382	201
6	876	2027.02666262939	202
6	881	2048.206135892036	203
6	889	2057.94254592563	204
6	894	2064.625035640536	205
6	897	2069.195248435569	206
6	898	2070.525676294783	207
6	909	2092.620952735904	208
6	912	2100.31312559857	209
6	913	2101.582508581738	210
6	919	2119.601464412959	211
6	920	2119.749998844687	212
6	926	2125.760116402305	213
6	927	2127.774867957134	214
6	933	2146.596768496763	215
6	938	2154.256001253897	216
6	939	2155.394258103267	217
6	942	2160.332142668832	218
6	945	2161.542599698057	219
6	960	2189.819312505474	220
6	963	2196.740508810221	221
6	964	2197.917742725576	222
6	965	2198.910481585168	223
6	966	2200.784819095281	224
6	971	2215.169283042454	225
6	972	2216.344168720062	226
6	975	2218.270645422485	227
6	978	2232.062443785101	228
6	986	2238.476269214627	229
6	987	2240.696876244406	230
6	990	2245.746671867493	231
6	995	2257.83449477874	232
6	996	2259.3023193903	233
6	1042	2315.819950969994	234
6	1043	2319.052726593927	235
6	1046	2326.186622846178	236
6	1047	2329.311867466576	237
6	1048	2330.592877617795	238
6	1049	2331.573658291128	239
6	1052	2336.305470098954	240
6	1053	2337.632365338178	241
6	1054	2344.705982365686	242
6	1061	2356.872645791124	243
6	1068	2380.66511717876	244
6	1069	2384.565298649029	245
6	1080	2406.847318138509	246
6	1081	2409.188904148538	247
6	1082	2411.114816523696	248
6	1083	2411.181259146016	249
6	1089	2432.239558870804	250
6	1094	2439.148080190383	251
6	1119	2479.456703426756	252
6	1122	2479.872090607933	253
6	1123	2487.821334377096	254
6	1124	2488.244399917169	255
6	1125	2489.1861501574	256
6	1126	2491.806994294234	257
6	1127	2493.40437445012	258
7	162	365.120901747532	3.78123825293
7	165	370.118221488304	2.135343062104
7	176	396.200674955867	2.071410695885
7	183	423.983325573738	13.945969398941
7	193	437.242907200992	11.477165849084
7	194	439.461342318535	11.94353066794
7	195	440.455467765489	6.84865969777
7	202	462.958709204954	14.888890239529
7	203	469.375027318167	13.023757272335
7	204	470.603884315417	14.042320532826
7	209	486.712561538258	13.993148418229
7	210	488.636400679209	14.464299792724
7	250	558.780766126454	55.930414876335
7	253	571.272086467256	67.185664084319
7	254	574.447778588134	67.83358187206
7	255	574.609896979536	64.286547698055
7	260	579.506482731379	57.044929641341
7	261	579.84297857243	46.250682436016
7	264	585.695316358479	45.172646595027
7	268	592.382581195103	43.223148314808
7	276	605.147532916997	29.125390316083
7	277	605.191302584889	25.750075085046
7	285	608.775734737487	19.10349657552
7	288	615.639215616334	21.429863067248
7	289	619.370308587056	24.616906017391
7	290	623.958150716971	25.813442090593
7	291	632.337139187999	25.456212460563
7	298	637.755887209138	30.235259607841
7	299	638.851841654911	30.175245074853
7	300	639.24552896317	26.600367632521
7	301	643.767388403542	11.006149834062
7	302	649.109579177138	12.273957100118
7	303	653.02585211365	15.808758791874
7	308	678.969882372652	3.559226541865
7	309	681.972642381276	4.107562734192
7	312	690.930745868789	3.26851123972
7	321	734.341175502001	3.582888472126
7	332	771.0996201533	8.423510334349
7	337	783.093027422191	18.738254410457
7	338	783.093087612767	5.829374413392
7	339	783.722922398056	5.162633863981
7	342	797.408819129708	1.418308861821
7	345	804.466534681895	0.591251547724
7	350	815.32284321129	6.228015118263
7	353	824.382098888002	9.810223181734
7	354	826.34421689411	5.770153580383
7	357	831.532548677899	1.586965767307
7	360	836.686076801904	1.621705060874
7	366	855.456730963182	4.813155401631
7	396	948.383369466599	18.338876461275
7	397	960.922306187448	28.922964878755
7	398	966.723321326963	31.596363494617
7	401	970.048738747733	29.647209646299
7	402	971.450455438873	3.463478881598
7	405	973.399339445105	1.784938329128
7	408	980.111992936201	3.063238107726
7	419	1018.639678552878	22.696086504702
7	420	1018.827100612691	5.566053336075
7	423	1022.848254490347	0.465662541616
7	431	1032.689327883088	4.086391360209
7	440	1056.521065962485	23.030632869218
7	441	1058.56419765151	24.061172337596
7	447	1061.673949596652	0.671047918715
7	453	1074.667649921223	7.400361285445
7	458	1077.365476164732	1.641010232771
7	459	1077.717145903833	1.634664343004
7	462	1078.324397616474	0.589379246278
7	467	1084.408551058601	5.793166367148
7	474	1094.104680646385	3.350513327346
7	480	1099.584940737348	4.718495413454
7	483	1116.792400031368	4.911169794785
7	489	1123.408721044737	1.415980997348
7	504	1142.749359878515	7.81540158048
7	505	1143.269240694185	8.052236238199
7	510	1149.53453282375	14.171480851009
7	511	1150.943424559821	12.011193430416
7	512	1152.099227532051	7.311512378687
7	513	1152.92234301258	5.639078529301
7	527	1190.307113477206	34.04782421703
7	528	1191.285482887663	28.080776005314
7	531	1196.984295340317	26.37204052334
7	538	1202.004285359812	26.669100228804
7	543	1229.439119314356	42.49009428724
7	544	1230.795925393679	38.462025697087
7	547	1234.609704337773	36.995727144254
7	552	1238.816609282749	40.708431585022
7	553	1239.292822784648	40.686559357039
7	554	1243.359599158818	36.257559088594
7	555	1244.970999008627	29.398399394446
7	556	1245.348590380962	13.504214801976
7	557	1246.377282659465	11.466471720758
7	562	1255.531089256723	19.414389294726
7	572	1270.769437620494	19.581384584539
7	573	1272.687090464628	16.081655737268
7	576	1278.008321234884	2.758722480437
7	579	1286.295348505362	0.782514671968
7	593	1304.338706416854	10.306948271872
7	594	1305.397994158448	4.57897324878
7	597	1314.444064642034	3.504454615874
7	600	1321.376073144147	3.373002541719
7	603	1329.800454675129	3.104081321742
7	611	1355.790540142495	19.140004306139
7	612	1357.67615914134	20.452439065726
7	622	1385.507677372572	21.987276053598
7	623	1385.570335426186	18.933686640343
7	628	1395.959010294102	20.013958577606
7	631	1402.84956461616	16.527287791026
7	636	1406.305726493475	10.7362984272
7	642	1411.964963807705	7.872434251589
7	643	1413.01665115078	8.293287298304
7	661	1464.165818300835	52.902290018359
7	662	1464.888938417933	44.664364325909
7	663	1467.317652045418	33.669176119376
7	664	1469.587641783051	27.430466108179
7	670	1477.505246765971	24.980469173173
7	671	1478.398157119302	8.704495590794
7	672	1478.549344908623	7.184793067246
7	675	1510.588485738988	10.295523186441
7	680	1517.17273542347	2.544239318074
7	681	1517.905722229986	2.51413713178
7	684	1520.98879765729	0.913306442107
7	687	1530.466364406323	1.348426062031
7	690	1537.159589497433	0.204045811387
7	693	1541.796281942518	4.52427244583
7	703	1584.807094630837	16.636608019695
7	711	1592.585368740515	12.08526856218
7	712	1593.345711926096	5.149282719713
7	716	1603.090764948607	12.265120005364
7	719	1612.168399888475	11.937359398968
7	720	1615.187120453376	4.522695323247
7	723	1622.879491401285	3.942858351761
7	726	1648.037812313676	0.690325821169
7	731	1659.152359677814	7.507095648565
7	732	1666.299782049151	8.755341773516
7	735	1672.048807267146	4.173063823551
7	738	1680.087027077161	1.125941171646
7	744	1685.979684367704	3.708719236713
7	758	1719.309166924089	11.224374339553
7	772	1745.457910474761	24.902098617191
7	778	1749.701065178884	21.645782547175
7	783	1751.780618569477	19.83061316846
7	784	1762.62479601181	29.289152684492
7	797	1793.741091696874	47.31009596128
7	798	1794.512830673287	44.636394034139
7	799	1795.103634013741	44.47991210309
7	800	1795.373966794635	15.924767624032
7	815	1812.745202458693	26.066254461622
7	816	1813.846476398534	25.551519802483
7	817	1819.380799774468	27.493793404791
7	818	1826.763010386382	29.463824073372
7	821	1827.989026730162	30.038047791211
7	822	1828.567792347651	1.325638098373
7	825	1853.280626618864	2.738186835433
7	828	1870.466847643123	0.461966654542
7	831	1878.125326153251	4.980543116087
7	840	1901.79746806947	16.975386749676
7	841	1904.175513024934	18.396917778682
7	842	1905.255716521972	19.444187465393
7	843	1905.363895054136	7.655807124934
7	849	1921.984722173682	1.240428409559
7	852	1951.669110484744	19.251333613168
7	859	1959.227527629995	1.569341065482
7	862	1966.330624100851	8.184985496225
7	863	1971.581599667373	13.376692187743
7	864	1971.740012073316	9.698879132284
7	867	1976.296117135369	3.956857700992
7	870	2001.458277373669	4.485614600287
7	873	2007.803095430382	5.965573894749
7	876	2027.02666262939	4.375001556806
7	881	2048.206135892036	16.497457523535
7	889	2057.94254592563	9.339922200515
7	894	2064.625035640536	13.328289253677
7	897	2069.195248435569	16.68615404465
7	898	2070.525676294783	10.075538270197
7	909	2092.620952735904	27.012599732976
7	912	2100.31312559857	26.784807530146
7	913	2101.582508581738	27.329841873556
7	919	2119.601464412959	24.656845692295
7	920	2119.749998844687	11.064136529038
7	926	2125.760116402305	4.683906868629
7	927	2127.774867957134	6.251371546035
7	933	2146.596768496763	0.833193708238
7	938	2154.256001253897	2.858383507676
7	939	2155.394258103267	1.831551420564
7	942	2160.332142668832	1.504421735732
7	945	2161.542599698057	0.349960904483
7	960	2189.819312505474	12.591087380597
7	963	2196.740508810221	15.377884552015
7	964	2197.917742725576	13.503604470514
7	965	2198.910481585168	9.340520628569
7	966	2200.784819095281	7.922665918178
7	971	2215.169283042454	0.663434247602
7	972	2216.344168720062	1.605142463579
7	975	2218.270645422485	1.27321802309
7	978	2232.062443785101	3.903473574948
7	986	2238.476269214627	3.714307032857
7	987	2240.696876244406	5.562320245268
7	990	2245.746671867493	0.172034580093
7	995	2257.83449477874	11.400423465694
7	996	2259.3023193903	5.70116325698
7	1042	2315.819950969994	33.627690408399
7	1043	2319.052726593927	25.493876341836
7	1046	2326.186622846178	28.922234799518
7	1047	2329.311867466576	22.860555462533
7	1048	2330.592877617795	22.6862760939
7	1049	2331.573658291128	23.122083131535
7	1052	2336.305470098954	25.725541628624
7	1053	2337.632365338178	25.537965151761
7	1054	2344.705982365686	30.767603679827
7	1061	2356.872645791124	37.782765100995
7	1068	2380.66511717876	47.789896034061
7	1069	2384.565298649029	36.232745789098
7	1080	2406.847318138509	53.154620329236
7	1081	2409.188904148538	52.568480302348
7	1082	2411.114816523696	53.023792085891
7	1083	2411.181259146016	51.930676649813
7	1089	2432.239558870804	39.363075821605
7	1094	2439.148080190383	44.594128972843
7	1119	2479.456703426756	82.757699608267
7	1122	2479.872090607933	73.884255244785
7	1123	2487.821334377096	66.800143921678
7	1124	2488.244399917169	56.701049883481
7	1125	2489.1861501574	54.216179481491
7	1126	2491.806994294234	54.952280240801
7	1127	2493.40437445012	47.374294577051
8	169	380.659473743649	1
8	174	395.971694417465	1
8	178	404.35044228479	1
8	181	410.037356174797	1
8	185	425.519679098172	1
8	212	493.340900375065	1
8	214	493.458722537011	2
8	216	496.742594609582	3
8	228	519.107824800269	2
8	232	524.050395342014	3
8	234	528.76545634016	4
8	239	535.742612840699	4
8	266	589.672238161967	1
8	274	598.144708626378	1
8	281	607.520627601297	1
8	314	702.49001005566	1
8	317	730.410353463151	1
8	323	735.549137058382	1
8	330	764.354773011734	1
8	362	838.86047744023	1
8	368	879.741882111558	1
8	370	882.113317559985	2
8	372	884.446492488943	3
8	374	888.24560307094	4
8	376	895.381730109802	5
8	382	927.517978306195	4
8	394	940.401529101434	1
8	412	990.909014986853	1
8	417	1013.261047276616	1
8	425	1028.545887104851	1
8	435	1034.503025313914	1
8	437	1036.534772003394	2
8	443	1060.691130510771	1
8	449	1063.19383248497	1
8	469	1084.594332712561	1
8	472	1090.754167319039	1
8	476	1094.772215871149	1
8	485	1120.122180825996	1
8	491	1127.896198946203	1
8	493	1131.632484755457	2
8	523	1175.335185131008	1
8	564	1256.60543472736	1
8	566	1258.346007673972	2
8	568	1258.889412571991	3
8	581	1286.342301461403	1
8	583	1286.57494181929	2
8	585	1287.862513521532	3
8	609	1337.223720075614	1
8	616	1363.520401318974	1
8	638	1406.512882744487	1
8	647	1433.648475926042	1
8	649	1435.347326120521	2
8	654	1445.829455077947	2
8	666	1469.693661528508	1
8	695	1564.774017558306	1
8	705	1588.196429206383	1
8	714	1600.231040489507	1
8	740	1682.208424127058	1
8	746	1686.419845939918	1
8	749	1707.679710106683	1
8	755	1716.345476470025	2
8	760	1720.55581185757	1
8	774	1745.64792178764	1
8	786	1779.449199170603	1
8	793	1788.294956596051	1
8	802	1797.29918631301	1
8	806	1798.359156213276	2
8	808	1799.172771781991	3
8	811	1806.766350733902	3
8	845	1917.923427135827	1
8	887	2052.509094390919	1
8	904	2075.308674587472	1
8	906	2082.099549429316	2
8	915	2108.685862315649	1
8	922	2121.076209533676	1
8	929	2142.723683495446	1
8	947	2169.304437475917	1
8	952	2177.228225124877	1
8	982	2234.76196218177	1
8	998	2260.983183628547	1
8	1003	2264.84038493309	1
8	1007	2268.90144810621	2
8	1009	2273.677289607649	3
8	1014	2285.719432706355	3
8	1017	2288.561711981572	3
8	1022	2293.558850252091	1
8	1026	2298.239937262922	2
8	1038	2312.094400186417	1
8	1085	2421.021190455418	1
8	1096	2446.030079873069	1
8	1100	2451.694476261001	2
8	1104	2455.678417661446	3
8	1106	2458.010288498061	4
9	169	380.659473743649	14
9	174	395.971694417465	15
9	178	404.35044228479	16
9	181	410.037356174797	17
9	266	589.672238161967	18
9	274	598.144708626378	19
9	281	607.520627601297	20
9	330	764.354773011734	21
9	394	940.401529101434	22
9	412	990.909014986853	23
9	417	1013.261047276616	24
9	435	1034.503025313914	25
9	469	1084.594332712561	26
9	472	1090.754167319039	27
9	523	1175.335185131008	28
9	564	1256.60543472736	29
9	609	1337.223720075614	30
9	616	1363.520401318974	31
9	638	1406.512882744487	32
9	647	1433.648475926042	33
9	666	1469.693661528508	34
9	705	1588.196429206383	35
9	714	1600.231040489507	36
9	760	1720.55581185757	37
9	774	1745.64792178764	38
9	786	1779.449199170603	39
9	793	1788.294956596051	40
9	802	1797.29918631301	41
9	887	2052.509094390919	42
9	904	2075.308674587472	43
9	915	2108.685862315649	44
9	922	2121.076209533676	45
9	952	2177.228225124877	46
9	982	2234.76196218177	47
9	1003	2264.84038493309	48
9	1022	2293.558850252091	49
9	1038	2312.094400186417	50
9	1085	2421.021190455418	51
9	1096	2446.030079873069	52
10	169	380.659473743649	0
10	174	395.971694417465	0
10	178	404.35044228479	0
10	181	410.037356174797	0
10	185	425.519679098172	0
10	212	493.340900375065	0
10	217	497.743492654835	4.284770117824
10	224	508.786343731611	12.043749122029
10	235	531.684827908059	12.57700310779
10	242	540.734951404664	16.68455606265
10	243	543.753667995404	14.988211655244
10	244	545.053975340319	9.31136249962
10	266	589.672238161967	0
10	274	598.144708626378	0
10	281	607.520627601297	0
10	314	702.49001005566	0
10	317	730.410353463151	0
10	323	735.549137058382	0
10	330	764.354773011734	0
10	362	838.86047744023	0
10	368	879.741882111558	0
10	379	915.66596449989	33.552646939905
10	380	925.203174014506	40.756681525563
10	383	927.768753768776	39.523150697836
10	384	929.418550478823	34.036820369021
10	391	937.279396742635	9.76141843644
10	394	940.401529101434	0
10	412	990.909014986853	0
10	417	1013.261047276616	0
10	425	1028.545887104851	0
10	435	1034.503025313914	0
10	438	1050.45918976751	13.924417764116
10	443	1060.691130510771	0
10	449	1063.19383248497	0
10	469	1084.594332712561	0
10	472	1090.754167319039	0
10	476	1094.772215871149	0
10	485	1120.122180825996	0
10	491	1127.896198946203	0
10	494	1132.147399521696	0.514914766239
10	523	1175.335185131008	0
10	564	1256.60543472736	0
10	569	1258.979103411533	0.633095737561
10	570	1263.22311825397	4.333705681979
10	581	1286.342301461403	0
10	586	1292.36755001107	5.79260819178
10	591	1301.832225849147	13.969712327615
10	609	1337.223720075614	0
10	616	1363.520401318974	0
10	638	1406.512882744487	0
10	647	1433.648475926042	0
10	650	1439.30934628213	3.962020161609
10	655	1448.948510106632	3.119055028685
10	666	1469.693661528508	0
10	695	1564.774017558306	0
10	705	1588.196429206383	0
10	714	1600.231040489507	0
10	740	1682.208424127058	0
10	746	1686.419845939918	0
10	749	1707.679710106683	0
10	756	1717.886279037649	1.540802567624
10	760	1720.55581185757	0
10	774	1745.64792178764	0
10	786	1779.449199170603	0
10	793	1788.294956596051	0
10	802	1797.29918631301	0
10	809	1802.188357127352	3.829200914076
10	812	1808.731532835348	9.558761053357
10	813	1809.716715979004	2.950365245102
10	845	1917.923427135827	0
10	887	2052.509094390919	0
10	904	2075.308674587472	0
10	907	2082.494955242757	0.395405813441
10	915	2108.685862315649	0
10	922	2121.076209533676	0
10	929	2142.723683495446	0
10	947	2169.304437475917	0
10	952	2177.228225124877	0
10	982	2234.76196218177	0
10	998	2260.983183628547	0
10	1003	2264.84038493309	0
10	1012	2285.043355824681	16.141907718471
10	1015	2287.328700879789	13.65141127214
10	1018	2289.529406417497	3.809973711142
10	1019	2290.858815111348	2.297103129776
10	1022	2293.558850252091	0
10	1027	2301.558428965186	3.318491702264
10	1038	2312.094400186417	0
10	1085	2421.021190455418	0
10	1096	2446.030079873069	0
10	1107	2460.33533255147	8.640856290469
10	1114	2468.44338296426	12.764965302814
10	1115	2470.714960824686	12.704672326625
11	1132	2500	0.1032
12	1132	2500	0.0452

