version 2
run experiments_medium_game_mode1-809-20230311-09:42:45-12736
attr configname experiments_medium_game_mode1
attr datetime 20230311-09:42:45
attr experiment experiments_medium_game_mode1
attr inifile omnetpp.ini
attr iterationvars "$0=6, $1=6, $2=0"
attr iterationvarsf 6,6,0-
attr measurement "$0=6, $1=6, $2=0"
attr network Network
attr processid 12736
attr repetition 29
attr replication #29
attr resultdir results
attr runnumber 809
attr seedset 29
param *.boss.arrival_mean 20
param *.boss.service_mean 6
param *.minion.arrival_mean 10
param *.minion.service_mean 6
param *.player.recover_rate_x 0
param **.minion.arrival_distribution 0
param **.minion.service_distribution 0
param **.boss.arrival_distribution 0
param **.boss.service_distribution 0

vector 0 Network.player minion_defeated_stat:vector ETV
attr source signal_minion_defeated
vector 1 Network.player minion_jobs_queue_number_stat:vector ETV
attr source signal_minion_jobs_queue_number
vector 2 Network.player minion_response_time_stat:vector ETV
attr source signal_minion_response_time
vector 3 Network.player minion_waiting_time_stat:vector ETV
attr source signal_minion_waiting_time
vector 4 Network.player boss_jobs_number_stat:vector ETV
attr source signal_boss_jobs_number
vector 5 Network.player boss_jobs_queue_number_stat:vector ETV
attr source signal_boss_jobs_queue_number
vector 6 Network.player minion_recovered_stat:vector ETV
attr source signal_minion_recovered
vector 7 Network.player boss_waiting_time_stat:vector ETV
attr source signal_boss_waiting_time
vector 8 Network.player boss_defeated_stat:vector ETV
attr source signal_boss_defeated
vector 9 Network.player boss_response_time_stat:vector ETV
attr source signal_boss_response_time
vector 10 Network.player minion_jobs_number_stat:vector ETV
attr source signal_minion_jobs_number
vector 11 Network.player minion_throughput:vector ETV
attr source signal_minion_throughput
vector 12 Network.player boss_throughput:vector ETV
attr source signal_boss_throughput
0	139	353.326105506783	28
0	153	385.35255499811	29
0	154	386.141003847888	30
0	155	394.027532810313	31
0	158	401.361954696857	32
0	159	408.655837153735	33
0	172	449.470826320626	34
0	173	450.708278336607	35
0	174	452.693933343104	36
0	177	460.636327198402	37
0	180	465.895057399753	38
0	181	468.610508379313	39
0	182	468.846717068399	40
0	183	469.013373619208	41
0	184	480.285344578984	42
0	185	480.470001188464	43
0	186	481.279130420192	44
0	189	494.965857517949	45
0	192	505.557379063936	46
0	204	550.637094683555	47
0	207	563.807373336373	48
0	210	572.725936614849	49
0	221	615.362354339532	50
0	233	631.442250973182	51
0	234	632.124418933875	52
0	250	662.80996674382	53
0	254	671.67878878279	54
0	257	680.955329328367	55
0	263	692.778343864239	56
0	266	699.605526817559	57
0	267	700.278584859157	58
0	277	734.055805560279	59
0	278	738.865307365949	60
0	282	749.016974183425	61
0	286	768.043459639825	62
0	287	770.63625540698	63
0	288	776.111377742739	64
0	289	778.367590249519	65
0	290	780.006813664828	66
0	299	790.153530025894	67
0	306	796.850809083502	68
0	316	804.877723017064	69
0	319	813.261021933158	70
0	320	813.668628631218	71
0	321	814.312259351644	72
0	325	827.781453703632	73
0	326	829.745908157208	74
0	327	830.54749896158	75
0	330	838.928667294057	76
0	333	845.705431212187	77
0	334	847.344698328514	78
0	335	850.062700537869	79
0	340	853.978017191562	80
0	341	854.343250093204	81
0	342	855.326573632095	82
0	345	858.482790185371	83
0	360	887.302404729994	84
0	381	911.14196044935	85
0	384	917.365700728792	86
0	393	951.077452396685	87
0	403	959.878018942969	88
0	404	960.087484005244	89
0	405	967.191964767501	90
0	408	971.749609304167	91
0	409	974.355663505649	92
0	412	980.573185845811	93
0	417	998.476009557699	94
0	422	1008.604486481645	95
0	433	1032.399665502999	96
0	434	1033.57745593045	97
0	444	1052.221328581742	98
0	447	1061.521300570965	99
0	448	1066.020344422608	100
0	455	1076.982020683251	101
0	456	1081.143992927026	102
0	459	1087.342410020393	103
0	462	1095.168733609055	104
0	463	1102.103592451144	105
0	464	1103.517300841763	106
0	469	1111.074395688605	107
0	472	1112.8983075612	108
0	473	1114.144553533187	109
0	494	1159.069693914148	110
0	504	1178.463658928804	111
0	505	1180.564091836779	112
0	508	1205.126956440216	113
0	509	1211.869251426364	114
0	510	1220.990645419043	115
0	513	1228.526016806596	116
0	519	1239.859066955776	117
0	522	1243.732524464599	118
0	525	1247.416048366158	119
0	528	1252.290959829723	120
0	534	1266.616994582207	121
0	535	1269.99737672975	122
0	536	1271.59188353876	123
0	537	1272.026060594105	124
0	538	1273.130735247307	125
0	539	1276.730149512701	126
0	588	1367.235322669224	127
0	589	1372.025742804421	128
0	590	1380.464954236503	129
0	594	1399.992881496587	130
0	598	1410.554728321254	131
0	599	1419.227806988549	132
0	602	1423.260787336538	133
0	603	1425.172933324556	134
0	606	1434.282640512703	135
0	609	1436.292972734565	136
0	612	1439.517065794263	137
0	615	1448.464011330657	138
0	621	1458.744059845117	139
0	624	1464.330402364929	140
0	625	1466.49152348998	141
0	626	1472.998843215527	142
0	627	1474.100536709308	143
0	632	1499.538167708273	144
0	633	1507.369079621291	145
0	634	1510.940720587679	146
0	635	1511.883891474718	147
0	636	1515.332100283642	148
0	639	1534.604407645133	149
0	642	1537.355355473281	150
0	648	1561.698862615565	151
0	651	1570.148676983428	152
0	666	1607.967137823051	153
0	673	1623.647893548805	154
0	684	1647.927873201762	155
0	685	1648.977352111323	156
0	691	1659.081619650165	157
0	692	1659.729556263148	158
0	698	1666.779729057707	159
0	701	1668.482222554029	160
0	708	1683.66987691755	161
0	711	1695.503654995659	162
0	712	1702.90362772495	163
0	713	1712.527451940114	164
0	714	1712.793076131987	165
0	717	1726.030865119426	166
0	720	1731.891539605002	167
0	732	1747.092902177981	168
0	744	1769.302247046311	169
0	745	1783.832776339851	170
0	748	1792.726080024624	171
0	749	1792.857652036856	172
0	750	1796.819286955017	173
0	751	1799.262496088872	174
0	761	1805.087998020277	175
0	771	1824.798168066208	176
0	777	1849.55468305426	177
0	778	1854.381867527571	178
0	796	1888.252178456231	179
0	804	1902.958940817909	180
0	805	1907.079480251072	181
0	812	1914.956508768644	182
0	819	1938.260003196133	183
0	820	1938.843051767058	184
0	821	1942.723147273127	185
0	822	1943.695799267385	186
0	823	1948.591419193376	187
0	841	1992.134311596903	188
0	849	2019.653483812566	189
0	850	2019.657829683573	190
0	851	2023.779754837986	191
0	856	2028.330641096152	192
0	857	2034.150048164292	193
0	869	2050.793909931106	194
0	870	2056.470256151381	195
0	878	2067.85761312256	196
0	882	2075.078853426039	197
0	883	2076.045402528124	198
0	884	2092.358657483309	199
0	885	2093.655511700298	200
0	888	2101.782235542167	201
0	889	2108.125872912451	202
0	892	2109.80473958318	203
0	893	2112.173299890283	204
0	898	2123.556455119287	205
0	902	2137.214939160936	206
0	905	2141.264085076418	207
0	906	2143.586999767465	208
0	909	2145.597970309357	209
0	910	2153.536252232794	210
0	913	2156.297998870391	211
0	914	2158.376425142808	212
0	928	2182.635065013858	213
0	929	2182.960607272211	214
0	933	2200.597669845093	215
0	939	2208.222884578027	216
0	948	2219.858749872236	217
0	960	2243.491257786235	218
0	961	2247.441052552472	219
0	964	2256.238662832826	220
0	965	2257.331673902992	221
0	966	2257.374793406432	222
0	969	2266.983864050295	223
0	984	2291.115765533643	224
0	1004	2314.910136577841	225
0	1005	2315.973614086277	226
0	1008	2317.39517774413	227
0	1009	2317.569846023706	228
0	1031	2388.505747009323	229
0	1032	2393.334472244495	230
0	1035	2398.991003988953	231
0	1038	2410.737354530698	232
0	1045	2419.755946508058	233
0	1048	2434.274695893923	234
0	1049	2434.782416184045	235
0	1057	2444.706801809926	236
0	1058	2445.741397934943	237
0	1059	2449.402421661115	238
0	1069	2464.946437411223	239
0	1070	2475.489795532089	240
0	1071	2481.336758743867	241
0	1072	2487.170319329848	242
0	1073	2496.410849592594	243
0	1074	2497.74633366441	244
1	139	353.326105506783	8
1	148	379.608095313354	8
1	152	385.157042033546	9
1	153	385.35255499811	9
1	154	386.141003847888	8
1	155	394.027532810313	7
1	157	399.228233649482	7
1	158	401.361954696857	7
1	159	408.655837153735	6
1	163	426.29441775287	6
1	167	443.660282730514	7
1	170	448.882770349587	8
1	172	449.470826320626	8
1	173	450.708278336607	7
1	174	452.693933343104	6
1	176	458.137377426833	6
1	177	460.636327198402	6
1	179	465.826518938555	6
1	180	465.895057399753	6
1	181	468.610508379313	5
1	182	468.846717068399	4
1	183	469.013373619208	3
1	184	480.285344578984	2
1	185	480.470001188464	1
1	186	481.279130420192	0
1	188	494.833255579592	0
1	189	494.965857517949	0
1	191	499.822669747212	0
1	192	505.557379063936	0
1	200	545.209727119979	0
1	204	550.637094683555	0
1	206	556.326563719439	0
1	207	563.807373336373	0
1	209	572.24175660314	0
1	210	572.725936614849	0
1	212	575.863779244195	0
1	214	577.881832968284	1
1	221	615.362354339532	1
1	225	618.606462312563	1
1	228	621.290089637664	2
1	230	624.589581645086	3
1	232	627.159808616859	4
1	233	631.442250973182	4
1	234	632.124418933875	3
1	236	636.156734196456	3
1	238	638.695588633048	4
1	240	639.503912377234	5
1	242	641.651605112762	6
1	244	648.446565023337	7
1	248	656.54974981075	8
1	250	662.80996674382	8
1	254	671.67878878279	7
1	256	679.39638457525	7
1	257	680.955329328367	7
1	261	682.973119520857	7
1	263	692.778343864239	7
1	265	694.937514966378	7
1	266	699.605526817559	7
1	267	700.278584859157	6
1	269	709.632194269071	6
1	271	711.758812941697	7
1	273	714.745063282436	8
1	277	734.055805560279	8
1	278	738.865307365949	7
1	282	749.016974183425	6
1	286	768.043459639825	5
1	287	770.63625540698	4
1	288	776.111377742739	3
1	289	778.367590249519	2
1	290	780.006813664828	1
1	292	780.526003935068	1
1	294	782.044152913347	2
1	296	785.118702325468	3
1	298	786.82893246052	4
1	299	790.153530025894	4
1	301	792.211735403243	4
1	303	794.650893746256	5
1	305	796.164645718989	6
1	306	796.850809083502	6
1	308	797.919207288304	6
1	313	800.659176556938	7
1	315	802.145561068497	8
1	316	804.877723017064	8
1	318	811.00518497882	8
1	319	813.261021933158	8
1	320	813.668628631218	7
1	321	814.312259351644	6
1	325	827.781453703632	5
1	326	829.745908157208	4
1	327	830.54749896158	3
1	329	837.601350145641	3
1	330	838.928667294057	3
1	332	842.808892412795	3
1	333	845.705431212187	3
1	334	847.344698328514	2
1	335	850.062700537869	1
1	337	850.859225738186	1
1	339	852.072682488855	2
1	340	853.978017191562	2
1	341	854.343250093204	1
1	342	855.326573632095	0
1	344	856.159958446072	0
1	345	858.482790185371	0
1	357	877.773073587536	0
1	360	887.302404729994	0
1	362	893.64717916577	0
1	366	896.443773630609	1
1	368	899.605850019362	2
1	373	906.490154822813	3
1	376	908.845874933179	4
1	378	909.068777480588	5
1	380	910.906698195825	6
1	381	911.14196044935	6
1	383	913.501120803603	6
1	384	917.365700728792	6
1	386	923.456570972861	6
1	393	951.077452396685	6
1	397	953.896826670245	6
1	399	955.784633106749	7
1	402	959.402928374506	8
1	403	959.878018942969	8
1	404	960.087484005244	7
1	405	967.191964767501	6
1	407	967.655498130466	6
1	408	971.749609304167	6
1	409	974.355663505649	5
1	411	977.727526974586	5
1	412	980.573185845811	5
1	414	986.483345419537	5
1	416	992.65484243738	6
1	417	998.476009557699	6
1	419	1000.462186581842	6
1	421	1006.176726943197	7
1	422	1008.604486481645	7
1	429	1017.427407056631	7
1	432	1023.333185885289	8
1	433	1032.399665502999	8
1	434	1033.57745593045	7
1	436	1035.575057615901	7
1	438	1036.397542892707	8
1	442	1042.071307097477	9
1	444	1052.221328581742	9
1	446	1053.311955600887	9
1	447	1061.521300570965	9
1	448	1066.020344422608	8
1	450	1068.628170045546	8
1	452	1068.7372523909	9
1	454	1076.558449330755	10
1	455	1076.982020683251	10
1	456	1081.143992927026	9
1	458	1085.269920578633	9
1	459	1087.342410020393	9
1	461	1090.503816550838	9
1	462	1095.168733609055	9
1	463	1102.103592451144	8
1	464	1103.517300841763	7
1	466	1108.756096424927	7
1	468	1109.014040151767	8
1	469	1111.074395688605	8
1	471	1111.825117276107	8
1	472	1112.8983075612	8
1	473	1114.144553533187	7
1	475	1117.188075728243	7
1	477	1118.573341036805	8
1	481	1130.12602680693	9
1	489	1145.944497366466	10
1	494	1159.069693914148	10
1	504	1178.463658928804	9
1	505	1180.564091836779	8
1	507	1191.074306916834	8
1	508	1205.126956440216	8
1	509	1211.869251426364	7
1	510	1220.990645419043	6
1	512	1224.317871195993	6
1	513	1228.526016806596	6
1	518	1239.415299962359	6
1	519	1239.859066955776	6
1	521	1241.319226478284	6
1	522	1243.732524464599	6
1	524	1246.698348383056	6
1	525	1247.416048366158	6
1	527	1249.075240055608	6
1	528	1252.290959829723	6
1	532	1262.228682128353	6
1	534	1266.616994582207	6
1	535	1269.99737672975	5
1	536	1271.59188353876	4
1	537	1272.026060594105	3
1	538	1273.130735247307	2
1	539	1276.730149512701	1
1	543	1281.456586332296	1
1	547	1285.868618464094	2
1	549	1287.995910071284	3
1	551	1290.105014442061	4
1	559	1297.064115025479	5
1	565	1309.251003332188	6
1	570	1322.970381474386	7
1	573	1327.054292896169	8
1	577	1337.426373481282	9
1	579	1339.570652825673	10
1	584	1353.57388117284	11
1	586	1354.516585092584	12
1	588	1367.235322669224	12
1	589	1372.025742804421	11
1	590	1380.464954236503	10
1	594	1399.992881496587	9
1	598	1410.554728321254	8
1	599	1419.227806988549	7
1	601	1421.845319537203	7
1	602	1423.260787336538	7
1	603	1425.172933324556	6
1	605	1433.077455864582	6
1	606	1434.282640512703	6
1	608	1434.570566934513	6
1	609	1436.292972734565	6
1	611	1436.700873309931	6
1	612	1439.517065794263	6
1	614	1444.299171092421	6
1	615	1448.464011330657	6
1	619	1451.583659890725	6
1	621	1458.744059845117	6
1	623	1462.140670769399	6
1	624	1464.330402364929	6
1	625	1466.49152348998	5
1	626	1472.998843215527	4
1	627	1474.100536709308	3
1	629	1486.551119297569	3
1	631	1496.223907441521	4
1	632	1499.538167708273	4
1	633	1507.369079621291	3
1	634	1510.940720587679	2
1	635	1511.883891474718	1
1	636	1515.332100283642	0
1	638	1523.68482419876	0
1	639	1534.604407645133	0
1	641	1535.830083928314	0
1	642	1537.355355473281	0
1	646	1552.15528015073	0
1	648	1561.698862615565	0
1	650	1569.113611818043	0
1	651	1570.148676983428	0
1	653	1574.59712260323	0
1	655	1577.783622414697	1
1	662	1588.000980001104	2
1	664	1592.596152355802	3
1	666	1607.967137823051	3
1	673	1623.647893548805	2
1	679	1636.55918818209	2
1	683	1640.641096239258	3
1	684	1647.927873201762	3
1	685	1648.977352111323	2
1	687	1650.918419052956	2
1	691	1659.081619650165	2
1	692	1659.729556263148	1
1	696	1663.785704815084	1
1	698	1666.779729057707	1
1	700	1667.004304150596	1
1	701	1668.482222554029	1
1	703	1674.644996918479	1
1	705	1675.406868188611	2
1	707	1683.621375205935	3
1	708	1683.66987691755	3
1	710	1691.870758945599	3
1	711	1695.503654995659	3
1	712	1702.90362772495	2
1	713	1712.527451940114	1
1	714	1712.793076131987	0
1	716	1720.321633944097	0
1	717	1726.030865119426	0
1	719	1728.242047121611	0
1	720	1731.891539605002	0
1	722	1733.304477625183	0
1	726	1736.123190533158	1
1	728	1736.909763431248	2
1	731	1745.044126709653	3
1	732	1747.092902177981	3
1	734	1748.564229081137	3
1	736	1749.269661046032	4
1	740	1753.344411509976	5
1	743	1768.415993221564	6
1	744	1769.302247046311	6
1	745	1783.832776339851	5
1	747	1784.209010264732	5
1	748	1792.726080024624	5
1	749	1792.857652036856	4
1	750	1796.819286955017	3
1	751	1799.262496088872	2
1	755	1800.178677377241	2
1	757	1800.95833616599	3
1	760	1802.963572909128	4
1	761	1805.087998020277	4
1	763	1808.674857293738	4
1	768	1823.070351810148	5
1	770	1823.916015992079	6
1	771	1824.798168066208	6
1	773	1834.242923632817	6
1	777	1849.55468305426	6
1	778	1854.381867527571	5
1	795	1884.674211425783	5
1	796	1888.252178456231	5
1	800	1897.934943306775	5
1	802	1899.021409378431	6
1	804	1902.958940817909	6
1	805	1907.079480251072	5
1	807	1908.271706007079	5
1	809	1911.895429355032	6
1	811	1914.724388814061	7
1	812	1914.956508768644	7
1	814	1919.490991222787	7
1	816	1923.241762418407	8
1	818	1936.92438258832	9
1	819	1938.260003196133	9
1	820	1938.843051767058	8
1	821	1942.723147273127	7
1	822	1943.695799267385	6
1	823	1948.591419193376	5
1	829	1961.501522926047	5
1	832	1965.216661545734	6
1	834	1976.143259682891	7
1	836	1977.106085114153	8
1	841	1992.134311596903	8
1	843	2002.049166686635	8
1	848	2014.824804974099	9
1	849	2019.653483812566	9
1	850	2019.657829683573	8
1	851	2023.779754837986	7
1	853	2026.435831902888	7
1	855	2026.746619278247	8
1	856	2028.330641096152	8
1	857	2034.150048164292	7
1	859	2034.2767880203	7
1	863	2040.832134308452	8
1	865	2041.731501973777	9
1	868	2044.394175563752	10
1	869	2050.793909931106	10
1	870	2056.470256151381	9
1	872	2057.540071414153	9
1	876	2064.678649429053	10
1	878	2067.85761312256	10
1	882	2075.078853426039	9
1	883	2076.045402528124	8
1	884	2092.358657483309	7
1	885	2093.655511700298	6
1	887	2100.643440090761	6
1	888	2101.782235542167	6
1	889	2108.125872912451	5
1	891	2109.735389103771	5
1	892	2109.80473958318	5
1	893	2112.173299890283	4
1	895	2114.55518655679	4
1	897	2119.70008837266	5
1	898	2123.556455119287	5
1	902	2137.214939160936	4
1	904	2141.252353958549	4
1	905	2141.264085076418	4
1	906	2143.586999767465	3
1	908	2145.214967111336	3
1	909	2145.597970309357	3
1	910	2153.536252232794	2
1	912	2156.225819555676	2
1	913	2156.297998870391	2
1	914	2158.376425142808	1
1	918	2162.801836191714	1
1	927	2176.399567796595	2
1	928	2182.635065013858	2
1	929	2182.960607272211	1
1	933	2200.597669845093	0
1	935	2206.400218154673	0
1	939	2208.222884578027	0
1	941	2212.910426022293	0
1	948	2219.858749872236	0
1	952	2223.822523938987	0
1	954	2229.518382743654	1
1	956	2237.356526885323	2
1	958	2242.16939733723	3
1	960	2243.491257786235	3
1	961	2247.441052552472	2
1	963	2249.811830180648	2
1	964	2256.238662832826	2
1	965	2257.331673902992	1
1	966	2257.374793406432	0
1	968	2260.677147560681	0
1	969	2266.983864050295	0
1	975	2276.381357349022	0
1	984	2291.115765533643	0
1	988	2299.593657816942	0
1	992	2305.917559909468	1
1	996	2308.049972561187	2
1	1001	2311.300208667409	3
1	1003	2311.517313327987	4
1	1004	2314.910136577841	4
1	1005	2315.973614086277	3
1	1007	2317.103988873237	3
1	1008	2317.39517774413	3
1	1009	2317.569846023706	2
1	1011	2321.252529477898	2
1	1013	2324.894460081239	3
1	1026	2345.158710441866	4
1	1031	2388.505747009323	4
1	1032	2393.334472244495	3
1	1034	2393.48451685585	3
1	1035	2398.991003988953	3
1	1037	2409.027012630994	3
1	1038	2410.737354530698	3
1	1040	2414.534346640401	3
1	1042	2418.902692042539	4
1	1044	2419.493416931437	5
1	1045	2419.755946508058	5
1	1047	2432.165685310105	5
1	1048	2434.274695893923	5
1	1049	2434.782416184045	4
1	1053	2437.386547876681	4
1	1055	2439.315187646736	5
1	1057	2444.706801809926	5
1	1058	2445.741397934943	4
1	1059	2449.402421661115	3
1	1064	2461.210077954654	3
1	1066	2463.600744450632	4
1	1068	2464.886615128397	5
1	1069	2464.946437411223	5
1	1070	2475.489795532089	4
1	1071	2481.336758743867	3
1	1072	2487.170319329848	2
1	1073	2496.410849592594	1
1	1074	2497.74633366441	0
2	139	353.326105506783	43.972113526012
2	153	385.35255499811	71.499397817642
2	154	386.141003847888	63.835488017212
2	155	394.027532810313	68.187813762984
2	158	401.361954696857	70.7094628825
2	159	408.655837153735	77.142139688095
2	172	449.470826320626	88.449000771462
2	173	450.708278336607	72.717612516035
2	174	452.693933343104	73.08583802975
2	177	460.636327198402	75.479285164856
2	180	465.895057399753	66.666823750271
2	181	468.610508379313	46.600865518394
2	182	468.846717068399	42.552299315529
2	183	469.013373619208	25.353090888694
2	184	480.285344578984	31.402574229397
2	185	480.470001188464	22.332623761631
2	186	481.279130420192	15.452611481637
2	189	494.965857517949	0.132601938357
2	192	505.557379063936	5.734709316724
2	204	550.637094683555	5.26396959857
2	207	563.807373336373	7.480809616934
2	210	572.725936614849	0.484180011709
2	221	615.362354339532	26.006264905272
2	233	631.442250973182	15.641342545729
2	234	632.124418933875	13.517956621312
2	250	662.80996674382	38.220385098734
2	254	671.67878878279	35.522054586334
2	257	680.955329328367	42.259740695319
2	263	692.778343864239	51.126738751477
2	266	699.605526817559	51.158961794222
2	267	700.278584859157	47.616449858046
2	277	734.055805560279	71.058130283538
2	278	738.865307365949	59.468922790699
2	282	749.016974183425	66.043854662568
2	286	768.043459639825	58.411265370754
2	287	770.63625540698	58.877442465283
2	288	776.111377742739	61.366314460303
2	289	778.367590249519	55.757879132303
2	290	780.006813664828	37.637824447069
2	299	790.153530025894	39.041601259563
2	306	796.850809083502	16.324805148434
2	316	804.877723017064	19.759020691596
2	319	813.261021933158	26.432089472638
2	320	813.668628631218	21.456893227975
2	321	814.312259351644	19.661365605388
2	325	827.781453703632	29.862246415328
2	326	829.745908157208	30.113048148056
2	327	830.54749896158	29.888322404642
2	330	838.928667294057	36.78310622556
2	333	845.705431212187	34.700246233367
2	334	847.344698328514	32.491204617833
2	335	850.062700537869	12.461350392228
2	340	853.978017191562	11.169124778767
2	341	854.343250093204	3.484024355018
2	342	855.326573632095	3.25389114324
2	345	858.482790185371	2.322831739299
2	360	887.302404729994	9.529331142458
2	381	911.14196044935	14.85155082472
2	384	917.365700728792	20.921927098183
2	393	951.077452396685	42.231577463506
2	403	959.878018942969	48.971320747144
2	404	960.087484005244	46.586363201641
2	405	967.191964767501	43.73539379464
2	408	971.749609304167	47.259273550042
2	409	974.355663505649	29.919571206725
2	412	980.573185845811	29.093889718801
2	417	998.476009557699	44.579182887454
2	422	1008.604486481645	52.819853374896
2	433	1032.399665502999	54.672138528413
2	434	1033.57745593045	47.094110510913
2	444	1052.221328581742	51.7591419999
2	447	1061.521300570965	55.344573627768
2	448	1066.020344422608	54.248356002238
2	455	1076.982020683251	64.469374307345
2	456	1081.143992927026	63.716585870395
2	459	1087.342410020393	64.009224135104
2	462	1095.168733609055	59.593675993154
2	463	1102.103592451144	65.706049558437
2	464	1103.517300841763	65.146181536023
2	469	1111.074395688605	69.003088591128
2	472	1112.8983075612	59.586351960313
2	473	1114.144553533187	45.516383487641
2	494	1159.069693914148	73.799773335515
2	504	1178.463658928804	69.449618777037
2	505	1180.564091836779	68.738974560672
2	508	1205.126956440216	87.938880711973
2	509	1211.869251426364	93.295910389559
2	510	1220.990645419043	96.303496423434
2	513	1228.526016806596	98.399989999666
2	519	1239.859066955776	93.91456958931
2	522	1243.732524464599	79.737382476307
2	525	1247.416048366158	72.234012871695
2	528	1252.290959829723	61.216652912889
2	534	1266.616994582207	36.257155870204
2	535	1269.99737672975	30.582076767391
2	536	1271.59188353876	30.272657060476
2	537	1272.026060594105	25.327712211049
2	538	1273.130735247307	24.055495191699
2	539	1276.730149512701	18.9688621073
2	588	1367.235322669224	90.095999106778
2	589	1372.025742804421	90.569156472125
2	590	1380.464954236503	94.596335772409
2	594	1399.992881496587	109.88786705453
2	598	1410.554728321254	101.30372498907
2	599	1419.227806988549	96.257425514163
2	602	1423.260787336538	96.206494440369
2	603	1425.172933324556	87.746559843274
2	606	1434.282640512703	94.71198768703
2	609	1436.292972734565	82.719091561725
2	612	1439.517065794263	85.000480701679
2	615	1448.464011330657	59.677982239773
2	621	1458.744059845117	36.898740307914
2	624	1464.330402364929	31.252946500347
2	625	1466.49152348998	31.920956555467
2	626	1472.998843215527	36.297969905596
2	627	1474.100536709308	29.801365616887
2	632	1499.538167708273	51.069207882824
2	633	1507.369079621291	55.785419730566
2	634	1510.940720587679	48.80004981828
2	635	1511.883891474718	25.332772177149
2	636	1515.332100283642	19.108192842121
2	639	1534.604407645133	10.919583446373
2	642	1537.355355473281	1.525271544967
2	648	1561.698862615565	9.543582464835
2	651	1570.148676983428	1.035065165385
2	666	1607.967137823051	30.183515408354
2	673	1623.647893548805	35.646913547701
2	684	1647.927873201762	34.301683453271
2	685	1648.977352111323	19.988767161444
2	691	1659.081619650165	18.440523410907
2	692	1659.729556263148	8.811137210192
2	698	1666.779729057707	3.253831280863
2	701	1668.482222554029	4.696517738945
2	708	1683.66987691755	16.665572766954
2	711	1695.503654995659	20.85865807718
2	712	1702.90362772495	27.496759536339
2	713	1712.527451940114	28.906076734179
2	714	1712.793076131987	20.922317186388
2	717	1726.030865119426	5.709231175329
2	720	1731.891539605002	3.649492483391
2	732	1747.092902177981	13.015661649175
2	744	1769.302247046311	32.392483615063
2	745	1783.832776339851	38.788649630198
2	748	1792.726080024624	44.161850943487
2	749	1792.857652036856	43.587990990824
2	750	1796.819286955017	47.381304360589
2	751	1799.262496088872	45.918084578896
2	761	1805.087998020277	20.878987755545
2	771	1824.798168066208	24.619490688967
2	777	1849.55468305426	46.591110145132
2	778	1854.381867527571	45.707010233833
2	796	1888.252178456231	43.806201165036
2	804	1902.958940817909	37.695850220526
2	805	1907.079480251072	36.187197629702
2	812	1914.956508768644	40.789985758685
2	819	1938.260003196133	53.58579177035
2	820	1938.843051767058	44.268283302774
2	821	1942.723147273127	44.788203966352
2	822	1943.695799267385	44.674389888954
2	823	1948.591419193376	40.319713186297
2	841	1992.134311596903	72.643320374116
2	849	2019.653483812566	82.729101224246
2	850	2019.657829683573	63.38795845567
2	851	2023.779754837986	62.278231911939
2	856	2028.330641096152	63.113979550418
2	857	2034.150048164292	58.006788481401
2	869	2050.793909931106	67.425500683266
2	870	2056.470256151381	54.421089464746
2	878	2067.85761312256	53.032808148461
2	882	2075.078853426039	48.332234147792
2	883	2076.045402528124	41.768614507824
2	884	2092.358657483309	52.02150961873
2	885	2093.655511700298	52.823377391846
2	888	2101.782235542167	60.05073356839
2	889	2108.125872912451	63.731697348699
2	892	2109.80473958318	52.264668169027
2	893	2112.173299890283	51.411320187294
2	898	2123.556455119287	58.877805690234
2	902	2137.214939160936	36.571499070175
2	905	2141.264085076418	31.528695972647
2	906	2143.586999767465	29.031813210675
2	909	2145.597970309357	25.897881936697
2	910	2153.536252232794	28.081938620168
2	913	2156.297998870391	15.045644911842
2	914	2158.376425142808	13.161458031472
2	928	2182.635065013858	20.854246859344
2	929	2182.960607272211	20.158771080497
2	933	2200.597669845093	16.128551823237
2	939	2208.222884578027	1.545218937732
2	948	2219.858749872236	2.856180429477
2	960	2243.491257786235	19.668733847248
2	961	2247.441052552472	17.922669808818
2	964	2256.238662832826	18.882135947503
2	965	2257.331673902992	15.162276565762
2	966	2257.374793406432	7.562963225784
2	969	2266.983864050295	6.306716489614
2	984	2291.115765533643	5.922111030004
2	1004	2314.910136577841	15.316478760899
2	1005	2315.973614086277	10.056054176809
2	1008	2317.39517774413	9.345205182943
2	1009	2317.569846023706	6.269637356297
2	1031	2388.505747009323	59.610361388968
2	1032	2393.334472244495	53.91766220381
2	1035	2398.991003988953	56.46765766056
2	1038	2410.737354530698	65.578644088832
2	1045	2419.755946508058	52.50059125244
2	1048	2434.274695893923	40.790179038073
2	1049	2434.782416184045	25.755403553051
2	1057	2444.706801809926	25.804109767387
2	1058	2445.741397934943	26.247981003506
2	1059	2449.402421661115	17.23673635101
2	1069	2464.946437411223	27.559889534542
2	1070	2475.489795532089	36.174607885353
2	1071	2481.336758743867	25.583043521027
2	1072	2487.170319329848	25.960241375194
2	1073	2496.410849592594	32.810105141962
2	1074	2497.74633366441	32.859718536013
3	139	353.326105506783	43.817028613748
3	142	362.947069182943	49.709689951432
3	150	384.37113616287	70.517978982402
3	153	385.35255499811	63.047039167434
3	154	386.141003847888	60.301284800559
3	155	394.027532810313	63.375040995956
3	158	401.361954696857	69.848257231217
3	159	408.655837153735	74.337388156546
3	171	449.380240941571	88.358415392407
3	172	449.470826320626	71.480160500054
3	173	450.708278336607	71.100183023253
3	174	452.693933343104	67.536891309558
3	177	460.636327198402	61.40809354892
3	180	465.895057399753	43.885414538834
3	181	468.610508379313	42.316090626443
3	182	468.846717068399	25.186434337885
3	183	469.013373619208	20.130603269621
3	184	480.285344578984	22.147967152151
3	185	480.470001188464	14.643482249909
3	188	494.833255579592	0
3	191	499.822669747212	0
3	200	545.209727119979	0
3	203	546.154450307197	0.781325222212
3	206	556.326563719439	0
3	209	572.24175660314	0
3	212	575.863779244195	0
3	217	609.433287220097	31.551454251813
3	220	614.946942207641	25.590852773381
3	221	615.362354339532	5.071139699909
3	226	619.670253686504	3.869345259051
3	233	631.442250973182	12.835788660619
3	234	632.124418933875	10.834329296211
3	249	662.110745549786	37.5211639047
3	250	662.80996674382	35.650158126961
3	253	667.807262714145	31.650528517689
3	254	671.67878878279	32.983200149742
3	257	680.955329328367	41.451416951133
3	262	684.913971486829	43.262366374067
3	263	692.778343864239	44.331778840902
3	266	699.605526817559	46.943391816448
3	267	700.278584859157	43.728835048407
3	276	723.636629374921	60.63895409818
3	277	734.055805560279	54.659420985029
3	278	738.865307365949	56.877085282935
3	281	744.749902903057	61.7767833822
3	282	749.016974183425	54.079459217047
3	285	753.702653430396	44.070459161325
3	286	768.043459639825	56.284646698128
3	287	770.63625540698	55.891192124544
3	288	776.111377742739	53.501666625523
3	289	778.367590249519	35.99860103176
3	290	780.006813664828	28.894884898497
3	299	790.153530025894	9.627526090826
3	306	796.850809083502	14.806656170155
3	311	799.898727535345	14.780025209877
3	316	804.877723017064	18.048790556544
3	319	813.261021933158	21.049286529915
3	320	813.668628631218	19.017734884962
3	321	814.312259351644	18.147613632655
3	324	827.582582456686	29.663375168382
3	325	827.781453703632	28.14859369448
3	326	829.745908157208	29.08673160027
3	327	830.54749896158	28.401937893083
3	330	838.928667294057	27.923482315237
3	333	845.705431212187	30.851937501506
3	334	847.344698328514	9.743348182873
3	335	850.062700537869	7.253808125074
3	340	853.978017191562	3.118791453376
3	341	854.343250093204	2.270567604349
3	344	856.159958446072	0
3	359	886.480001864598	8.706928277062
3	362	893.64717916577	0
3	374	906.65507452272	10.36466489809
3	381	911.14196044935	14.698186818741
3	384	917.365700728792	17.75985070943
3	389	932.065750629971	25.575595807158
3	392	950.63706618026	41.791191247081
3	393	951.077452396685	42.008674916097
3	400	956.463079155803	45.556380959978
3	403	959.878018942969	46.376898139366
3	404	960.087484005244	36.630913032383
3	405	967.191964767501	42.701629013376
3	408	971.749609304167	27.313517005243
3	409	974.355663505649	22.876367378639
3	412	980.573185845811	26.676359175566
3	417	998.476009557699	42.69137645095
3	422	1008.604486481645	49.201558107139
3	425	1012.042546982053	44.387048851587
3	430	1017.994985377679	40.267458403093
3	433	1032.399665502999	45.916320083462
3	434	1033.57745593045	40.92261349307
3	443	1045.066540003814	44.604353421972
3	444	1052.221328581742	46.044601638545
3	447	1061.521300570965	49.749312150595
3	448	1066.020344422608	53.507698046702
3	455	1076.982020683251	59.55461362662
3	456	1081.143992927026	57.810807041737
3	459	1087.342410020393	51.767352404492
3	462	1095.168733609055	58.771190716348
3	463	1102.103592451144	63.732473145404
3	464	1103.517300841763	61.445993744286
3	469	1111.074395688605	57.762440087718
3	472	1112.8983075612	44.270137515654
3	473	1114.144553533187	45.407301142287
3	482	1133.985948700028	57.427499369273
3	493	1158.612918018555	73.342997439922
3	494	1159.069693914148	68.56587736331
3	500	1175.121978279537	66.36588185461
3	503	1177.022871464319	68.008831312552
3	504	1178.463658928804	66.638541652697
3	505	1180.564091836779	63.376016108536
3	508	1205.126956440216	86.553615403411
3	509	1211.869251426364	87.182102430755
3	510	1220.990645419043	90.864618612113
3	513	1228.526016806596	94.381289054546
3	516	1231.28745930171	85.342961935244
3	519	1239.859066955776	75.863924967484
3	522	1243.732524464599	68.550488970136
3	525	1247.416048366158	56.341741449324
3	528	1252.290959829723	27.97308863373
3	533	1262.946643796403	32.5868050844
3	534	1266.616994582207	27.201694619848
3	535	1269.99737672975	28.678150251466
3	536	1271.59188353876	24.893535155704
3	537	1272.026060594105	22.950820538497
3	538	1273.130735247307	15.369447841906
3	539	1276.730149512701	14.501467384348
3	587	1360.582775507927	83.443451945481
3	588	1367.235322669224	85.778736336928
3	589	1372.025742804421	86.157124340327
3	590	1380.464954236503	92.469044165219
3	593	1390.420818002476	100.31580356041
3	594	1399.992881496587	102.92876647111
3	597	1402.122670471321	92.871667139133
3	598	1410.554728321254	87.584346846868
3	599	1419.227806988549	92.17351409238
3	602	1423.260787336538	85.834413855256
3	603	1425.172933324556	85.602280498883
3	606	1434.282640512703	80.708759339863
3	609	1436.292972734565	81.776387641981
3	612	1439.517065794263	50.731036703379
3	615	1448.464011330657	48.364372172495
3	620	1458.019299777083	36.17398023988
3	621	1458.744059845117	25.666603980535
3	624	1464.330402364929	29.759835430416
3	625	1466.49152348998	29.790650180049
3	626	1472.998843215527	28.699672123106
3	627	1474.100536709308	25.631576883859
3	632	1499.538167708273	47.954507817548
3	633	1507.369079621291	45.228408851892
3	634	1510.940720587679	24.38960129011
3	635	1511.883891474718	15.659984033197
3	638	1523.68482419876	0
3	641	1535.830083928314	0
3	647	1557.678674098904	5.523393948174
3	650	1569.113611818043	0
3	653	1574.59712260323	0
3	665	1597.81110512947	20.027482714773
3	666	1607.967137823051	24.641253897503
3	672	1620.452596476363	32.451616475259
3	673	1623.647893548805	31.051741193003
3	681	1639.584096855357	25.957907106866
3	684	1647.927873201762	18.939288251883
3	685	1648.977352111323	12.418163929233
3	690	1655.769453060578	15.12835682132
3	691	1659.081619650165	8.163200597209
3	692	1659.729556263148	5.504462435043
3	697	1665.710436521541	2.184538744697
3	698	1666.779729057707	2.994024242623
3	701	1668.482222554029	1.477918403433
3	708	1683.66987691755	9.024879999071
3	711	1695.503654995659	20.096786807048
3	712	1702.90362772495	19.282252519015
3	713	1712.527451940114	20.656692994515
3	716	1720.321633944097	0
3	719	1728.242047121611	0
3	722	1733.304477625183	0
3	729	1742.299573881421	8.222333352615
3	732	1747.092902177981	10.969711644823
3	741	1758.193685174874	21.283921743626
3	744	1769.302247046311	24.258120336658
3	745	1783.832776339851	35.268547258714
3	748	1792.726080024624	43.456418978592
3	749	1792.857652036856	43.419669442428
3	750	1796.819286955017	43.474875445041
3	751	1799.262496088872	30.846502867308
3	758	1801.901071676034	17.692061411302
3	761	1805.087998020277	5.682074618337
3	766	1818.982413462805	18.803736085564
3	771	1824.798168066208	23.839831900218
3	776	1845.085662391627	42.122089482499
3	777	1849.55468305426	40.879825760522
3	778	1854.381867527571	35.887000672069
3	781	1861.326767630877	38.256415820729
3	784	1865.642655317084	41.726639325005
3	787	1874.11872573749	39.875802104673
3	793	1884.617853499812	40.171876208617
3	796	1888.252178456231	31.082227217518
3	803	1901.715190717685	36.452100120302
3	804	1902.958940817909	32.066658196539
3	805	1907.079480251072	32.912957241113
3	812	1914.956508768644	30.282297342861
3	819	1938.260003196133	43.685234731849
3	820	1938.843051767058	40.908108460283
3	821	1942.723147273127	43.701737894696
3	822	1943.695799267385	35.424093260306
3	823	1948.591419193376	36.695989838344
3	837	1979.442738209941	64.71834939588
3	840	1985.826716806104	66.335725583317
3	841	1992.134311596903	68.892549178496
3	846	2012.591723971079	75.667341382759
3	849	2019.653483812566	63.383612584663
3	850	2019.657829683573	58.156306757526
3	851	2023.779754837986	58.563093292252
3	856	2028.330641096152	52.187381413261
3	857	2034.150048164292	57.043963050139
3	866	2042.867045982549	59.498636734709
3	869	2050.793909931106	48.744743244471
3	870	2056.470256151381	47.771457277035
3	877	2067.825660407142	53.000855433043
3	878	2067.85761312256	41.421781219672
3	881	2074.162430766142	47.415811487895
3	882	2075.078853426039	40.802065405739
3	883	2076.045402528124	35.708254663545
3	884	2092.358657483309	51.526523174857
3	885	2093.655511700298	51.924009726521
3	888	2101.782235542167	57.388059978415
3	889	2108.125872912451	50.585801498298
3	892	2109.80473958318	49.042759880191
3	893	2112.173299890283	47.49465046123
3	898	2123.556455119287	51.116516047377
3	901	2135.107549981698	34.464109890937
3	902	2137.214939160936	27.479550057165
3	905	2141.264085076418	26.708898519628
3	906	2143.586999767465	23.886911394805
3	909	2145.597970309357	20.143656696731
3	910	2153.536252232794	12.283898274245
3	913	2156.297998870391	11.083031759055
3	914	2158.376425142808	2.150605587132
3	925	2176.230042329775	14.449224175261
3	928	2182.635065013858	19.833228822144
3	929	2182.960607272211	6.561039475616
3	932	2188.294090783443	3.824972761587
3	935	2206.400218154673	0
3	938	2208.083819071886	1.406153431591
3	941	2212.910426022293	0
3	944	2216.143270708246	2.868932735001
3	947	2217.785973239773	0.783403797014
3	959	2242.575017841104	18.752493902117
3	960	2243.491257786235	13.972875042581
3	961	2247.441052552472	10.084525667149
3	964	2256.238662832826	14.069265495596
3	965	2257.331673902992	7.519843722344
3	968	2260.677147560681	0
3	977	2278.684934148998	2.303576799976
3	980	2281.344686486092	0.684819411754
3	983	2290.064026851255	4.870372347616
3	999	2311.127530850364	11.533873033422
3	1004	2314.910136577841	8.992576668373
3	1005	2315.973614086277	7.92364152509
3	1008	2317.39517774413	6.094969076721
3	1009	2317.569846023706	6.052532695719
3	1016	2338.485604756958	21.381615883721
3	1022	2341.311488689273	20.058959211375
3	1027	2351.06757778065	26.173117699411
3	1030	2370.340704331341	41.445318710986
3	1031	2388.505747009323	49.088936968638
3	1032	2393.334472244495	50.811125916102
3	1035	2398.991003988953	53.832293547087
3	1038	2410.737354530698	43.48199927508
3	1045	2419.755946508058	26.271429652208
3	1048	2434.274695893923	25.247683262929
3	1049	2434.782416184045	20.248069543644
3	1056	2440.919446601618	22.016754559079
3	1057	2444.706801809926	25.213384878489
3	1058	2445.741397934943	13.575712624838
3	1059	2449.402421661115	13.000478766147
3	1062	2456.065952855087	18.679404978406
3	1069	2464.946437411223	25.631249764487
3	1070	2475.489795532089	19.736080309249
3	1071	2481.336758743867	20.126680789213
3	1072	2487.170319329848	23.569574879216
3	1073	2496.410849592594	31.524234464197
4	141	361.021825549164	1
4	144	377.990665820572	1
4	146	378.253915431294	2
4	161	422.009642860919	1
4	165	440.507768153143	2
4	194	523.73951392862	1
4	197	530.555131859566	1
4	202	545.373125084985	1
4	216	589.35608943426	1
4	219	610.291214639623	1
4	223	615.800908427453	1
4	246	652.662135001111	1
4	252	662.997675276741	1
4	259	681.988222083014	1
4	275	722.609711117216	1
4	280	742.368989217759	1
4	284	751.111928766331	1
4	310	799.632860009152	1
4	323	814.853493710681	1
4	347	860.107364097815	1
4	350	863.381446274853	1
4	353	873.232163967375	1
4	355	875.141813991404	2
4	364	896.29040962463	1
4	370	900.777193276199	2
4	388	924.490335754125	1
4	391	944.436092298924	1
4	395	951.47929612701	1
4	424	1011.77198842037	1
4	427	1012.512646375906	1
4	440	1038.37111930574	1
4	479	1124.687148995609	1
4	484	1134.14472775205	1
4	486	1136.014676504768	2
4	491	1150.696087075246	2
4	496	1163.995141988292	1
4	498	1164.834707420463	2
4	502	1175.182035494463	1
4	515	1230.359838712003	1
4	530	1257.761287405401	1
4	541	1277.139323562446	1
4	545	1284.576761460268	2
4	553	1290.546818596825	3
4	555	1290.626256761703	4
4	557	1295.97049487972	5
4	563	1303.980580883593	4
4	567	1309.463716143574	5
4	581	1347.514072646773	2
4	592	1388.786029090884	1
4	596	1400.099639158162	1
4	617	1448.468959825449	1
4	644	1540.065042446857	1
4	657	1583.325883925548	1
4	659	1586.275170027452	2
4	668	1613.626189748491	1
4	670	1614.26675634966	2
4	675	1628.988584949879	1
4	677	1633.042512394715	2
4	689	1654.225093828105	1
4	694	1663.525897776844	1
4	724	1734.077240528806	1
4	738	1749.437982594428	1
4	753	1799.40592340194	1
4	765	1818.494866855502	1
4	775	1844.445977291195	1
4	780	1857.169951238713	1
4	783	1865.263090597383	1
4	786	1870.89228262137	1
4	789	1874.166523009959	1
4	791	1875.969531453931	2
4	798	1894.574768464284	1
4	825	1956.269871227903	1
4	827	1958.634551972986	2
4	839	1983.36840924784	1
4	845	2008.698798874346	1
4	861	2040.337147864579	1
4	874	2060.761979702989	1
4	880	2072.43993907191	1
4	900	2125.454313612626	1
4	916	2161.780818154514	1
4	920	2164.572453140033	2
4	922	2165.34997202045	3
4	931	2184.469118021856	1
4	937	2206.677665640295	1
4	943	2213.274337973245	1
4	946	2217.002569442759	1
4	950	2221.137838314775	1
4	971	2272.148163070228	1
4	973	2275.806883192869	2
4	979	2280.659867074338	1
4	982	2285.193654503639	1
4	986	2296.706842502531	1
4	990	2299.904511665169	2
4	994	2307.946249155461	3
4	1015	2328.895385620355	1
4	1018	2339.416810040685	1
4	1020	2339.425908011321	2
4	1024	2342.523346328393	1
4	1029	2367.255355255618	1
4	1051	2436.401942894968	1
4	1061	2455.75371522284	1
5	141	361.021825549164	0
5	142	362.947069182943	0
5	144	377.990665820572	0
5	146	378.253915431294	1
5	149	381.258889023954	1
5	150	384.37113616287	0
5	161	422.009642860919	0
5	165	440.507768153143	1
5	168	448.094932124796	1
5	171	449.380240941571	0
5	194	523.73951392862	0
5	195	524.307468729366	0
5	197	530.555131859566	0
5	198	532.384201811973	0
5	202	545.373125084985	0
5	203	546.154450307197	0
5	216	589.35608943426	0
5	217	609.433287220097	0
5	219	610.291214639623	0
5	220	614.946942207641	0
5	223	615.800908427453	0
5	226	619.670253686504	0
5	246	652.662135001111	0
5	249	662.110745549786	0
5	252	662.997675276741	0
5	253	667.807262714145	0
5	259	681.988222083014	0
5	262	684.913971486829	0
5	275	722.609711117216	0
5	276	723.636629374921	0
5	280	742.368989217759	0
5	281	744.749902903057	0
5	284	751.111928766331	0
5	285	753.702653430396	0
5	310	799.632860009152	0
5	311	799.898727535345	0
5	323	814.853493710681	0
5	324	827.582582456686	0
5	347	860.107364097815	0
5	348	862.587487703406	0
5	350	863.381446274853	0
5	351	867.219326455981	0
5	353	873.232163967375	0
5	355	875.141813991404	1
5	358	877.932755529612	1
5	359	886.480001864598	0
5	364	896.29040962463	0
5	370	900.777193276199	1
5	371	901.11938653028	1
5	374	906.65507452272	0
5	388	924.490335754125	0
5	389	932.065750629971	0
5	391	944.436092298924	0
5	392	950.63706618026	0
5	395	951.47929612701	0
5	400	956.463079155803	0
5	424	1011.77198842037	0
5	425	1012.042546982053	0
5	427	1012.512646375906	0
5	430	1017.994985377679	0
5	440	1038.37111930574	0
5	443	1045.066540003814	0
5	479	1124.687148995609	0
5	482	1133.985948700028	0
5	484	1134.14472775205	0
5	486	1136.014676504768	1
5	487	1143.601476983243	1
5	491	1150.696087075246	1
5	492	1155.578716284456	1
5	493	1158.612918018555	0
5	496	1163.995141988292	0
5	498	1164.834707420463	1
5	499	1173.800045063542	1
5	500	1175.121978279537	0
5	502	1175.182035494463	0
5	503	1177.022871464319	0
5	515	1230.359838712003	0
5	516	1231.28745930171	0
5	530	1257.761287405401	0
5	533	1262.946643796403	0
5	541	1277.139323562446	0
5	545	1284.576761460268	1
5	553	1290.546818596825	2
5	555	1290.626256761703	3
5	557	1295.97049487972	4
5	560	1299.81950972285	4
5	561	1300.695801626515	3
5	563	1303.980580883593	3
5	567	1309.463716143574	4
5	568	1318.751131324517	4
5	571	1323.887176469976	3
5	574	1333.433803653056	2
5	575	1333.695688721358	1
5	581	1347.514072646773	1
5	582	1350.494764575128	1
5	587	1360.582775507927	0
5	592	1388.786029090884	0
5	593	1390.420818002476	0
5	596	1400.099639158162	0
5	597	1402.122670471321	0
5	617	1448.468959825449	0
5	620	1458.019299777083	0
5	644	1540.065042446857	0
5	647	1557.678674098904	0
5	657	1583.325883925548	0
5	659	1586.275170027452	1
5	660	1587.320455385527	1
5	665	1597.81110512947	0
5	668	1613.626189748491	0
5	670	1614.26675634966	1
5	671	1620.193593017624	1
5	672	1620.452596476363	0
5	675	1628.988584949879	0
5	677	1633.042512394715	1
5	680	1636.573178330019	1
5	681	1639.584096855357	0
5	689	1654.225093828105	0
5	690	1655.769453060578	0
5	694	1663.525897776844	0
5	697	1665.710436521541	0
5	724	1734.077240528806	0
5	729	1742.299573881421	0
5	738	1749.437982594428	0
5	741	1758.193685174874	0
5	753	1799.40592340194	0
5	758	1801.901071676034	0
5	765	1818.494866855502	0
5	766	1818.982413462805	0
5	775	1844.445977291195	0
5	776	1845.085662391627	0
5	780	1857.169951238713	0
5	781	1861.326767630877	0
5	783	1865.263090597383	0
5	784	1865.642655317084	0
5	786	1870.89228262137	0
5	787	1874.11872573749	0
5	789	1874.166523009959	0
5	791	1875.969531453931	1
5	792	1877.053012677902	1
5	793	1884.617853499812	0
5	798	1894.574768464284	0
5	803	1901.715190717685	0
5	825	1956.269871227903	0
5	827	1958.634551972986	1
5	830	1962.625193070886	1
5	837	1979.442738209941	0
5	839	1983.36840924784	0
5	840	1985.826716806104	0
5	845	2008.698798874346	0
5	846	2012.591723971079	0
5	861	2040.337147864579	0
5	866	2042.867045982549	0
5	874	2060.761979702989	0
5	877	2067.825660407142	0
5	880	2072.43993907191	0
5	881	2074.162430766142	0
5	900	2125.454313612626	0
5	901	2135.107549981698	0
5	916	2161.780818154514	0
5	920	2164.572453140033	1
5	922	2165.34997202045	2
5	923	2166.381176377668	2
5	924	2170.256664962677	1
5	925	2176.230042329775	0
5	931	2184.469118021856	0
5	932	2188.294090783443	0
5	937	2206.677665640295	0
5	938	2208.083819071886	0
5	943	2213.274337973245	0
5	944	2216.143270708246	0
5	946	2217.002569442759	0
5	947	2217.785973239773	0
5	950	2221.137838314775	0
5	959	2242.575017841104	0
5	971	2272.148163070228	0
5	973	2275.806883192869	1
5	976	2276.54042762702	1
5	977	2278.684934148998	0
5	979	2280.659867074338	0
5	980	2281.344686486092	0
5	982	2285.193654503639	0
5	983	2290.064026851255	0
5	986	2296.706842502531	0
5	990	2299.904511665169	1
5	994	2307.946249155461	2
5	997	2308.241641762659	2
5	998	2310.534563108864	1
5	999	2311.127530850364	0
5	1015	2328.895385620355	0
5	1016	2338.485604756958	0
5	1018	2339.416810040685	0
5	1020	2339.425908011321	1
5	1021	2341.069417462951	1
5	1022	2341.311488689273	0
5	1024	2342.523346328393	0
5	1027	2351.06757778065	0
5	1029	2367.255355255618	0
5	1030	2370.340704331341	0
5	1051	2436.401942894968	0
5	1056	2440.919446601618	0
5	1061	2455.75371522284	0
5	1062	2456.065952855087	0
6	141	361.021825549164	7
6	144	377.990665820572	8
6	161	422.009642860919	9
6	202	545.373125084985	10
6	216	589.35608943426	11
6	219	610.291214639623	12
6	223	615.800908427453	13
6	246	652.662135001111	14
6	252	662.997675276741	15
6	259	681.988222083014	16
6	275	722.609711117216	17
6	280	742.368989217759	18
6	284	751.111928766331	19
6	310	799.632860009152	20
6	323	814.853493710681	21
6	364	896.29040962463	22
6	388	924.490335754125	23
6	391	944.436092298924	24
6	395	951.47929612701	25
6	424	1011.77198842037	26
6	427	1012.512646375906	27
6	440	1038.37111930574	28
6	479	1124.687148995609	29
6	484	1134.14472775205	30
6	496	1163.995141988292	31
6	502	1175.182035494463	32
6	515	1230.359838712003	33
6	530	1257.761287405401	34
6	541	1277.139323562446	35
6	592	1388.786029090884	36
6	596	1400.099639158162	37
6	617	1448.468959825449	38
6	657	1583.325883925548	39
6	668	1613.626189748491	40
6	675	1628.988584949879	41
6	689	1654.225093828105	42
6	694	1663.525897776844	43
6	724	1734.077240528806	44
6	738	1749.437982594428	45
6	753	1799.40592340194	46
6	765	1818.494866855502	47
6	775	1844.445977291195	48
6	780	1857.169951238713	49
6	783	1865.263090597383	50
6	786	1870.89228262137	51
6	789	1874.166523009959	52
6	798	1894.574768464284	53
6	825	1956.269871227903	54
6	839	1983.36840924784	55
6	845	2008.698798874346	56
6	861	2040.337147864579	57
6	874	2060.761979702989	58
6	880	2072.43993907191	59
6	900	2125.454313612626	60
6	916	2161.780818154514	61
6	931	2184.469118021856	62
6	937	2206.677665640295	63
6	943	2213.274337973245	64
6	946	2217.002569442759	65
6	979	2280.659867074338	66
6	982	2285.193654503639	67
6	1015	2328.895385620355	68
6	1018	2339.416810040685	69
6	1024	2342.523346328393	70
6	1029	2367.255355255618	71
6	1051	2436.401942894968	72
6	1061	2455.75371522284	73
7	141	361.021825549164	0
7	144	377.990665820572	0
7	149	381.258889023954	3.00497359266
7	161	422.009642860919	0
7	168	448.094932124796	7.587163971653
7	194	523.73951392862	0
7	197	530.555131859566	0
7	202	545.373125084985	0
7	216	589.35608943426	0
7	219	610.291214639623	0
7	223	615.800908427453	0
7	246	652.662135001111	0
7	252	662.997675276741	0
7	259	681.988222083014	0
7	275	722.609711117216	0
7	280	742.368989217759	0
7	284	751.111928766331	0
7	310	799.632860009152	0
7	323	814.853493710681	0
7	347	860.107364097815	0
7	350	863.381446274853	0
7	353	873.232163967375	0
7	358	877.932755529612	2.790941538208
7	364	896.29040962463	0
7	371	901.11938653028	0.342193254081
7	388	924.490335754125	0
7	391	944.436092298924	0
7	395	951.47929612701	0
7	424	1011.77198842037	0
7	427	1012.512646375906	0
7	440	1038.37111930574	0
7	479	1124.687148995609	0
7	484	1134.14472775205	0
7	487	1143.601476983243	7.586800478475
7	492	1155.578716284456	4.88262920921
7	496	1163.995141988292	0
7	499	1173.800045063542	8.965337643079
7	502	1175.182035494463	0
7	515	1230.359838712003	0
7	530	1257.761287405401	0
7	541	1277.139323562446	0
7	560	1299.81950972285	15.242748262582
7	561	1300.695801626515	10.14898302969
7	568	1318.751131324517	28.124874562814
7	571	1323.887176469976	27.916681590256
7	574	1333.433803653056	29.453222769463
7	575	1333.695688721358	24.231972577784
7	582	1350.494764575128	2.980691928355
7	592	1388.786029090884	0
7	596	1400.099639158162	0
7	617	1448.468959825449	0
7	644	1540.065042446857	0
7	657	1583.325883925548	0
7	660	1587.320455385527	1.045285358075
7	668	1613.626189748491	0
7	671	1620.193593017624	5.926836667964
7	675	1628.988584949879	0
7	680	1636.573178330019	3.530665935304
7	689	1654.225093828105	0
7	694	1663.525897776844	0
7	724	1734.077240528806	0
7	738	1749.437982594428	0
7	753	1799.40592340194	0
7	765	1818.494866855502	0
7	775	1844.445977291195	0
7	780	1857.169951238713	0
7	783	1865.263090597383	0
7	786	1870.89228262137	0
7	789	1874.166523009959	0
7	792	1877.053012677902	1.083481223971
7	798	1894.574768464284	0
7	825	1956.269871227903	0
7	830	1962.625193070886	3.9906410979
7	839	1983.36840924784	0
7	845	2008.698798874346	0
7	861	2040.337147864579	0
7	874	2060.761979702989	0
7	880	2072.43993907191	0
7	900	2125.454313612626	0
7	916	2161.780818154514	0
7	923	2166.381176377668	1.808723237635
7	924	2170.256664962677	4.906692942227
7	931	2184.469118021856	0
7	937	2206.677665640295	0
7	943	2213.274337973245	0
7	946	2217.002569442759	0
7	950	2221.137838314775	0
7	971	2272.148163070228	0
7	976	2276.54042762702	0.733544434151
7	979	2280.659867074338	0
7	982	2285.193654503639	0
7	986	2296.706842502531	0
7	997	2308.241641762659	8.33713009749
7	998	2310.534563108864	2.588313953403
7	1015	2328.895385620355	0
7	1018	2339.416810040685	0
7	1021	2341.069417462951	1.64350945163
7	1024	2342.523346328393	0
7	1029	2367.255355255618	0
7	1051	2436.401942894968	0
7	1061	2455.75371522284	0
8	142	362.947069182943	14
8	149	381.258889023954	15
8	150	384.37113616287	16
8	168	448.094932124796	17
8	171	449.380240941571	18
8	195	524.307468729366	19
8	198	532.384201811973	20
8	203	546.154450307197	21
8	217	609.433287220097	22
8	220	614.946942207641	23
8	226	619.670253686504	24
8	249	662.110745549786	25
8	253	667.807262714145	26
8	262	684.913971486829	27
8	276	723.636629374921	28
8	281	744.749902903057	29
8	285	753.702653430396	30
8	311	799.898727535345	31
8	324	827.582582456686	32
8	348	862.587487703406	33
8	351	867.219326455981	34
8	358	877.932755529612	35
8	359	886.480001864598	36
8	371	901.11938653028	37
8	374	906.65507452272	38
8	389	932.065750629971	39
8	392	950.63706618026	40
8	400	956.463079155803	41
8	425	1012.042546982053	42
8	430	1017.994985377679	43
8	443	1045.066540003814	44
8	482	1133.985948700028	45
8	487	1143.601476983243	46
8	492	1155.578716284456	47
8	493	1158.612918018555	48
8	499	1173.800045063542	49
8	500	1175.121978279537	50
8	503	1177.022871464319	51
8	516	1231.28745930171	52
8	533	1262.946643796403	53
8	560	1299.81950972285	54
8	561	1300.695801626515	55
8	568	1318.751131324517	56
8	571	1323.887176469976	57
8	574	1333.433803653056	58
8	575	1333.695688721358	59
8	582	1350.494764575128	60
8	587	1360.582775507927	61
8	593	1390.420818002476	62
8	597	1402.122670471321	63
8	620	1458.019299777083	64
8	647	1557.678674098904	65
8	660	1587.320455385527	66
8	665	1597.81110512947	67
8	671	1620.193593017624	68
8	672	1620.452596476363	69
8	680	1636.573178330019	70
8	681	1639.584096855357	71
8	690	1655.769453060578	72
8	697	1665.710436521541	73
8	729	1742.299573881421	74
8	741	1758.193685174874	75
8	758	1801.901071676034	76
8	766	1818.982413462805	77
8	776	1845.085662391627	78
8	781	1861.326767630877	79
8	784	1865.642655317084	80
8	787	1874.11872573749	81
8	792	1877.053012677902	82
8	793	1884.617853499812	83
8	803	1901.715190717685	84
8	830	1962.625193070886	85
8	837	1979.442738209941	86
8	840	1985.826716806104	87
8	846	2012.591723971079	88
8	866	2042.867045982549	89
8	877	2067.825660407142	90
8	881	2074.162430766142	91
8	901	2135.107549981698	92
8	923	2166.381176377668	93
8	924	2170.256664962677	94
8	925	2176.230042329775	95
8	932	2188.294090783443	96
8	938	2208.083819071886	97
8	944	2216.143270708246	98
8	947	2217.785973239773	99
8	959	2242.575017841104	100
8	976	2276.54042762702	101
8	977	2278.684934148998	102
8	980	2281.344686486092	103
8	983	2290.064026851255	104
8	997	2308.241641762659	105
8	998	2310.534563108864	106
8	999	2311.127530850364	107
8	1016	2338.485604756958	108
8	1021	2341.069417462951	109
8	1022	2341.311488689273	110
8	1027	2351.06757778065	111
8	1030	2370.340704331341	112
8	1056	2440.919446601618	113
8	1062	2456.065952855087	114
9	142	362.947069182943	1.925243633779
9	149	381.258889023954	3.268223203382
9	150	384.37113616287	6.117220731576
9	168	448.094932124796	26.085289263877
9	171	449.380240941571	8.872472788428
9	195	524.307468729366	0.567954800746
9	198	532.384201811973	1.829069952407
9	203	546.154450307197	0.781325222212
9	217	609.433287220097	20.077197785837
9	220	614.946942207641	4.655727568018
9	226	619.670253686504	3.869345259051
9	249	662.110745549786	9.448610548675
9	253	667.807262714145	4.809587437404
9	262	684.913971486829	2.925749403815
9	276	723.636629374921	1.026918257705
9	281	744.749902903057	2.380913685298
9	285	753.702653430396	2.590724664065
9	311	799.898727535345	0.265867526193
9	324	827.582582456686	12.729088746005
9	348	862.587487703406	2.480123605591
9	351	867.219326455981	3.837880181128
9	358	877.932755529612	4.700591562237
9	359	886.480001864598	11.338187873194
9	371	901.11938653028	4.82897690565
9	374	906.65507452272	5.877881246521
9	389	932.065750629971	7.575414875846
9	392	950.63706618026	6.200973881336
9	400	956.463079155803	4.983783028793
9	425	1012.042546982053	0.270558561683
9	430	1017.994985377679	5.482339001773
9	443	1045.066540003814	6.695420698074
9	482	1133.985948700028	9.298799704419
9	487	1143.601476983243	9.456749231193
9	492	1155.578716284456	19.564039779688
9	493	1158.612918018555	7.916830943309
9	499	1173.800045063542	9.80490307525
9	500	1175.121978279537	10.287270859074
9	503	1177.022871464319	1.840835969856
9	516	1231.28745930171	0.927620589707
9	533	1262.946643796403	5.185356391002
9	560	1299.81950972285	22.680186160404
9	561	1300.695801626515	16.119040166247
9	568	1318.751131324517	28.204312727692
9	571	1323.887176469976	33.260919708273
9	574	1333.433803653056	37.463308773336
9	575	1333.695688721358	29.715107837765
9	582	1350.494764575128	41.031048431554
9	587	1360.582775507927	13.068702861154
9	593	1390.420818002476	1.634788911592
9	597	1402.122670471321	2.023031313159
9	620	1458.019299777083	9.550339951634
9	647	1557.678674098904	17.613631652047
9	660	1587.320455385527	3.994571459979
9	665	1597.81110512947	11.535935102018
9	671	1620.193593017624	6.567403269133
9	672	1620.452596476363	6.185840126703
9	680	1636.573178330019	7.58459338014
9	681	1639.584096855357	6.541584460642
9	690	1655.769453060578	1.544359232473
9	697	1665.710436521541	2.184538744697
9	729	1742.299573881421	8.222333352615
9	741	1758.193685174874	8.755702580446
9	758	1801.901071676034	2.495148274094
9	766	1818.982413462805	0.487546607303
9	776	1845.085662391627	0.639685100432
9	781	1861.326767630877	4.156816392164
9	784	1865.642655317084	0.379564719701
9	787	1874.11872573749	3.22644311612
9	792	1877.053012677902	2.886489667943
9	793	1884.617853499812	8.648322045881
9	803	1901.715190717685	7.140422253401
9	830	1962.625193070886	6.355321842983
9	837	1979.442738209941	20.808186236955
9	840	1985.826716806104	2.458307558264
9	846	2012.591723971079	3.892925096733
9	866	2042.867045982549	2.52989811797
9	877	2067.825660407142	7.063680704153
9	881	2074.162430766142	1.722491694232
9	901	2135.107549981698	9.653236369072
9	923	2166.381176377668	4.600358223154
9	924	2170.256664962677	5.684211822644
9	925	2176.230042329775	10.880070309325
9	932	2188.294090783443	3.824972761587
9	938	2208.083819071886	1.406153431591
9	944	2216.143270708246	2.868932735001
9	947	2217.785973239773	0.783403797014
9	959	2242.575017841104	21.437179526329
9	976	2276.54042762702	4.392264556792
9	977	2278.684934148998	2.878050956129
9	980	2281.344686486092	0.684819411754
9	983	2290.064026851255	4.870372347616
9	997	2308.241641762659	11.534799260128
9	998	2310.534563108864	10.630051443695
9	999	2311.127530850364	3.181281694903
9	1016	2338.485604756958	9.590219136603
9	1021	2341.069417462951	1.652607422266
9	1022	2341.311488689273	1.885580677952
9	1027	2351.06757778065	8.544231452257
9	1030	2370.340704331341	3.085349075723
9	1056	2440.919446601618	4.51750370665
9	1062	2456.065952855087	0.312237632247
10	148	379.608095313354	9
10	152	385.157042033546	10
10	157	399.228233649482	8
10	163	426.29441775287	7
10	167	443.660282730514	8
10	170	448.882770349587	9
10	176	458.137377426833	7
10	179	465.826518938555	7
10	188	494.833255579592	1
10	191	499.822669747212	1
10	200	545.209727119979	1
10	206	556.326563719439	1
10	209	572.24175660314	1
10	212	575.863779244195	1
10	214	577.881832968284	2
10	225	618.606462312563	2
10	228	621.290089637664	3
10	230	624.589581645086	4
10	232	627.159808616859	5
10	236	636.156734196456	4
10	238	638.695588633048	5
10	240	639.503912377234	6
10	242	641.651605112762	7
10	244	648.446565023337	8
10	248	656.54974981075	9
10	256	679.39638457525	8
10	261	682.973119520857	8
10	265	694.937514966378	8
10	269	709.632194269071	7
10	271	711.758812941697	8
10	273	714.745063282436	9
10	292	780.526003935068	2
10	294	782.044152913347	3
10	296	785.118702325468	4
10	298	786.82893246052	5
10	301	792.211735403243	5
10	303	794.650893746256	6
10	305	796.164645718989	7
10	308	797.919207288304	7
10	313	800.659176556938	8
10	315	802.145561068497	9
10	318	811.00518497882	9
10	329	837.601350145641	4
10	332	842.808892412795	4
10	337	850.859225738186	2
10	339	852.072682488855	3
10	344	856.159958446072	1
10	357	877.773073587536	1
10	362	893.64717916577	1
10	366	896.443773630609	2
10	368	899.605850019362	3
10	373	906.490154822813	4
10	376	908.845874933179	5
10	378	909.068777480588	6
10	380	910.906698195825	7
10	383	913.501120803603	7
10	386	923.456570972861	7
10	397	953.896826670245	7
10	399	955.784633106749	8
10	402	959.402928374506	9
10	407	967.655498130466	7
10	411	977.727526974586	6
10	414	986.483345419537	6
10	416	992.65484243738	7
10	419	1000.462186581842	7
10	421	1006.176726943197	8
10	429	1017.427407056631	8
10	432	1023.333185885289	9
10	436	1035.575057615901	8
10	438	1036.397542892707	9
10	442	1042.071307097477	10
10	446	1053.311955600887	10
10	450	1068.628170045546	9
10	452	1068.7372523909	10
10	454	1076.558449330755	11
10	458	1085.269920578633	10
10	461	1090.503816550838	10
10	466	1108.756096424927	8
10	468	1109.014040151767	9
10	471	1111.825117276107	9
10	475	1117.188075728243	8
10	477	1118.573341036805	9
10	481	1130.12602680693	10
10	489	1145.944497366466	11
10	507	1191.074306916834	9
10	512	1224.317871195993	7
10	518	1239.415299962359	7
10	521	1241.319226478284	7
10	524	1246.698348383056	7
10	527	1249.075240055608	7
10	532	1262.228682128353	7
10	543	1281.456586332296	2
10	547	1285.868618464094	3
10	549	1287.995910071284	4
10	551	1290.105014442061	5
10	559	1297.064115025479	6
10	565	1309.251003332188	7
10	570	1322.970381474386	8
10	573	1327.054292896169	9
10	577	1337.426373481282	10
10	579	1339.570652825673	11
10	584	1353.57388117284	12
10	586	1354.516585092584	13
10	601	1421.845319537203	8
10	605	1433.077455864582	7
10	608	1434.570566934513	7
10	611	1436.700873309931	7
10	614	1444.299171092421	7
10	619	1451.583659890725	7
10	623	1462.140670769399	7
10	629	1486.551119297569	4
10	631	1496.223907441521	5
10	638	1523.68482419876	1
10	641	1535.830083928314	1
10	646	1552.15528015073	1
10	650	1569.113611818043	1
10	653	1574.59712260323	1
10	655	1577.783622414697	2
10	662	1588.000980001104	3
10	664	1592.596152355802	4
10	679	1636.55918818209	3
10	683	1640.641096239258	4
10	687	1650.918419052956	3
10	696	1663.785704815084	2
10	700	1667.004304150596	2
10	703	1674.644996918479	2
10	705	1675.406868188611	3
10	707	1683.621375205935	4
10	710	1691.870758945599	4
10	716	1720.321633944097	1
10	719	1728.242047121611	1
10	722	1733.304477625183	1
10	726	1736.123190533158	2
10	728	1736.909763431248	3
10	731	1745.044126709653	4
10	734	1748.564229081137	4
10	736	1749.269661046032	5
10	740	1753.344411509976	6
10	743	1768.415993221564	7
10	747	1784.209010264732	6
10	755	1800.178677377241	3
10	757	1800.95833616599	4
10	760	1802.963572909128	5
10	763	1808.674857293738	5
10	768	1823.070351810148	6
10	770	1823.916015992079	7
10	773	1834.242923632817	7
10	795	1884.674211425783	6
10	800	1897.934943306775	6
10	802	1899.021409378431	7
10	807	1908.271706007079	6
10	809	1911.895429355032	7
10	811	1914.724388814061	8
10	814	1919.490991222787	8
10	816	1923.241762418407	9
10	818	1936.92438258832	10
10	829	1961.501522926047	6
10	832	1965.216661545734	7
10	834	1976.143259682891	8
10	836	1977.106085114153	9
10	843	2002.049166686635	9
10	848	2014.824804974099	10
10	853	2026.435831902888	8
10	855	2026.746619278247	9
10	859	2034.2767880203	8
10	863	2040.832134308452	9
10	865	2041.731501973777	10
10	868	2044.394175563752	11
10	872	2057.540071414153	10
10	876	2064.678649429053	11
10	887	2100.643440090761	7
10	891	2109.735389103771	6
10	895	2114.55518655679	5
10	897	2119.70008837266	6
10	904	2141.252353958549	5
10	908	2145.214967111336	4
10	912	2156.225819555676	3
10	918	2162.801836191714	2
10	927	2176.399567796595	3
10	935	2206.400218154673	1
10	941	2212.910426022293	1
10	952	2223.822523938987	1
10	954	2229.518382743654	2
10	956	2237.356526885323	3
10	958	2242.16939733723	4
10	963	2249.811830180648	3
10	968	2260.677147560681	1
10	975	2276.381357349022	1
10	988	2299.593657816942	1
10	992	2305.917559909468	2
10	996	2308.049972561187	3
10	1001	2311.300208667409	4
10	1003	2311.517313327987	5
10	1007	2317.103988873237	4
10	1011	2321.252529477898	3
10	1013	2324.894460081239	4
10	1026	2345.158710441866	5
10	1034	2393.48451685585	4
10	1037	2409.027012630994	4
10	1040	2414.534346640401	4
10	1042	2418.902692042539	5
10	1044	2419.493416931437	6
10	1047	2432.165685310105	6
10	1053	2437.386547876681	5
10	1055	2439.315187646736	6
10	1064	2461.210077954654	4
10	1066	2463.600744450632	5
10	1068	2464.886615128397	6
11	1075	2500	0.0976
12	1075	2500	0.0456

