file 56961 1678524306                                           
version 2
run experiments_medium_game_mode1-1434-20230311-09:45:06-15866
attr configname experiments_medium_game_mode1
attr datetime 20230311-09:45:06
attr experiment experiments_medium_game_mode1
attr inifile omnetpp.ini
attr iterationvars "$0=7, $1=6, $2=100"
attr iterationvarsf 7,6,100-
attr measurement "$0=7, $1=6, $2=100"
attr network Network
attr processid 15866
attr repetition 24
attr replication #24
attr resultdir results
attr runnumber 1434
attr seedset 24
param *.boss.arrival_mean 20
param *.boss.service_mean 7
param *.minion.arrival_mean 10
param *.minion.service_mean 6
param *.player.recover_rate_x 100
param **.minion.arrival_distribution 0
param **.minion.service_distribution 0
param **.boss.arrival_distribution 0
param **.boss.service_distribution 0

vector 0 Network.player minion_defeated_stat:vector ETV
attr source signal_minion_defeated
vector 1 Network.player minion_jobs_queue_number_stat:vector ETV
attr source signal_minion_jobs_queue_number
vector 2 Network.player minion_response_time_stat:vector ETV
attr source signal_minion_response_time
vector 3 Network.player minion_waiting_time_stat:vector ETV
attr source signal_minion_waiting_time
vector 4 Network.player minion_jobs_number_stat:vector ETV
attr source signal_minion_jobs_number
vector 5 Network.player boss_jobs_number_stat:vector ETV
attr source signal_boss_jobs_number
vector 6 Network.player boss_jobs_queue_number_stat:vector ETV
attr source signal_boss_jobs_queue_number
vector 7 Network.player minion_recovered_stat:vector ETV
attr source signal_minion_recovered
vector 8 Network.player boss_waiting_time_stat:vector ETV
attr source signal_boss_waiting_time
vector 9 Network.player boss_defeated_stat:vector ETV
attr source signal_boss_defeated
vector 10 Network.player boss_response_time_stat:vector ETV
attr source signal_boss_response_time
vector 11 Network.player minion_throughput:vector ETV
attr source signal_minion_throughput
vector 12 Network.player boss_throughput:vector ETV
attr source signal_boss_throughput
0	2021 5718 166 1027 352.550061109039 2452.021292656542 210 27 236 27615 4403105
1	7739 10606 166 1042 352.550061109039 2499.167734483319 414 0 11 1413 8553
2	18345 8226 166 1027 352.550061109039 2452.021292656542 210 0.079343875417 108.60353301764 6780.0896315992 365380.4522814
3	26571 9207 166 1027 352.550061109039 2452.021292656542 249 0 104.71975429292 6654.5836242375 337263.22060431
4	35778 5236 169 1042 356.789216703952 2499.167734483319 204 1 12 885 5617
5	41014 2236 174 1035 372.134798287112 2491.203118857694 87 1 6 141 353
6	43250 4410 174 1038 372.134798287112 2493.297940351288 172 0 5 107 315
7	47660 1065 174 1029 372.134798287112 2455.475700995089 40 10 49 1180 40140
8	48725 2543 174 1038 372.134798287112 2493.297940351288 86 0 55.857882312022 487.11667376036 16407.627457797
9	51268 2266 175 1038 374.375210080162 2493.297940351288 85 22 106 5440 399330
10	53534 3386 175 1038 374.375210080162 2493.297940351288 85 0.046021982927 60.396029737352 1008.4319556319 29317.400384155
11	56920 20 1043 1043 2500 2500 1 0.0944 0.0944 0.0944 0.00891136
12	56940 20 1043 1043 2500 2500 1 0.0424 0.0424 0.0424 0.00179776

