file 58103 1678524063                                           
version 2
run experiments_medium_game_mode1-322-20230311-09:41:03-10291
attr configname experiments_medium_game_mode1
attr datetime 20230311-09:41:03
attr experiment experiments_medium_game_mode1
attr inifile omnetpp.ini
attr iterationvars "$0=5.5, $1=3, $2=0"
attr iterationvarsf 5.5,3,0-
attr measurement "$0=5.5, $1=3, $2=0"
attr network Network
attr processid 10291
attr repetition 22
attr replication #22
attr resultdir results
attr runnumber 322
attr seedset 22
param *.boss.arrival_mean 20
param *.boss.service_mean 5.5
param *.minion.arrival_mean 10
param *.minion.service_mean 3
param *.player.recover_rate_x 0
param **.minion.arrival_distribution 0
param **.minion.service_distribution 0
param **.boss.arrival_distribution 0
param **.boss.service_distribution 0

vector 0 Network.player boss_jobs_number_stat:vector ETV
attr source signal_boss_jobs_number
vector 1 Network.player boss_jobs_queue_number_stat:vector ETV
attr source signal_boss_jobs_queue_number
vector 2 Network.player boss_waiting_time_stat:vector ETV
attr source signal_boss_waiting_time
vector 3 Network.player minion_jobs_number_stat:vector ETV
attr source signal_minion_jobs_number
vector 4 Network.player minion_jobs_queue_number_stat:vector ETV
attr source signal_minion_jobs_queue_number
vector 5 Network.player boss_defeated_stat:vector ETV
attr source signal_boss_defeated
vector 6 Network.player boss_response_time_stat:vector ETV
attr source signal_boss_response_time
vector 7 Network.player minion_waiting_time_stat:vector ETV
attr source signal_minion_waiting_time
vector 8 Network.player minion_defeated_stat:vector ETV
attr source signal_minion_defeated
vector 9 Network.player minion_response_time_stat:vector ETV
attr source signal_minion_response_time
vector 10 Network.player minion_recovered_stat:vector ETV
attr source signal_minion_recovered
vector 11 Network.player minion_throughput:vector ETV
attr source signal_minion_throughput
vector 12 Network.player boss_throughput:vector ETV
attr source signal_boss_throughput
0	2019 2455 149 1073 352.732720250375 2486.924382343612 96 1 3 115 157
1	4474 4909 149 1074 352.732720250375 2489.155591909584 192 0 2 38 46
2	9383 2672 149 1073 352.732720250375 2486.924382343612 96 0 9.617928916673 94.898562714915 683.15973678064
3	12055 5499 153 1076 357.110273761727 2491.824172234539 214 1 6 390 974
4	17554 10981 153 1077 357.110273761727 2493.095289476292 428 0 5 352 816
5	28535 2565 154 1074 358.162617602767 2489.155591909584 96 19 114 6384 498256
6	31100 3706 154 1074 358.162617602767 2489.155591909584 96 0.045065628238 26.756193467075 564.79861827247 6092.9368992587
7	34806 8237 159 1076 360.922830431956 2491.824172234539 246 0 31.910562120296 1148.0284748103 16539.827842804
8	43043 5842 160 1077 361.677488872471 2493.095289476292 214 32 245 29639 4921679
9	48885 8300 160 1077 361.677488872471 2493.095289476292 214 0.010718425685 33.521346079973 1544.2807405726 22211.832702777
10	57185 878 189 978 409.20090723275 2218.118859979382 32 8 39 752 20400
11	58063 19 1078 1078 2500 2500 1 0.098 0.098 0.098 0.009604
12	58082 20 1078 1078 2500 2500 1 0.0456 0.0456 0.0456 0.00207936

