version 2
run experiments_medium_game_mode1-1051-20230311-09:43:37-13946
attr configname experiments_medium_game_mode1
attr datetime 20230311-09:43:37
attr experiment experiments_medium_game_mode1
attr inifile omnetpp.ini
attr iterationvars "$0=6.5, $1=5, $2=100"
attr iterationvarsf 6.5,5,100-
attr measurement "$0=6.5, $1=5, $2=100"
attr network Network
attr processid 13946
attr repetition 1
attr replication #1
attr resultdir results
attr runnumber 1051
attr seedset 1
param *.boss.arrival_mean 20
param *.boss.service_mean 6.5
param *.minion.arrival_mean 10
param *.minion.service_mean 5
param *.player.recover_rate_x 100
param **.minion.arrival_distribution 0
param **.minion.service_distribution 0
param **.boss.arrival_distribution 0
param **.boss.service_distribution 0

vector 0 Network.player minion_jobs_number_stat:vector ETV
attr source signal_minion_jobs_number
vector 1 Network.player minion_jobs_queue_number_stat:vector ETV
attr source signal_minion_jobs_queue_number
vector 2 Network.player minion_defeated_stat:vector ETV
attr source signal_minion_defeated
vector 3 Network.player minion_response_time_stat:vector ETV
attr source signal_minion_response_time
vector 4 Network.player minion_waiting_time_stat:vector ETV
attr source signal_minion_waiting_time
vector 5 Network.player boss_jobs_number_stat:vector ETV
attr source signal_boss_jobs_number
vector 6 Network.player boss_jobs_queue_number_stat:vector ETV
attr source signal_boss_jobs_queue_number
vector 7 Network.player minion_recovered_stat:vector ETV
attr source signal_minion_recovered
vector 8 Network.player boss_waiting_time_stat:vector ETV
attr source signal_boss_waiting_time
vector 9 Network.player boss_defeated_stat:vector ETV
attr source signal_boss_defeated
vector 10 Network.player boss_response_time_stat:vector ETV
attr source signal_boss_response_time
vector 11 Network.player minion_throughput:vector ETV
attr source signal_minion_throughput
vector 12 Network.player boss_throughput:vector ETV
attr source signal_boss_throughput
0	133	354.557151855681	2
0	137	363.823894831212	1
0	139	365.613274632813	2
0	143	370.585233872072	3
0	146	379.681710898725	4
0	152	396.392065199602	1
0	154	396.482332329256	2
0	160	405.963380670505	1
0	164	410.850292778012	1
0	167	413.949212177533	1
0	169	414.400860177836	2
0	174	424.726697612854	3
0	181	456.111867721576	1
0	187	472.775236854993	1
0	189	478.504847620427	2
0	191	478.696928021011	3
0	206	508.451775855767	1
0	208	508.857708167273	2
0	217	524.28980936815	1
0	224	553.294729384193	1
0	229	573.415496850299	1
0	233	579.327708019238	1
0	235	581.229214307217	2
0	237	587.051509254189	3
0	239	587.830568865482	4
0	242	588.51024789307	4
0	245	597.69174064835	4
0	248	599.625904239714	4
0	251	601.464798297421	4
0	255	621.555207288251	3
0	258	634.774522045433	3
0	262	653.323311617842	2
0	264	658.573298451177	3
0	271	684.49641219479	2
0	274	692.002243623595	2
0	278	712.428054766382	3
0	284	740.165402144317	1
0	292	758.199070333875	1
0	296	765.574160589746	1
0	300	768.598356354349	2
0	302	769.743416064392	3
0	304	770.107547801784	4
0	307	771.829954097869	5
0	309	774.42754541804	6
0	312	782.306578941402	6
0	314	784.678757195726	7
0	319	792.11062420985	7
0	321	794.103925195273	8
0	323	804.254275049714	9
0	326	808.053947914704	10
0	330	813.187159306011	9
0	332	815.945202965973	10
0	337	826.437857566554	8
0	341	831.143790537557	7
0	345	836.200513181557	8
0	347	846.215295774186	9
0	351	855.994726423543	9
0	353	858.518294259223	10
0	359	873.102858222541	10
0	361	874.596576772936	11
0	363	876.56858066659	12
0	366	885.172340007252	12
0	368	889.881592834636	13
0	370	894.21520461275	14
0	376	901.197466405341	14
0	380	907.503892790405	13
0	387	919.108782958971	13
0	390	923.552397120488	14
0	393	926.478400633381	15
0	395	927.346722870158	16
0	400	935.437711264658	16
0	403	938.35340222437	17
0	407	948.159850924412	16
0	409	948.645510515757	17
0	415	971.23130375891	18
0	423	997.739497752726	18
0	426	1002.247055797812	18
0	431	1004.940780636881	18
0	435	1015.089663101238	18
0	440	1031.744717209477	18
0	442	1033.869800367338	19
0	444	1035.218628114189	20
0	451	1042.10607936867	17
0	453	1042.89333419035	18
0	455	1044.907710098221	19
0	460	1056.478227078671	19
0	468	1081.535408919244	17
0	477	1110.924019657824	18
0	481	1116.577226252923	17
0	486	1120.370427437659	17
0	497	1138.101066537554	16
0	502	1158.997769375823	14
0	507	1164.389614103138	12
0	513	1176.368381827385	9
0	521	1199.872236254162	10
0	526	1204.278596782078	10
0	531	1209.467598345595	11
0	539	1232.961859612421	10
0	541	1236.984180589291	11
0	544	1241.706954241873	11
0	551	1250.196517913514	10
0	557	1268.951555771959	7
0	568	1287.623521008735	4
0	572	1300.845123160787	4
0	576	1320.578965987141	3
0	579	1332.584785782388	3
0	583	1341.640472899657	2
0	587	1352.712257866263	1
0	589	1353.596872460635	2
0	591	1354.430462899995	3
0	596	1363.525267817574	1
0	598	1363.98202022208	2
0	600	1366.79840673552	3
0	603	1367.798799028257	3
0	608	1380.988650301259	1
0	611	1383.440373029984	1
0	619	1405.945167179226	1
0	626	1422.396675441742	1
0	628	1429.627255756317	2
0	630	1430.685088772856	3
0	635	1439.937483048556	1
0	639	1440.601567088654	2
0	641	1441.274379830186	3
0	649	1470.089611214683	2
0	653	1477.856523929648	1
0	655	1479.634303538207	2
0	658	1481.017581247421	2
0	664	1489.97936585555	1
0	667	1499.513136980461	2
0	674	1529.541644465283	1
0	679	1534.061715485615	1
0	682	1538.630925993558	2
0	686	1553.230681240834	1
0	688	1553.449239273142	2
0	690	1553.946754001386	3
0	694	1561.300505661371	4
0	696	1562.463800429604	5
0	698	1566.131236080638	6
0	701	1577.652101419888	7
0	707	1595.558615324041	7
0	709	1602.787541439405	8
0	716	1629.290346216222	4
0	719	1637.768291493497	4
0	721	1639.148682106153	5
0	727	1657.708909622613	5
0	732	1675.495492245268	3
0	734	1682.1846757928	4
0	742	1697.637724245331	3
0	746	1714.252640392117	4
0	751	1725.952996459446	2
0	756	1733.091468649534	3
0	762	1743.602300963212	3
0	773	1769.737070293725	1
0	779	1797.429649869354	1
0	782	1808.423608925901	1
0	786	1811.117469180127	2
0	788	1812.727691339913	3
0	791	1819.29507133408	4
0	795	1823.829339928366	5
0	806	1850.05842958545	1
0	814	1870.140801328938	1
0	816	1872.093750590139	2
0	819	1876.405968623866	3
0	821	1878.066848027262	4
0	823	1880.162037838015	5
0	833	1914.482613606068	1
0	835	1920.880977758516	2
0	837	1924.746660298332	3
0	839	1929.7353207484	4
0	845	1951.433106009163	1
0	848	1961.080825932835	1
0	851	1968.963691792235	1
0	854	1974.704298001108	1
0	857	1979.34222648922	1
0	860	1982.36574677823	1
0	862	1983.838293113229	2
0	867	1989.156610482477	3
0	869	1990.350194517302	4
0	873	1995.780825651345	5
0	875	1996.531113902884	6
0	881	2019.802131646665	7
0	883	2021.949410744452	8
0	893	2060.879589853667	3
0	895	2060.908898717302	4
0	900	2070.679099586889	5
0	906	2091.617982071237	3
0	908	2092.486468161446	4
0	918	2120.154046587702	2
0	925	2133.359064701743	3
0	927	2140.34363870594	4
0	931	2151.696984518615	5
0	938	2165.460219418262	6
0	945	2182.948533678196	6
0	949	2189.646182425831	7
0	951	2193.914878067786	8
0	953	2193.954164107906	9
0	955	2194.561011312908	10
0	959	2200.766102351387	10
0	962	2210.22901050779	10
0	964	2211.800957408794	11
0	966	2213.125016198576	12
0	968	2216.818198176185	13
0	975	2231.069777978458	12
0	979	2245.062037414236	11
0	986	2260.881398963393	10
0	991	2274.961049532209	10
0	998	2280.214129127697	9
0	1008	2305.165130442435	10
0	1017	2333.953071763477	9
0	1027	2360.789919575655	8
0	1029	2362.698859064813	9
0	1031	2363.643523370556	10
0	1039	2392.218169230268	8
0	1041	2394.39108518217	9
0	1048	2400.655127529596	8
0	1055	2408.898363050178	8
0	1063	2423.295046423066	8
0	1065	2423.399860528197	9
0	1070	2437.376253249859	10
0	1072	2439.988562019943	11
0	1082	2479.732826589049	7
0	1084	2480.108407740282	8
1	133	354.557151855681	1
1	134	361.846848759798	1
1	135	362.708565473102	0
1	137	363.823894831212	0
1	139	365.613274632813	1
1	143	370.585233872072	2
1	146	379.681710898725	3
1	147	384.477879431397	3
1	148	387.441470810663	2
1	149	388.029202941502	1
1	150	389.630824787613	0
1	152	396.392065199602	0
1	154	396.482332329256	1
1	155	397.533817806691	1
1	156	400.208000988262	0
1	160	405.963380670505	0
1	162	409.769411189832	0
1	164	410.850292778012	0
1	165	412.605745131592	0
1	167	413.949212177533	0
1	169	414.400860177836	1
1	174	424.726697612854	2
1	175	428.134285407485	2
1	176	438.327186004769	1
1	177	442.035463446927	0
1	181	456.111867721576	0
1	183	461.457031122419	0
1	187	472.775236854993	0
1	189	478.504847620427	1
1	191	478.696928021011	2
1	196	487.129844762337	2
1	197	491.710413476988	1
1	204	507.523845432872	0
1	206	508.451775855767	0
1	208	508.857708167273	1
1	209	509.996775117829	1
1	210	510.070215590144	0
1	217	524.28980936815	0
1	219	530.159572776089	0
1	224	553.294729384193	0
1	225	553.784795224658	0
1	229	573.415496850299	0
1	231	576.410425868529	0
1	233	579.327708019238	0
1	235	581.229214307217	1
1	237	587.051509254189	2
1	239	587.830568865482	3
1	240	588.087160128579	3
1	242	588.51024789307	3
1	243	590.071401390041	3
1	245	597.69174064835	3
1	246	599.03498336614	3
1	248	599.625904239714	3
1	249	599.813367639131	3
1	251	601.464798297421	3
1	252	610.960552865649	3
1	253	611.865841774089	2
1	255	621.555207288251	2
1	256	627.717877405962	2
1	258	634.774522045433	2
1	259	644.329419699365	2
1	260	648.449540135673	1
1	262	653.323311617842	1
1	264	658.573298451177	2
1	268	676.349903416249	2
1	269	677.393732020531	1
1	271	684.49641219479	1
1	272	684.875281781584	1
1	274	692.002243623595	1
1	278	712.428054766382	2
1	280	717.187441312899	2
1	281	723.042930910518	1
1	282	726.287642024151	0
1	284	740.165402144317	0
1	285	741.309673436982	0
1	292	758.199070333875	0
1	294	764.993452296809	0
1	296	765.574160589746	0
1	300	768.598356354349	1
1	302	769.743416064392	2
1	304	770.107547801784	3
1	307	771.829954097869	4
1	309	774.42754541804	5
1	310	776.651411770785	5
1	312	782.306578941402	5
1	314	784.678757195726	6
1	315	785.920924496658	6
1	319	792.11062420985	6
1	321	794.103925195273	7
1	323	804.254275049714	8
1	326	808.053947914704	9
1	327	811.844505185276	9
1	328	811.960505911211	8
1	330	813.187159306011	8
1	332	815.945202965973	9
1	333	816.10176216119	9
1	334	820.411519059029	8
1	335	822.707131870915	7
1	337	826.437857566554	7
1	338	828.260038905482	7
1	339	828.268256505325	6
1	341	831.143790537557	6
1	345	836.200513181557	7
1	347	846.215295774186	8
1	349	852.629540767577	8
1	351	855.994726423543	8
1	353	858.518294259223	9
1	354	861.098197013832	9
1	359	873.102858222541	9
1	361	874.596576772936	10
1	363	876.56858066659	11
1	364	878.944411580276	11
1	366	885.172340007252	11
1	368	889.881592834636	12
1	370	894.21520461275	13
1	374	898.880832104074	13
1	376	901.197466405341	13
1	377	902.851401212066	13
1	378	904.35083305492	12
1	380	907.503892790405	12
1	381	910.725663816	12
1	387	919.108782958971	12
1	390	923.552397120488	13
1	393	926.478400633381	14
1	395	927.346722870158	15
1	396	931.439320434685	15
1	400	935.437711264658	15
1	403	938.35340222437	16
1	404	946.604291389912	16
1	405	947.718543136347	15
1	407	948.159850924412	15
1	409	948.645510515757	16
1	415	971.23130375891	17
1	421	997.153536278489	17
1	423	997.739497752726	17
1	424	1001.436736342496	17
1	426	1002.247055797812	17
1	427	1004.269922395487	17
1	431	1004.940780636881	17
1	433	1009.85334504597	17
1	435	1015.089663101238	17
1	436	1017.957429728867	17
1	440	1031.744717209477	17
1	442	1033.869800367338	18
1	444	1035.218628114189	19
1	446	1036.445084356217	19
1	447	1038.990426915465	18
1	448	1039.965917836082	17
1	449	1040.820372611172	16
1	451	1042.10607936867	16
1	453	1042.89333419035	17
1	455	1044.907710098221	18
1	456	1049.223229304505	18
1	460	1056.478227078671	18
1	462	1064.231452177973	18
1	463	1068.92288894425	17
1	464	1070.26147511098	16
1	468	1081.535408919244	16
1	477	1110.924019657824	17
1	478	1112.993171305423	17
1	479	1114.080687217929	16
1	481	1116.577226252923	16
1	482	1117.39796002036	16
1	486	1120.370427437659	16
1	494	1131.717104884534	16
1	495	1131.864823422954	15
1	497	1138.101066537554	15
1	498	1143.350112111181	15
1	499	1156.992360073478	14
1	500	1157.444860182874	13
1	502	1158.997769375823	13
1	503	1159.307284509596	13
1	504	1159.898127750037	12
1	505	1163.11340819197	11
1	507	1164.389614103138	11
1	508	1164.560126215376	11
1	509	1166.272675521527	10
1	510	1166.593829986572	9
1	511	1171.154998461082	8
1	513	1176.368381827385	8
1	521	1199.872236254162	9
1	522	1200.405084100668	9
1	526	1204.278596782078	9
1	531	1209.467598345595	10
1	536	1217.463347977888	10
1	537	1225.945417988635	9
1	539	1232.961859612421	9
1	541	1236.984180589291	10
1	542	1240.273636197329	10
1	544	1241.706954241873	10
1	545	1244.448134706481	10
1	546	1246.816383136112	9
1	551	1250.196517913514	9
1	552	1252.742894020035	9
1	553	1257.036670468451	8
1	554	1259.458421614758	7
1	555	1267.812392991057	6
1	557	1268.951555771959	6
1	558	1269.22420450094	6
1	559	1271.02189944631	5
1	563	1274.851457021227	4
1	564	1276.78565376367	3
1	568	1287.623521008735	3
1	570	1295.557352620013	3
1	572	1300.845123160787	3
1	573	1308.501734108159	3
1	574	1315.668041397507	2
1	576	1320.578965987141	2
1	577	1324.377482693896	2
1	579	1332.584785782388	2
1	580	1337.484693650665	2
1	581	1337.979392471693	1
1	583	1341.640472899657	1
1	584	1343.743141967378	1
1	585	1345.982774950352	0
1	587	1352.712257866263	0
1	589	1353.596872460635	1
1	591	1354.430462899995	2
1	592	1355.472281951238	2
1	593	1355.653056017506	1
1	594	1359.83065948416	0
1	596	1363.525267817574	0
1	598	1363.98202022208	1
1	600	1366.79840673552	2
1	601	1367.477506407239	2
1	603	1367.798799028257	2
1	604	1368.687731871323	2
1	605	1376.639407689782	1
1	606	1377.49353382746	0
1	608	1380.988650301259	0
1	609	1381.25113514853	0
1	611	1383.440373029984	0
1	615	1399.107426096331	0
1	619	1405.945167179226	0
1	624	1413.667757800096	0
1	626	1422.396675441742	0
1	628	1429.627255756317	1
1	630	1430.685088772856	2
1	631	1431.720108203759	2
1	632	1433.994522961939	1
1	633	1439.15418234818	0
1	635	1439.937483048556	0
1	639	1440.601567088654	1
1	641	1441.274379830186	2
1	643	1461.244474772854	2
1	644	1461.96521680818	1
1	649	1470.089611214683	1
1	650	1474.655341434734	1
1	651	1475.627650868701	0
1	653	1477.856523929648	0
1	655	1479.634303538207	1
1	656	1480.026579439532	1
1	658	1481.017581247421	1
1	659	1481.946574683004	1
1	660	1487.039267410552	0
1	664	1489.97936585555	0
1	667	1499.513136980461	1
1	671	1514.123522407263	1
1	672	1514.392053650139	0
1	674	1529.541644465283	0
1	675	1530.826343178836	0
1	679	1534.061715485615	0
1	682	1538.630925993558	1
1	683	1539.711751716975	1
1	684	1550.779509082813	0
1	686	1553.230681240834	0
1	688	1553.449239273142	1
1	690	1553.946754001386	2
1	694	1561.300505661371	3
1	696	1562.463800429604	4
1	698	1566.131236080638	5
1	701	1577.652101419888	6
1	702	1583.811081223233	6
1	707	1595.558615324041	6
1	709	1602.787541439405	7
1	710	1606.343896617829	7
1	711	1606.788626647909	6
1	712	1607.38081277918	5
1	713	1615.721033800538	4
1	714	1624.996286464358	3
1	716	1629.290346216222	3
1	717	1636.281289406533	3
1	719	1637.768291493497	3
1	721	1639.148682106153	4
1	725	1657.512656109149	4
1	727	1657.708909622613	4
1	728	1659.687561927645	4
1	729	1660.218962584407	3
1	730	1663.527789448234	2
1	732	1675.495492245268	2
1	734	1682.1846757928	3
1	735	1685.934737894056	3
1	736	1688.352485201002	2
1	742	1697.637724245331	2
1	746	1714.252640392117	3
1	747	1715.210521623887	3
1	748	1721.978106968505	2
1	749	1724.310351185757	1
1	751	1725.952996459446	1
1	756	1733.091468649534	2
1	757	1733.210295957998	2
1	762	1743.602300963212	2
1	769	1758.126617603083	2
1	770	1759.086924758149	1
1	771	1762.787378679448	0
1	773	1769.737070293725	0
1	774	1769.799303036326	0
1	779	1797.429649869354	0
1	780	1799.370454703069	0
1	782	1808.423608925901	0
1	786	1811.117469180127	1
1	788	1812.727691339913	2
1	791	1819.29507133408	3
1	795	1823.829339928366	4
1	797	1825.609719214726	4
1	798	1826.198632362434	3
1	799	1828.427606529253	2
1	800	1834.343332816893	1
1	801	1837.597019883476	0
1	806	1850.05842958545	0
1	807	1856.038425500285	0
1	814	1870.140801328938	0
1	816	1872.093750590139	1
1	819	1876.405968623866	2
1	821	1878.066848027262	3
1	823	1880.162037838015	4
1	824	1885.140256855371	4
1	825	1892.997147181371	3
1	829	1898.567498712393	2
1	830	1901.525940488207	1
1	831	1905.083760006344	0
1	833	1914.482613606068	0
1	835	1920.880977758516	1
1	837	1924.746660298332	2
1	839	1929.7353207484	3
1	840	1932.141625762438	3
1	841	1940.200739997475	2
1	842	1943.774775564068	1
1	843	1943.877786333594	0
1	845	1951.433106009163	0
1	846	1954.761728804475	0
1	848	1961.080825932835	0
1	849	1965.33121880096	0
1	851	1968.963691792235	0
1	852	1969.238152303328	0
1	854	1974.704298001108	0
1	855	1977.354201067296	0
1	857	1979.34222648922	0
1	858	1980.756248977826	0
1	860	1982.36574677823	0
1	862	1983.838293113229	1
1	867	1989.156610482477	2
1	869	1990.350194517302	3
1	873	1995.780825651345	4
1	875	1996.531113902884	5
1	881	2019.802131646665	6
1	883	2021.949410744452	7
1	884	2034.789178261906	7
1	885	2042.871529399119	6
1	886	2047.809076913468	5
1	887	2049.618556676484	4
1	888	2049.895919901058	3
1	889	2056.788057723115	2
1	893	2060.879589853667	2
1	895	2060.908898717302	3
1	900	2070.679099586889	4
1	902	2075.480295864419	4
1	903	2078.491518854959	3
1	904	2082.948738249014	2
1	906	2091.617982071237	2
1	908	2092.486468161446	3
1	912	2103.136559216484	3
1	913	2106.666463318359	2
1	914	2108.68415925066	1
1	918	2120.154046587702	1
1	925	2133.359064701743	2
1	927	2140.34363870594	3
1	931	2151.696984518615	4
1	938	2165.460219418262	5
1	943	2182.619340146868	5
1	945	2182.948533678196	5
1	949	2189.646182425831	6
1	951	2193.914878067786	7
1	953	2193.954164107906	8
1	955	2194.561011312908	9
1	957	2200.227823369535	9
1	959	2200.766102351387	9
1	960	2204.495265534861	9
1	962	2210.22901050779	9
1	964	2211.800957408794	10
1	966	2213.125016198576	11
1	968	2216.818198176185	12
1	969	2217.216674199343	12
1	970	2224.831023373884	11
1	975	2231.069777978458	11
1	976	2233.643252499639	11
1	977	2242.509379375806	10
1	979	2245.062037414236	10
1	980	2245.127969012026	10
1	981	2246.507202085836	9
1	986	2260.881398963393	9
1	987	2270.174867420077	9
1	991	2274.961049532209	9
1	993	2275.793987689691	9
1	994	2276.225801427131	8
1	998	2280.214129127697	8
1	1008	2305.165130442435	9
1	1014	2330.959938651973	9
1	1015	2332.864445054194	8
1	1017	2333.953071763477	8
1	1018	2338.27092627244	8
1	1019	2340.232461412915	7
1	1027	2360.789919575655	7
1	1029	2362.698859064813	8
1	1031	2363.643523370556	9
1	1032	2368.057028454595	9
1	1036	2376.489989090397	8
1	1037	2380.188076585772	7
1	1039	2392.218169230268	7
1	1041	2394.39108518217	8
1	1042	2396.972670300427	8
1	1046	2400.505632025708	7
1	1048	2400.655127529596	7
1	1049	2401.157986702856	7
1	1055	2408.898363050178	7
1	1058	2417.131541427276	7
1	1063	2423.295046423066	7
1	1065	2423.399860528197	8
1	1070	2437.376253249859	9
1	1072	2439.988562019943	10
1	1076	2453.894997259575	10
1	1077	2460.085214654997	9
1	1078	2465.723059071618	8
1	1079	2477.465007827139	7
1	1080	2477.957059437396	6
1	1082	2479.732826589049	6
1	1084	2480.108407740282	7
1	1088	2486.963665895707	7
1	1089	2491.507165512853	6
2	134	361.846848759798	26
2	135	362.708565473102	27
2	147	384.477879431397	28
2	148	387.441470810663	29
2	149	388.029202941502	30
2	150	389.630824787613	31
2	155	397.533817806691	32
2	156	400.208000988262	33
2	162	409.769411189832	34
2	165	412.605745131592	35
2	175	428.134285407485	36
2	176	438.327186004769	37
2	177	442.035463446927	38
2	183	461.457031122419	39
2	196	487.129844762337	40
2	197	491.710413476988	41
2	204	507.523845432872	42
2	209	509.996775117829	43
2	210	510.070215590144	44
2	219	530.159572776089	45
2	225	553.784795224658	46
2	231	576.410425868529	47
2	240	588.087160128579	48
2	243	590.071401390041	49
2	246	599.03498336614	50
2	249	599.813367639131	51
2	252	610.960552865649	52
2	253	611.865841774089	53
2	256	627.717877405962	54
2	259	644.329419699365	55
2	260	648.449540135673	56
2	268	676.349903416249	57
2	269	677.393732020531	58
2	272	684.875281781584	59
2	280	717.187441312899	60
2	281	723.042930910518	61
2	282	726.287642024151	62
2	285	741.309673436982	63
2	294	764.993452296809	64
2	310	776.651411770785	65
2	315	785.920924496658	66
2	327	811.844505185276	67
2	328	811.960505911211	68
2	333	816.10176216119	69
2	334	820.411519059029	70
2	335	822.707131870915	71
2	338	828.260038905482	72
2	339	828.268256505325	73
2	349	852.629540767577	74
2	354	861.098197013832	75
2	364	878.944411580276	76
2	374	898.880832104074	77
2	377	902.851401212066	78
2	378	904.35083305492	79
2	381	910.725663816	80
2	396	931.439320434685	81
2	404	946.604291389912	82
2	405	947.718543136347	83
2	421	997.153536278489	84
2	424	1001.436736342496	85
2	427	1004.269922395487	86
2	433	1009.85334504597	87
2	436	1017.957429728867	88
2	446	1036.445084356217	89
2	447	1038.990426915465	90
2	448	1039.965917836082	91
2	449	1040.820372611172	92
2	456	1049.223229304505	93
2	462	1064.231452177973	94
2	463	1068.92288894425	95
2	464	1070.26147511098	96
2	478	1112.993171305423	97
2	479	1114.080687217929	98
2	482	1117.39796002036	99
2	494	1131.717104884534	100
2	495	1131.864823422954	101
2	498	1143.350112111181	102
2	499	1156.992360073478	103
2	500	1157.444860182874	104
2	503	1159.307284509596	105
2	504	1159.898127750037	106
2	505	1163.11340819197	107
2	508	1164.560126215376	108
2	509	1166.272675521527	109
2	510	1166.593829986572	110
2	511	1171.154998461082	111
2	522	1200.405084100668	112
2	536	1217.463347977888	113
2	537	1225.945417988635	114
2	542	1240.273636197329	115
2	545	1244.448134706481	116
2	546	1246.816383136112	117
2	552	1252.742894020035	118
2	553	1257.036670468451	119
2	554	1259.458421614758	120
2	555	1267.812392991057	121
2	558	1269.22420450094	122
2	559	1271.02189944631	123
2	563	1274.851457021227	124
2	564	1276.78565376367	125
2	570	1295.557352620013	126
2	573	1308.501734108159	127
2	574	1315.668041397507	128
2	577	1324.377482693896	129
2	580	1337.484693650665	130
2	581	1337.979392471693	131
2	584	1343.743141967378	132
2	585	1345.982774950352	133
2	592	1355.472281951238	134
2	593	1355.653056017506	135
2	594	1359.83065948416	136
2	601	1367.477506407239	137
2	604	1368.687731871323	138
2	605	1376.639407689782	139
2	606	1377.49353382746	140
2	609	1381.25113514853	141
2	615	1399.107426096331	142
2	624	1413.667757800096	143
2	631	1431.720108203759	144
2	632	1433.994522961939	145
2	633	1439.15418234818	146
2	643	1461.244474772854	147
2	644	1461.96521680818	148
2	650	1474.655341434734	149
2	651	1475.627650868701	150
2	656	1480.026579439532	151
2	659	1481.946574683004	152
2	660	1487.039267410552	153
2	671	1514.123522407263	154
2	672	1514.392053650139	155
2	675	1530.826343178836	156
2	683	1539.711751716975	157
2	684	1550.779509082813	158
2	702	1583.811081223233	159
2	710	1606.343896617829	160
2	711	1606.788626647909	161
2	712	1607.38081277918	162
2	713	1615.721033800538	163
2	714	1624.996286464358	164
2	717	1636.281289406533	165
2	725	1657.512656109149	166
2	728	1659.687561927645	167
2	729	1660.218962584407	168
2	730	1663.527789448234	169
2	735	1685.934737894056	170
2	736	1688.352485201002	171
2	747	1715.210521623887	172
2	748	1721.978106968505	173
2	749	1724.310351185757	174
2	757	1733.210295957998	175
2	769	1758.126617603083	176
2	770	1759.086924758149	177
2	771	1762.787378679448	178
2	774	1769.799303036326	179
2	780	1799.370454703069	180
2	797	1825.609719214726	181
2	798	1826.198632362434	182
2	799	1828.427606529253	183
2	800	1834.343332816893	184
2	801	1837.597019883476	185
2	807	1856.038425500285	186
2	824	1885.140256855371	187
2	825	1892.997147181371	188
2	829	1898.567498712393	189
2	830	1901.525940488207	190
2	831	1905.083760006344	191
2	840	1932.141625762438	192
2	841	1940.200739997475	193
2	842	1943.774775564068	194
2	843	1943.877786333594	195
2	846	1954.761728804475	196
2	849	1965.33121880096	197
2	852	1969.238152303328	198
2	855	1977.354201067296	199
2	858	1980.756248977826	200
2	884	2034.789178261906	201
2	885	2042.871529399119	202
2	886	2047.809076913468	203
2	887	2049.618556676484	204
2	888	2049.895919901058	205
2	889	2056.788057723115	206
2	902	2075.480295864419	207
2	903	2078.491518854959	208
2	904	2082.948738249014	209
2	912	2103.136559216484	210
2	913	2106.666463318359	211
2	914	2108.68415925066	212
2	943	2182.619340146868	213
2	957	2200.227823369535	214
2	960	2204.495265534861	215
2	969	2217.216674199343	216
2	970	2224.831023373884	217
2	976	2233.643252499639	218
2	977	2242.509379375806	219
2	980	2245.127969012026	220
2	981	2246.507202085836	221
2	987	2270.174867420077	222
2	993	2275.793987689691	223
2	994	2276.225801427131	224
2	1014	2330.959938651973	225
2	1015	2332.864445054194	226
2	1018	2338.27092627244	227
2	1019	2340.232461412915	228
2	1032	2368.057028454595	229
2	1036	2376.489989090397	230
2	1037	2380.188076585772	231
2	1042	2396.972670300427	232
2	1046	2400.505632025708	233
2	1049	2401.157986702856	234
2	1058	2417.131541427276	235
2	1076	2453.894997259575	236
2	1077	2460.085214654997	237
2	1078	2465.723059071618	238
2	1079	2477.465007827139	239
2	1080	2477.957059437396	240
2	1088	2486.963665895707	241
2	1089	2491.507165512853	242
3	134	361.846848759798	11.956317017487
3	135	362.708565473102	8.151413617421
3	147	384.477879431397	18.864604798584
3	148	387.441470810663	18.066215493391
3	149	388.029202941502	17.44396906943
3	150	389.630824787613	9.949113888888
3	155	397.533817806691	1.141752607089
3	156	400.208000988262	3.725668659006
3	162	409.769411189832	3.806030519327
3	165	412.605745131592	1.75545235358
3	175	428.134285407485	13.733425229649
3	176	438.327186004769	22.538509912968
3	177	442.035463446927	17.308765834073
3	183	461.457031122419	5.345163400843
3	196	487.129844762337	14.354607907344
3	197	491.710413476988	13.205565856561
3	204	507.523845432872	7.0102779575
3	209	509.996775117829	1.544999262062
3	210	510.070215590144	1.212507422871
3	219	530.159572776089	5.869763407939
3	225	553.784795224658	0.490065840465
3	231	576.410425868529	2.99492901823
3	240	588.087160128579	8.759452109341
3	243	590.071401390041	8.842187082824
3	246	599.03498336614	11.983474111951
3	249	599.813367639131	11.982798773649
3	252	610.960552865649	22.450304972579
3	253	611.865841774089	14.174101125739
3	256	627.717877405962	28.091973166248
3	259	644.329419699365	42.864621401944
3	260	648.449540135673	26.894332847422
3	268	676.349903416249	23.026591798407
3	269	677.393732020531	18.820433569354
3	272	684.875281781584	24.622303641546
3	280	717.187441312899	25.185197689304
3	281	723.042930910518	13.676300809592
3	282	726.287642024151	13.859587257769
3	285	741.309673436982	1.144271292665
3	294	764.993452296809	6.794381962934
3	310	776.651411770785	9.531019345569
3	315	785.920924496658	17.322568142309
3	327	811.844505185276	41.736957383492
3	328	811.960505911211	40.130551813342
3	333	816.10176216119	41.67421674315
3	334	820.411519059029	38.104940117627
3	335	822.707131870915	38.028374675189
3	338	828.260038905482	38.444249315056
3	339	828.268256505325	36.157632295475
3	349	852.629540767577	48.375265717863
3	354	861.098197013832	53.044249099128
3	364	878.944411580276	62.999208614303
3	374	898.880832104074	67.737041566517
3	377	902.851401212066	71.242921052221
3	378	904.35083305492	68.150319873363
3	381	910.725663816	64.510368041814
3	396	931.439320434685	72.921026175462
3	404	946.604291389912	73.501433167371
3	405	947.718543136347	73.121966363411
3	421	997.153536278489	107.27194344385
3	424	1001.436736342496	107.22153172975
3	427	1004.269922395487	105.58174210455
3	433	1009.85334504597	102.34945225556
3	436	1017.957429728867	107.0126516022
3	446	1036.445084356217	112.89268723573
3	447	1038.990426915465	112.51202628208
3	448	1039.965917836082	112.61919496592
3	449	1040.820372611172	106.34828807874
3	456	1049.223229304505	113.78551803985
3	462	1064.231452177973	116.07160125356
3	463	1068.92288894425	120.27737842849
3	464	1070.26147511098	110.42718077721
3	478	1112.993171305423	117.55214665513
3	479	1114.080687217929	116.3411894652
3	482	1117.39796002036	115.15090422255
3	494	1131.717104884534	126.77632424765
3	495	1131.864823422954	116.77516032172
3	498	1143.350112111181	112.40695951161
3	499	1156.992360073478	125.247642864
3	500	1157.444860182874	123.57505981554
3	503	1159.307284509596	124.08865639541
3	504	1159.898127750037	117.79204838137
3	505	1163.11340819197	120.22007400162
3	508	1164.560126215376	119.65241611715
3	509	1166.272675521527	116.16242953508
3	510	1166.593829986572	110.1156029079
3	511	1171.154998461082	96.347055073975
3	522	1200.405084100668	89.481064442844
3	536	1217.463347977888	97.092920540229
3	537	1225.945417988635	87.844351451081
3	542	1240.273636197329	81.275866821506
3	545	1244.448134706481	80.058520603343
3	546	1246.816383136112	70.448001308727
3	552	1252.742894020035	52.870657765873
3	553	1257.036670468451	54.759779721759
3	554	1259.458421614758	55.17982483268
3	555	1267.812392991057	58.344794645462
3	558	1269.22420450094	57.140906254342
3	559	1271.02189944631	38.060039833889
3	563	1274.851457021227	33.144502779354
3	564	1276.78565376367	29.775198640767
3	570	1295.557352620013	26.605796848054
3	573	1308.501734108159	36.225607562684
3	574	1315.668041397507	31.059249559021
3	577	1324.377482693896	36.753961685161
3	580	1337.484693650665	36.639570489878
3	581	1337.979392471693	17.400426484552
3	584	1343.743141967378	11.15835618499
3	585	1345.982774950352	4.342302050695
3	592	1355.472281951238	2.760024084975
3	593	1355.653056017506	2.056183556871
3	594	1359.83065948416	5.400196584165
3	601	1367.477506407239	3.952238589665
3	604	1368.687731871323	4.705711649243
3	605	1376.639407689782	9.841000954262
3	606	1377.49353382746	9.694734799203
3	609	1381.25113514853	0.262484847271
3	615	1399.107426096331	11.475026835428
3	624	1413.667757800096	7.72259062087
3	631	1431.720108203759	9.323432762017
3	632	1433.994522961939	4.367267205622
3	633	1439.15418234818	8.469093575324
3	643	1461.244474772854	20.941949612817
3	644	1461.96521680818	21.363649719526
3	650	1474.655341434734	12.100046699661
3	651	1475.627650868701	5.538039654018
3	656	1480.026579439532	2.170055509884
3	659	1481.946574683004	2.312271144797
3	660	1487.039267410552	6.021686163131
3	671	1514.123522407263	14.610385426802
3	672	1514.392053650139	6.629814932306
3	675	1530.826343178836	1.284698713553
3	683	1539.711751716975	5.65003623136
3	684	1550.779509082813	12.148583089255
3	702	1583.811081223233	30.361841950091
3	710	1606.343896617829	47.845719279286
3	711	1606.788626647909	45.488120986538
3	712	1607.38081277918	44.917012349576
3	713	1615.721033800538	49.5897977199
3	714	1624.996286464358	47.34418504447
3	717	1636.281289406533	45.810554184484
3	725	1657.512656109149	54.725114669744
3	728	1659.687561927645	30.397215711423
3	729	1660.218962584407	22.45067109091
3	730	1663.527789448234	24.379107342081
3	735	1685.934737894056	40.060319738112
3	736	1688.352485201002	30.643575578389
3	747	1715.210521623887	33.025845831087
3	748	1721.978106968505	33.379829684936
3	749	1724.310351185757	26.672626940426
3	757	1733.210295957998	7.257299498552
3	769	1758.126617603083	14.524316639871
3	770	1759.086924758149	14.187397071665
3	771	1762.787378679448	7.588751375823
3	774	1769.799303036326	0.062232742601
3	780	1799.370454703069	1.940804833715
3	797	1825.609719214726	14.492250034599
3	798	1826.198632362434	13.470941022521
3	799	1828.427606529253	9.132535195173
3	800	1834.343332816893	14.509125575091
3	801	1837.597019883476	13.76767995511
3	807	1856.038425500285	5.979995914835
3	824	1885.140256855371	14.999455526433
3	825	1892.997147181371	20.903396591232
3	829	1898.567498712393	20.500650685131
3	830	1901.525940488207	21.363902650192
3	831	1905.083760006344	11.63062589036
3	840	1932.141625762438	17.65901215637
3	841	1940.200739997475	19.319762238959
3	842	1943.774775564068	19.028115265736
3	843	1943.877786333594	14.142465585194
3	846	1954.761728804475	3.328622795312
3	849	1965.33121880096	4.250392868125
3	852	1969.238152303328	0.274460511093
3	855	1977.354201067296	2.649903066188
3	858	1980.756248977826	1.414022488606
3	884	2034.789178261906	50.436001836206
3	885	2042.871529399119	53.714918916642
3	886	2047.809076913468	57.458882396166
3	887	2049.618556676484	56.178786042329
3	888	2049.895919901058	54.115094249713
3	889	2056.788057723115	60.256943820231
3	902	2075.480295864419	17.65100359607
3	903	2078.491518854959	17.611929001292
3	904	2082.948738249014	22.039839531712
3	912	2103.136559216484	32.457459629595
3	913	2106.666463318359	15.048481247122
3	914	2108.68415925066	16.197691089214
3	943	2182.619340146868	62.465293559166
3	957	2200.227823369535	66.868758667792
3	960	2204.495265534861	64.151626828921
3	969	2217.216674199343	65.519689680728
3	970	2224.831023373884	59.370803955622
3	976	2233.643252499639	44.430744392199
3	977	2242.509379375806	52.863196949975
3	980	2245.127969012026	51.21309094424
3	981	2246.507202085836	52.55303797793
3	987	2270.174867420077	69.40876506869
3	993	2275.793987689691	63.993030280897
3	994	2276.225801427131	63.100785228555
3	1014	2330.959938651973	85.897901237737
3	1015	2332.864445054194	75.910819396046
3	1018	2338.27092627244	77.389527309047
3	1019	2340.232461412915	69.764901489223
3	1032	2368.057028454595	87.842899326898
3	1036	2376.489989090397	71.324858647962
3	1037	2380.188076585772	67.594443923625
3	1042	2396.972670300427	63.01959853695
3	1046	2400.505632025708	47.1061675387
3	1049	2401.157986702856	40.368067127201
3	1058	2417.131541427276	53.48801805672
3	1076	2453.894997259575	54.926544627525
3	1077	2460.085214654997	59.430087125401
3	1078	2465.723059071618	61.021569955437
3	1079	2477.465007827139	68.566644776961
3	1080	2477.957059437396	58.988732523375
3	1088	2486.963665895707	63.56380536751
3	1089	2491.507165512853	64.496302568637
4	134	361.846848759798	7.289696904117
4	137	363.823894831212	0
4	144	373.879184651171	8.265910018358
4	147	384.477879431397	15.102624114125
4	148	387.441470810663	16.856236938591
4	149	388.029202941502	8.347492042777
4	152	396.392065199602	0
4	155	397.533817806691	1.051485477435
4	161	409.135381695178	3.172001024673
4	164	410.850292778012	0
4	167	413.949212177533	0
4	172	423.179376904119	8.778516726283
4	175	428.134285407485	12.345609315684
4	176	438.327186004769	13.600488391915
4	182	457.121458760955	1.009591039379
4	195	483.742136880528	10.966900025535
4	196	487.129844762337	8.62499714191
4	197	491.710413476988	13.013485455977
4	200	498.146837028424	3.117106919431
4	203	503.757921901871	3.244354426499
4	206	508.451775855767	0
4	209	509.996775117829	1.139066950556
4	218	528.484405229962	4.194595861812
4	224	553.294729384193	0
4	230	574.948036761525	1.532539911226
4	233	579.327708019238	0
4	240	588.087160128579	6.857945821362
4	243	590.071401390041	3.019892135852
4	246	599.03498336614	11.204414500658
4	249	599.813367639131	11.303119746061
4	252	610.960552865649	13.268812217299
4	253	611.865841774089	12.239937534375
4	256	627.717877405962	26.253079108541
4	259	644.329419699365	22.774212411114
4	260	648.449540135673	13.67501809024
4	267	675.875334304131	22.552022686289
4	268	676.349903416249	17.776604965072
4	269	677.393732020531	17.140753880493
4	272	684.875281781584	0.378869586794
4	279	717.064407110693	25.062163487098
4	280	717.187441312899	7.820811211973
4	281	723.042930910518	10.614876144136
4	284	740.165402144317	0
4	293	759.218878497593	1.019808163718
4	296	765.574160589746	0
4	305	771.031482821439	3.911090396223
4	310	776.651411770785	8.053055416436
4	315	785.920924496658	16.177508432266
4	324	807.057315871453	36.949768069669
4	327	811.844505185276	40.014551087407
4	328	811.960505911211	37.532960493171
4	333	816.10176216119	33.795183219788
4	334	820.411519059029	35.732761863303
4	335	822.707131870915	32.891342280489
4	338	828.260038905482	36.149414695632
4	339	828.268256505325	34.164331310052
4	348	849.00663421975	44.752359170036
4	349	852.629540767577	44.575592852873
4	354	861.098197013832	47.911037707821
4	357	865.949991548917	50.004788582944
4	364	878.944411580276	52.506554013722
4	373	898.852074256528	67.708283718971
4	374	898.880832104074	67.272351944229
4	377	902.851401212066	66.650888030509
4	378	904.35083305492	58.135537280734
4	381	910.725663816	54.730937392457
4	391	925.94036855499	67.422074295767
4	396	931.439320434685	67.46924702551
4	401	936.384572202334	63.281713979793
4	404	946.604291389912	72.007714616976
4	405	947.718543136347	71.149962469757
4	417	991.711032248549	106.5386922413
4	420	997.142452927342	107.26086009271
4	421	997.153536278489	102.93833166574
4	424	1001.436736342496	102.74855605156
4	427	1004.269922395487	103.07245599015
4	432	1005.519157793383	98.015265002978
4	433	1009.85334504597	98.908566919306
4	436	1017.957429728867	98.848646769896
4	445	1036.111676825833	112.55927970534
4	446	1036.445084356217	109.96668372284
4	447	1038.990426915465	111.64370404531
4	448	1039.965917836082	105.49383330365
4	449	1040.820372611172	105.38266134651
4	456	1049.223229304505	110.86982708013
4	461	1060.278131749906	112.11828082549
4	462	1064.231452177973	115.58594166222
4	463	1068.92288894425	109.08859461049
4	464	1070.26147511098	99.03017135207
4	475	1109.361159789568	113.92013513928
4	478	1112.993171305423	115.2536735527
4	479	1114.080687217929	111.83363142012
4	482	1117.39796002036	113.12176072386
4	493	1131.069132158194	126.12835152131
4	494	1131.717104884534	116.6274417833
4	495	1131.864823422954	100.92167082339
4	498	1143.350112111181	111.6053949017
4	499	1156.992360073478	123.12255970614
4	500	1157.444860182874	122.22623206868
4	503	1159.307284509596	117.20120514093
4	504	1159.898127750037	117.00479355969
4	505	1163.11340819197	118.20569809375
4	508	1164.560126215376	114.44988022893
4	509	1166.272675521527	109.79444844286
4	510	1166.593829986572	91.785886599465
4	511	1171.154998461082	89.619589541838
4	519	1198.794792362476	87.870772704652
4	522	1200.405084100668	83.827857847745
4	532	1210.860461139053	91.636745821619
4	535	1216.182506000487	95.812078562828
4	536	1217.463347977888	79.362281440334
4	537	1225.945417988635	66.947648612812
4	542	1240.273636197329	75.884022094191
4	545	1244.448134706481	68.079752879096
4	546	1246.816383136112	59.91844370528
4	549	1247.698722521208	47.826486267046
4	552	1252.742894020035	50.466003273343
4	553	1257.036670468451	52.758073686373
4	554	1259.458421614758	49.990823269163
4	555	1267.812392991057	55.729094744459
4	558	1269.22420450094	36.262344888519
4	559	1271.02189944631	34.037718857019
4	562	1273.766078390264	32.059124148391
4	563	1274.851457021227	27.841001898324
4	564	1276.78565376367	26.589135850156
4	569	1288.892359057906	19.940803285947
4	570	1295.557352620013	23.281226074538
4	573	1308.501734108159	23.892942269673
4	574	1315.668041397507	28.044520388772
4	577	1324.377482693896	23.532359533109
4	580	1337.484693650665	16.905727663524
4	581	1337.979392471693	5.394606689305
4	584	1343.743141967378	2.102669067721
4	587	1352.712257866263	0
4	592	1355.472281951238	1.875409490603
4	593	1355.653056017506	1.222593117511
4	596	1363.525267817574	0
4	601	1367.477506407239	3.495486185159
4	604	1368.687731871323	1.889325135803
4	605	1376.639407689782	8.840608661525
4	608	1380.988650301259	0
4	611	1383.440373029984	0
4	614	1392.018907553345	4.386508292442
4	623	1412.62236977107	6.677202591844
4	626	1422.396675441742	0
4	631	1431.720108203759	2.092852447442
4	632	1433.994522961939	3.309434189083
4	635	1439.937483048556	0
4	642	1459.93913027083	19.636605110793
4	643	1461.244474772854	20.6429076842
4	644	1461.96521680818	20.690836977994
4	647	1466.773412105189	4.218117370116
4	650	1474.655341434734	4.565730220051
4	653	1477.856523929648	0
4	656	1480.026579439532	0.392275901325
4	659	1481.946574683004	0.928993435583
4	665	1492.273731521513	2.294365665963
4	670	1510.723206122173	11.210069141712
4	671	1514.123522407263	6.36128368943
4	674	1529.541644465283	0
4	680	1535.332410730452	1.270695244837
4	683	1539.711751716975	1.080825723417
4	686	1553.230681240834	0
4	699	1570.325920848247	16.876681575105
4	702	1583.811081223233	29.864327221847
4	705	1594.315512307498	35.817334968955
4	710	1606.343896617829	45.043390956458
4	711	1606.788626647909	44.324826218305
4	712	1607.38081277918	41.249576698542
4	713	1615.721033800538	38.06893238065
4	714	1624.996286464358	34.525551242309
4	717	1636.281289406533	40.722674082492
4	724	1655.389201252372	52.601659812967
4	725	1657.512656109149	28.222309892927
4	728	1659.687561927645	21.919270434148
4	729	1660.218962584407	21.070280478254
4	730	1663.527789448234	17.65337129229
4	735	1685.934737894056	28.225828271443
4	736	1688.352485201002	12.856992955734
4	744	1711.640150520499	29.455474727699
4	747	1715.210521623887	26.612244340318
4	748	1721.978106968505	24.340382723174
4	749	1724.310351185757	10.05771079364
4	754	1733.031343914108	7.078347454662
4	757	1733.210295957998	1.465530131053
4	760	1743.121164603029	10.029695953495
4	765	1745.900434924241	8.304882747359
4	768	1757.298332970767	13.696032007555
4	769	1758.126617603083	13.227089916599
4	770	1759.086924758149	3.888297454524
4	773	1769.737070293725	0
4	779	1797.429649869354	0
4	782	1808.423608925901	0
4	789	1813.926207029395	3.919625893155
4	796	1824.984692359989	13.867223179862
4	797	1825.609719214726	12.882027874813
4	798	1826.198632362434	6.903561028354
4	799	1828.427606529253	8.593399287451
4	800	1834.343332816893	10.513992888527
4	806	1850.05842958545	0
4	817	1875.655322523061	5.514521194123
4	824	1885.140256855371	13.046506265232
4	825	1892.997147181371	16.591178557505
4	828	1895.613010106632	17.54616207937
4	829	1898.567498712393	18.405460874378
4	830	1901.525940488207	8.072806372223
4	833	1914.482613606068	0
4	840	1932.141625762438	11.260648003922
4	841	1940.200739997475	15.454079699143
4	842	1943.774775564068	14.039454815668
4	845	1951.433106009163	0
4	848	1961.080825932835	0
4	851	1968.963691792235	0
4	854	1974.704298001108	0
4	857	1979.34222648922	0
4	860	1982.36574677823	0
4	865	1987.360030182384	3.521737069155
4	879	2013.932538834711	29.579362409011
4	884	2034.789178261906	45.632567779429
4	885	2042.871529399119	52.521334881817
4	886	2047.809076913468	54.369306279313
4	887	2049.618556676484	53.837731025139
4	888	2049.895919901058	53.364805998174
4	889	2056.788057723115	36.98592607645
4	896	2061.52128979755	39.571879053098
4	901	2075.449876627895	17.620584359546
4	902	2075.480295864419	14.600706010752
4	903	2078.491518854959	17.582620137657
4	904	2082.948738249014	15.757467340094
4	911	2097.067418616707	26.388319029818
4	912	2103.136559216484	11.518577145247
4	913	2106.666463318359	14.179995156913
4	914	2108.68415925066	15.143554567059
4	919	2121.735152665867	3.462657502815
4	942	2181.394420470128	61.240373882426
4	943	2182.619340146868	58.756876166245
4	956	2197.996519126697	64.637454424954
4	957	2200.227823369535	59.884184663595
4	960	2204.495265534861	52.798281016246
4	969	2217.216674199343	51.756454781081
4	970	2224.831023373884	41.882489695688
4	973	2230.332948746516	41.120440639076
4	976	2233.643252499639	43.997070073808
4	977	2242.509379375806	48.59450130802
4	980	2245.127969012026	51.17380490412
4	981	2246.507202085836	51.946190772928
4	984	2260.521012522931	59.754910171544
4	987	2270.174867420077	59.945856912287
4	992	2275.024637924153	63.223680515359
4	993	2275.793987689691	62.668971491115
4	994	2276.225801427131	59.407603250946
4	999	2280.758591196012	52.747178949426
4	1010	2312.196212062494	81.126434084036
4	1013	2317.403906710574	72.341869296338
4	1014	2330.959938651973	74.006312993825
4	1015	2332.864445054194	71.983046090801
4	1018	2338.27092627244	67.803366348748
4	1019	2340.232461412915	65.271411880706
4	1022	2347.195528567834	70.050393910451
4	1025	2356.883130044317	76.66900091662
4	1032	2368.057028454595	75.70072349988
4	1035	2375.804865220702	70.639734778267
4	1036	2376.489989090397	63.89635642825
4	1037	2380.188076585772	46.235004822295
4	1042	2396.972670300427	51.726738058907
4	1045	2398.977733970859	45.578269483851
4	1046	2400.505632025708	39.715712450053
4	1049	2401.157986702856	38.459127638043
4	1057	2412.483263496037	48.839740125481
4	1058	2417.131541427276	44.703611372974
4	1061	2422.731361348289	30.513192118021
4	1068	2435.043486394581	40.652401212411
4	1075	2453.327238660816	54.358786028766
4	1076	2453.894997259575	53.239869729979
4	1077	2460.085214654997	55.383725538816
4	1078	2465.723059071618	56.82469602144
4	1079	2477.465007827139	58.496680913118
4	1080	2477.957059437396	54.66201301433
4	1087	2485.451134323738	62.051273795541
4	1088	2486.963665895707	59.952802951491
4	1089	2491.507165512853	54.130912262994
5	141	369.375255317272	1
5	158	404.258574086135	1
5	171	415.788676091801	1
5	179	443.919676013075	1
5	185	470.546870107225	1
5	193	480.431995840156	2
5	199	495.029730108993	1
5	202	500.513567475372	1
5	212	517.809300423735	1
5	215	521.192237302952	1
5	221	541.925002229654	1
5	227	567.695925539455	1
5	266	660.252978140038	1
5	276	709.366630100926	1
5	287	743.646848964604	1
5	290	756.458935907148	1
5	298	767.120392425216	1
5	317	789.815789590426	1
5	343	831.608480159845	1
5	356	863.970073409175	1
5	372	898.688180290939	1
5	383	910.944778126664	1
5	385	912.065066633432	2
5	398	934.472084532428	1
5	411	959.834294333765	1
5	413	963.034023953894	2
5	419	995.44102465029	1
5	429	1004.276199296497	1
5	438	1030.943152599568	1
5	458	1050.110245986447	1
5	466	1074.807943387107	1
5	470	1086.494175780376	2
5	473	1102.06552599861	2
5	484	1119.223715317434	1
5	488	1121.890324746436	2
5	491	1123.663479696237	2
5	515	1186.897939430832	1
5	517	1191.951539220539	2
5	524	1202.276890746692	1
5	528	1207.192094069512	2
5	534	1212.083298246598	1
5	548	1247.010455122903	1
5	561	1272.276126545475	1
5	566	1284.608791838486	1
5	613	1387.632399260903	1
5	617	1403.412013724196	1
5	621	1409.315926484005	2
5	637	1440.302525160037	1
5	646	1462.555294735073	1
5	662	1489.486066902343	1
5	669	1507.762238717833	1
5	677	1533.228522866138	1
5	692	1558.498177338543	1
5	704	1590.470735222049	1
5	723	1645.874418155944	1
5	738	1688.598277283569	1
5	740	1697.269698461538	2
5	753	1731.744765826945	1
5	759	1737.595552176882	1
5	764	1744.899527686484	1
5	767	1755.198627303625	1
5	776	1782.557906561692	1
5	784	1810.00658113624	1
5	793	1819.834207241802	1
5	803	1845.586409673488	1
5	809	1858.271437782732	1
5	812	1868.692586631094	1
5	827	1893.453134115984	1
5	864	1984.3531764257	1
5	871	1993.439770634155	1
5	877	2005.414674315447	2
5	891	2057.829292268349	1
5	898	2067.19127090892	1
5	910	2093.540604683601	1
5	916	2118.272495163052	1
5	921	2123.862463980623	1
5	923	2125.583614538701	2
5	929	2148.351335550223	3
5	934	2158.513685384924	3
5	936	2159.742235841395	4
5	947	2189.21250810744	1
5	972	2228.011412246586	1
5	983	2256.953625658148	1
5	989	2270.467559923692	1
5	996	2277.145134657383	1
5	1001	2292.356304954715	1
5	1003	2296.559424856657	2
5	1006	2299.848805152245	2
5	1012	2312.593632662147	1
5	1021	2345.24593224152	1
5	1024	2353.399464487008	1
5	1034	2372.427930054302	1
5	1044	2398.96845263205	1
5	1051	2404.701489116181	1
5	1053	2408.893875339512	2
5	1060	2418.968326914021	1
5	1067	2427.010862944216	1
5	1074	2443.433928593672	1
5	1086	2480.621220096792	1
5	1091	2496.852317827315	1
6	141	369.375255317272	0
6	144	373.879184651171	0
6	158	404.258574086135	0
6	161	409.135381695178	0
6	171	415.788676091801	0
6	172	423.179376904119	0
6	179	443.919676013075	0
6	182	457.121458760955	0
6	185	470.546870107225	0
6	193	480.431995840156	1
6	194	481.130885634458	1
6	195	483.742136880528	0
6	199	495.029730108993	0
6	200	498.146837028424	0
6	202	500.513567475372	0
6	203	503.757921901871	0
6	212	517.809300423735	0
6	213	518.252669904668	0
6	215	521.192237302952	0
6	218	528.484405229962	0
6	221	541.925002229654	0
6	222	544.134234471488	0
6	227	567.695925539455	0
6	230	574.948036761525	0
6	266	660.252978140038	0
6	267	675.875334304131	0
6	276	709.366630100926	0
6	279	717.064407110693	0
6	287	743.646848964604	0
6	288	745.206958161511	0
6	290	756.458935907148	0
6	293	759.218878497593	0
6	298	767.120392425216	0
6	305	771.031482821439	0
6	317	789.815789590426	0
6	324	807.057315871453	0
6	343	831.608480159845	0
6	348	849.00663421975	0
6	356	863.970073409175	0
6	357	865.949991548917	0
6	372	898.688180290939	0
6	373	898.852074256528	0
6	383	910.944778126664	0
6	385	912.065066633432	1
6	388	919.975552691652	1
6	391	925.94036855499	0
6	398	934.472084532428	0
6	401	936.384572202334	0
6	411	959.834294333765	0
6	413	963.034023953894	1
6	416	979.323410178137	1
6	417	991.711032248549	0
6	419	995.44102465029	0
6	420	997.142452927342	0
6	429	1004.276199296497	0
6	432	1005.519157793383	0
6	438	1030.943152599568	0
6	445	1036.111676825833	0
6	458	1050.110245986447	0
6	461	1060.278131749906	0
6	466	1074.807943387107	0
6	470	1086.494175780376	1
6	471	1090.396941583769	1
6	473	1102.06552599861	1
6	474	1108.432233355869	1
6	475	1109.361159789568	0
6	484	1119.223715317434	0
6	488	1121.890324746436	1
6	489	1123.09579366783	1
6	491	1123.663479696237	1
6	492	1127.912970362238	1
6	493	1131.069132158194	0
6	515	1186.897939430832	0
6	517	1191.951539220539	1
6	518	1195.919517838663	1
6	519	1198.794792362476	0
6	524	1202.276890746692	0
6	528	1207.192094069512	1
6	529	1209.463790687551	1
6	532	1210.860461139053	0
6	534	1212.083298246598	0
6	535	1216.182506000487	0
6	548	1247.010455122903	0
6	549	1247.698722521208	0
6	561	1272.276126545475	0
6	562	1273.766078390264	0
6	566	1284.608791838486	0
6	569	1288.892359057906	0
6	613	1387.632399260903	0
6	614	1392.018907553345	0
6	617	1403.412013724196	0
6	621	1409.315926484005	1
6	622	1409.594488667959	1
6	623	1412.62236977107	0
6	637	1440.302525160037	0
6	642	1459.93913027083	0
6	646	1462.555294735073	0
6	647	1466.773412105189	0
6	662	1489.486066902343	0
6	665	1492.273731521513	0
6	669	1507.762238717833	0
6	670	1510.723206122173	0
6	677	1533.228522866138	0
6	680	1535.332410730452	0
6	692	1558.498177338543	0
6	699	1570.325920848247	0
6	704	1590.470735222049	0
6	705	1594.315512307498	0
6	723	1645.874418155944	0
6	724	1655.389201252372	0
6	738	1688.598277283569	0
6	740	1697.269698461538	1
6	743	1709.190496183648	1
6	744	1711.640150520499	0
6	753	1731.744765826945	0
6	754	1733.031343914108	0
6	759	1737.595552176882	0
6	760	1743.121164603029	0
6	764	1744.899527686484	0
6	765	1745.900434924241	0
6	767	1755.198627303625	0
6	768	1757.298332970767	0
6	776	1782.557906561692	0
6	777	1783.124719867562	0
6	784	1810.00658113624	0
6	789	1813.926207029395	0
6	793	1819.834207241802	0
6	796	1824.984692359989	0
6	803	1845.586409673488	0
6	804	1848.416350716367	0
6	809	1858.271437782732	0
6	810	1860.685323143484	0
6	812	1868.692586631094	0
6	817	1875.655322523061	0
6	827	1893.453134115984	0
6	828	1895.613010106632	0
6	864	1984.3531764257	0
6	865	1987.360030182384	0
6	871	1993.439770634155	0
6	877	2005.414674315447	1
6	878	2009.938237655829	1
6	879	2013.932538834711	0
6	891	2057.829292268349	0
6	896	2061.52128979755	0
6	898	2067.19127090892	0
6	901	2075.449876627895	0
6	910	2093.540604683601	0
6	911	2097.067418616707	0
6	916	2118.272495163052	0
6	919	2121.735152665867	0
6	921	2123.862463980623	0
6	923	2125.583614538701	1
6	929	2148.351335550223	2
6	932	2151.71343808112	2
6	934	2158.513685384924	2
6	936	2159.742235841395	3
6	939	2167.111765687112	3
6	940	2177.367426053299	2
6	941	2178.660938082772	1
6	942	2181.394420470128	0
6	947	2189.21250810744	0
6	956	2197.996519126697	0
6	972	2228.011412246586	0
6	973	2230.332948746516	0
6	983	2256.953625658148	0
6	984	2260.521012522931	0
6	989	2270.467559923692	0
6	992	2275.024637924153	0
6	996	2277.145134657383	0
6	999	2280.758591196012	0
6	1001	2292.356304954715	0
6	1003	2296.559424856657	1
6	1004	2298.701532792968	1
6	1006	2299.848805152245	1
6	1009	2305.241575243413	1
6	1010	2312.196212062494	0
6	1012	2312.593632662147	0
6	1013	2317.403906710574	0
6	1021	2345.24593224152	0
6	1022	2347.195528567834	0
6	1024	2353.399464487008	0
6	1025	2356.883130044317	0
6	1034	2372.427930054302	0
6	1035	2375.804865220702	0
6	1044	2398.96845263205	0
6	1045	2398.977733970859	0
6	1051	2404.701489116181	0
6	1053	2408.893875339512	1
6	1056	2411.854064320865	1
6	1057	2412.483263496037	0
6	1060	2418.968326914021	0
6	1061	2422.731361348289	0
6	1067	2427.010862944216	0
6	1068	2435.043486394581	0
6	1074	2443.433928593672	0
6	1075	2453.327238660816	0
6	1086	2480.621220096792	0
6	1087	2485.451134323738	0
6	1091	2496.852317827315	0
7	141	369.375255317272	11
7	171	415.788676091801	12
7	199	495.029730108993	13
7	202	500.513567475372	14
7	266	660.252978140038	15
7	276	709.366630100926	16
7	298	767.120392425216	17
7	317	789.815789590426	18
7	343	831.608480159845	19
7	356	863.970073409175	20
7	372	898.688180290939	21
7	383	910.944778126664	22
7	398	934.472084532428	23
7	411	959.834294333765	24
7	419	995.44102465029	25
7	429	1004.276199296497	26
7	438	1030.943152599568	27
7	458	1050.110245986447	28
7	466	1074.807943387107	29
7	484	1119.223715317434	30
7	515	1186.897939430832	31
7	524	1202.276890746692	32
7	534	1212.083298246598	33
7	548	1247.010455122903	34
7	561	1272.276126545475	35
7	566	1284.608791838486	36
7	613	1387.632399260903	37
7	637	1440.302525160037	38
7	646	1462.555294735073	39
7	669	1507.762238717833	40
7	692	1558.498177338543	41
7	704	1590.470735222049	42
7	723	1645.874418155944	43
7	738	1688.598277283569	44
7	753	1731.744765826945	45
7	759	1737.595552176882	46
7	764	1744.899527686484	47
7	767	1755.198627303625	48
7	784	1810.00658113624	49
7	793	1819.834207241802	50
7	827	1893.453134115984	51
7	864	1984.3531764257	52
7	871	1993.439770634155	53
7	891	2057.829292268349	54
7	898	2067.19127090892	55
7	910	2093.540604683601	56
7	916	2118.272495163052	57
7	921	2123.862463980623	58
7	947	2189.21250810744	59
7	972	2228.011412246586	60
7	983	2256.953625658148	61
7	989	2270.467559923692	62
7	996	2277.145134657383	63
7	1001	2292.356304954715	64
7	1012	2312.593632662147	65
7	1021	2345.24593224152	66
7	1024	2353.399464487008	67
7	1034	2372.427930054302	68
7	1044	2398.96845263205	69
7	1051	2404.701489116181	70
7	1060	2418.968326914021	71
7	1067	2427.010862944216	72
7	1074	2443.433928593672	73
7	1086	2480.621220096792	74
7	1091	2496.852317827315	75
8	141	369.375255317272	0
8	158	404.258574086135	0
8	171	415.788676091801	0
8	179	443.919676013075	0
8	185	470.546870107225	0
8	194	481.130885634458	0.698889794302
8	199	495.029730108993	0
8	202	500.513567475372	0
8	212	517.809300423735	0
8	215	521.192237302952	0
8	221	541.925002229654	0
8	227	567.695925539455	0
8	266	660.252978140038	0
8	276	709.366630100926	0
8	287	743.646848964604	0
8	290	756.458935907148	0
8	298	767.120392425216	0
8	317	789.815789590426	0
8	343	831.608480159845	0
8	356	863.970073409175	0
8	372	898.688180290939	0
8	383	910.944778126664	0
8	388	919.975552691652	7.91048605822
8	398	934.472084532428	0
8	411	959.834294333765	0
8	416	979.323410178137	16.289386224243
8	419	995.44102465029	0
8	429	1004.276199296497	0
8	438	1030.943152599568	0
8	458	1050.110245986447	0
8	466	1074.807943387107	0
8	471	1090.396941583769	3.902765803393
8	474	1108.432233355869	6.366707357259
8	484	1119.223715317434	0
8	489	1123.09579366783	1.205468921394
8	492	1127.912970362238	4.249490666001
8	515	1186.897939430832	0
8	518	1195.919517838663	3.967978618124
8	524	1202.276890746692	0
8	529	1209.463790687551	2.271696618039
8	534	1212.083298246598	0
8	548	1247.010455122903	0
8	561	1272.276126545475	0
8	566	1284.608791838486	0
8	613	1387.632399260903	0
8	617	1403.412013724196	0
8	622	1409.594488667959	0.278562183954
8	637	1440.302525160037	0
8	646	1462.555294735073	0
8	662	1489.486066902343	0
8	669	1507.762238717833	0
8	677	1533.228522866138	0
8	692	1558.498177338543	0
8	704	1590.470735222049	0
8	723	1645.874418155944	0
8	738	1688.598277283569	0
8	743	1709.190496183648	11.92079772211
8	753	1731.744765826945	0
8	759	1737.595552176882	0
8	764	1744.899527686484	0
8	767	1755.198627303625	0
8	776	1782.557906561692	0
8	784	1810.00658113624	0
8	793	1819.834207241802	0
8	803	1845.586409673488	0
8	809	1858.271437782732	0
8	812	1868.692586631094	0
8	827	1893.453134115984	0
8	864	1984.3531764257	0
8	871	1993.439770634155	0
8	878	2009.938237655829	4.523563340382
8	891	2057.829292268349	0
8	898	2067.19127090892	0
8	910	2093.540604683601	0
8	916	2118.272495163052	0
8	921	2123.862463980623	0
8	932	2151.71343808112	26.129823542419
8	939	2167.111765687112	18.760430136889
8	940	2177.367426053299	18.853740668375
8	941	2178.660938082772	18.918702241377
8	947	2189.21250810744	0
8	972	2228.011412246586	0
8	983	2256.953625658148	0
8	989	2270.467559923692	0
8	996	2277.145134657383	0
8	1001	2292.356304954715	0
8	1004	2298.701532792968	2.142107936311
8	1009	2305.241575243413	5.392770091168
8	1012	2312.593632662147	0
8	1021	2345.24593224152	0
8	1024	2353.399464487008	0
8	1034	2372.427930054302	0
8	1044	2398.96845263205	0
8	1051	2404.701489116181	0
8	1056	2411.854064320865	2.960188981353
8	1060	2418.968326914021	0
8	1067	2427.010862944216	0
8	1074	2443.433928593672	0
8	1086	2480.621220096792	0
8	1091	2496.852317827315	0
9	144	373.879184651171	19
9	161	409.135381695178	20
9	172	423.179376904119	21
9	182	457.121458760955	22
9	194	481.130885634458	23
9	195	483.742136880528	24
9	200	498.146837028424	25
9	203	503.757921901871	26
9	213	518.252669904668	27
9	218	528.484405229962	28
9	222	544.134234471488	29
9	230	574.948036761525	30
9	267	675.875334304131	31
9	279	717.064407110693	32
9	288	745.206958161511	33
9	293	759.218878497593	34
9	305	771.031482821439	35
9	324	807.057315871453	36
9	348	849.00663421975	37
9	357	865.949991548917	38
9	373	898.852074256528	39
9	388	919.975552691652	40
9	391	925.94036855499	41
9	401	936.384572202334	42
9	416	979.323410178137	43
9	417	991.711032248549	44
9	420	997.142452927342	45
9	432	1005.519157793383	46
9	445	1036.111676825833	47
9	461	1060.278131749906	48
9	471	1090.396941583769	49
9	474	1108.432233355869	50
9	475	1109.361159789568	51
9	489	1123.09579366783	52
9	492	1127.912970362238	53
9	493	1131.069132158194	54
9	518	1195.919517838663	55
9	519	1198.794792362476	56
9	529	1209.463790687551	57
9	532	1210.860461139053	58
9	535	1216.182506000487	59
9	549	1247.698722521208	60
9	562	1273.766078390264	61
9	569	1288.892359057906	62
9	614	1392.018907553345	63
9	622	1409.594488667959	64
9	623	1412.62236977107	65
9	642	1459.93913027083	66
9	647	1466.773412105189	67
9	665	1492.273731521513	68
9	670	1510.723206122173	69
9	680	1535.332410730452	70
9	699	1570.325920848247	71
9	705	1594.315512307498	72
9	724	1655.389201252372	73
9	743	1709.190496183648	74
9	744	1711.640150520499	75
9	754	1733.031343914108	76
9	760	1743.121164603029	77
9	765	1745.900434924241	78
9	768	1757.298332970767	79
9	777	1783.124719867562	80
9	789	1813.926207029395	81
9	796	1824.984692359989	82
9	804	1848.416350716367	83
9	810	1860.685323143484	84
9	817	1875.655322523061	85
9	828	1895.613010106632	86
9	865	1987.360030182384	87
9	878	2009.938237655829	88
9	879	2013.932538834711	89
9	896	2061.52128979755	90
9	901	2075.449876627895	91
9	911	2097.067418616707	92
9	919	2121.735152665867	93
9	932	2151.71343808112	94
9	939	2167.111765687112	95
9	940	2177.367426053299	96
9	941	2178.660938082772	97
9	942	2181.394420470128	98
9	956	2197.996519126697	99
9	973	2230.332948746516	100
9	984	2260.521012522931	101
9	992	2275.024637924153	102
9	999	2280.758591196012	103
9	1004	2298.701532792968	104
9	1009	2305.241575243413	105
9	1010	2312.196212062494	106
9	1013	2317.403906710574	107
9	1022	2347.195528567834	108
9	1025	2356.883130044317	109
9	1035	2375.804865220702	110
9	1045	2398.977733970859	111
9	1056	2411.854064320865	112
9	1057	2412.483263496037	113
9	1061	2422.731361348289	114
9	1068	2435.043486394581	115
9	1075	2453.327238660816	116
9	1087	2485.451134323738	117
10	144	373.879184651171	4.503929333899
10	161	409.135381695178	4.876807609043
10	172	423.179376904119	7.390700812318
10	182	457.121458760955	13.20178274788
10	194	481.130885634458	10.584015527233
10	195	483.742136880528	3.310141040372
10	200	498.146837028424	3.117106919431
10	203	503.757921901871	3.244354426499
10	213	518.252669904668	0.443369480933
10	218	528.484405229962	7.29216792701
10	222	544.134234471488	2.209232241834
10	230	574.948036761525	7.25211122207
10	267	675.875334304131	15.622356164093
10	279	717.064407110693	7.697777009767
10	288	745.206958161511	1.560109196907
10	293	759.218878497593	2.759942590445
10	305	771.031482821439	3.911090396223
10	324	807.057315871453	17.241526281027
10	348	849.00663421975	17.398154059905
10	357	865.949991548917	1.979918139742
10	373	898.852074256528	0.163893965589
10	388	919.975552691652	9.030774564988
10	391	925.94036855499	13.875301921558
10	401	936.384572202334	1.912487669906
10	416	979.323410178137	19.489115844372
10	417	991.711032248549	28.677008294655
10	420	997.142452927342	1.701428277052
10	432	1005.519157793383	1.242958496886
10	445	1036.111676825833	5.168524226265
10	461	1060.278131749906	10.167885763459
10	471	1090.396941583769	15.588998196662
10	474	1108.432233355869	21.938057575493
10	475	1109.361159789568	7.295633790958
10	489	1123.09579366783	3.872078350396
10	492	1127.912970362238	6.022645615802
10	493	1131.069132158194	7.405652461957
10	518	1195.919517838663	9.021578407831
10	519	1198.794792362476	6.843253141937
10	529	1209.463790687551	7.186899940859
10	532	1210.860461139053	3.668367069541
10	535	1216.182506000487	4.099207753889
10	549	1247.698722521208	0.688267398305
10	562	1273.766078390264	1.489951844789
10	569	1288.892359057906	4.28356721942
10	614	1392.018907553345	4.386508292442
10	622	1409.594488667959	6.182474943763
10	623	1412.62236977107	3.306443287065
10	642	1459.93913027083	19.636605110793
10	647	1466.773412105189	4.218117370116
10	665	1492.273731521513	2.78766461917
10	670	1510.723206122173	2.96096740434
10	680	1535.332410730452	2.103887864314
10	699	1570.325920848247	11.827743509704
10	705	1594.315512307498	3.844777085449
10	724	1655.389201252372	9.514783096428
10	743	1709.190496183648	20.592218900079
10	744	1711.640150520499	14.370452058961
10	754	1733.031343914108	1.286578087163
10	760	1743.121164603029	5.525612426147
10	765	1745.900434924241	1.000907237757
10	768	1757.298332970767	2.099705667142
10	777	1783.124719867562	0.56681330587
10	789	1813.926207029395	3.919625893155
10	796	1824.984692359989	5.150485118187
10	804	1848.416350716367	2.829941042879
10	810	1860.685323143484	2.413885360752
10	817	1875.655322523061	6.962735891967
10	828	1895.613010106632	2.159875990648
10	865	1987.360030182384	3.006853756684
10	878	2009.938237655829	16.498467021674
10	879	2013.932538834711	8.517864519264
10	896	2061.52128979755	3.691997529201
10	901	2075.449876627895	8.258605718975
10	911	2097.067418616707	3.526813933106
10	919	2121.735152665867	3.462657502815
10	932	2151.71343808112	27.850974100497
10	939	2167.111765687112	41.528151148411
10	940	2177.367426053299	29.016090503076
10	941	2178.660938082772	20.147252697848
10	942	2181.394420470128	21.652184628733
10	956	2197.996519126697	8.784011019257
10	973	2230.332948746516	2.32153649993
10	984	2260.521012522931	3.567386864783
10	992	2275.024637924153	4.557078000461
10	999	2280.758591196012	3.613456538629
10	1004	2298.701532792968	6.345227838253
10	1009	2305.241575243413	8.682150386756
10	1010	2312.196212062494	12.347406910249
10	1013	2317.403906710574	4.810274048427
10	1022	2347.195528567834	1.949596326314
10	1025	2356.883130044317	3.483665557309
10	1035	2375.804865220702	3.3769351664
10	1045	2398.977733970859	0.009281338809
10	1056	2411.854064320865	7.152575204684
10	1057	2412.483263496037	3.589388156525
10	1061	2422.731361348289	3.763034434268
10	1068	2435.043486394581	8.032623450365
10	1075	2453.327238660816	9.893310067144
10	1087	2485.451134323738	4.829914226946
11	1092	2500	0.0968
12	1092	2500	0.0468

