file 66900 1678524239                                           
version 2
run experiments_medium_game_mode1-1149-20230311-09:43:59-14436
attr configname experiments_medium_game_mode1
attr datetime 20230311-09:43:59
attr experiment experiments_medium_game_mode1
attr inifile omnetpp.ini
attr iterationvars "$0=6.5, $1=7, $2=0"
attr iterationvarsf 6.5,7,0-
attr measurement "$0=6.5, $1=7, $2=0"
attr network Network
attr processid 14436
attr repetition 9
attr replication #9
attr resultdir results
attr runnumber 1149
attr seedset 9
param *.boss.arrival_mean 20
param *.boss.service_mean 6.5
param *.minion.arrival_mean 10
param *.minion.service_mean 7
param *.player.recover_rate_x 0
param **.minion.arrival_distribution 0
param **.minion.service_distribution 0
param **.boss.arrival_distribution 0
param **.boss.service_distribution 0

vector 0 Network.player boss_defeated_stat:vector ETV
attr source signal_boss_defeated
vector 1 Network.player boss_jobs_queue_number_stat:vector ETV
attr source signal_boss_jobs_queue_number
vector 2 Network.player boss_response_time_stat:vector ETV
attr source signal_boss_response_time
vector 3 Network.player minion_waiting_time_stat:vector ETV
attr source signal_minion_waiting_time
vector 4 Network.player minion_jobs_number_stat:vector ETV
attr source signal_minion_jobs_number
vector 5 Network.player minion_jobs_queue_number_stat:vector ETV
attr source signal_minion_jobs_queue_number
vector 6 Network.player minion_defeated_stat:vector ETV
attr source signal_minion_defeated
vector 7 Network.player minion_response_time_stat:vector ETV
attr source signal_minion_response_time
vector 8 Network.player boss_jobs_number_stat:vector ETV
attr source signal_boss_jobs_number
vector 9 Network.player minion_recovered_stat:vector ETV
attr source signal_minion_recovered
vector 10 Network.player boss_waiting_time_stat:vector ETV
attr source signal_boss_waiting_time
vector 11 Network.player minion_throughput:vector ETV
attr source signal_minion_throughput
vector 12 Network.player boss_throughput:vector ETV
attr source signal_boss_throughput
0	2018 3121 124 1110 354.285235222609 2495.774646951921 116 10 125 7830 658590
1	5139 5932 124 1110 354.285235222609 2495.774646951921 231 0 3 124 236
2	11071 4529 124 1110 354.285235222609 2495.774646951921 116 0.246581622559 41.543533288402 1103.3366813477 17844.685014892
3	15600 11408 124 1111 354.285235222609 2497.886426037199 288 18.507320375482 314.07596044414 48313.320606957 9805599.8008753
4	27008 5729 126 1113 358.869815898493 2498.157739472885 216 5 37 5009 134687
5	32737 11373 126 1113 358.869815898493 2498.157739472885 428 4 36 9560 249596
6	44110 5808 127 1111 362.83136486153 2497.886426037199 212 29 240 28514 4629126
7	49918 8399 127 1111 362.83136486153 2497.886426037199 212 32.841375709214 320.21802025791 37345.124506118 7831813.2096028
8	58317 2953 132 1109 366.90674060042 2481.626538504285 115 1 4 177 357
9	61270 1994 132 1109 366.90674060042 2481.626538504285 75 6 80 3225 173825
10	63264 3598 132 1109 366.90674060042 2481.626538504285 115 0 29.880151075908 358.60683370896 4930.6487831512
11	66862 19 1114 1114 2500 2500 1 0.096 0.096 0.096 0.009216
12	66881 18 1114 1114 2500 2500 1 0.05 0.05 0.05 0.0025

