version 2
run experiments_medium_game_mode1-1793-20230311-09:46:31-17664
attr configname experiments_medium_game_mode1
attr datetime 20230311-09:46:31
attr experiment experiments_medium_game_mode1
attr inifile omnetpp.ini
attr iterationvars "$0=7.5, $1=7, $2=100"
attr iterationvarsf 7.5,7,100-
attr measurement "$0=7.5, $1=7, $2=100"
attr network Network
attr processid 17664
attr repetition 23
attr replication #23
attr resultdir results
attr runnumber 1793
attr seedset 23
param *.boss.arrival_mean 20
param *.boss.service_mean 7.5
param *.minion.arrival_mean 10
param *.minion.service_mean 7
param *.player.recover_rate_x 100
param **.minion.arrival_distribution 0
param **.minion.service_distribution 0
param **.boss.arrival_distribution 0
param **.boss.service_distribution 0

vector 0 Network.player minion_jobs_number_stat:vector ETV
attr source signal_minion_jobs_number
vector 1 Network.player minion_jobs_queue_number_stat:vector ETV
attr source signal_minion_jobs_queue_number
vector 2 Network.player boss_defeated_stat:vector ETV
attr source signal_boss_defeated
vector 3 Network.player boss_jobs_queue_number_stat:vector ETV
attr source signal_boss_jobs_queue_number
vector 4 Network.player boss_response_time_stat:vector ETV
attr source signal_boss_response_time
vector 5 Network.player minion_waiting_time_stat:vector ETV
attr source signal_minion_waiting_time
vector 6 Network.player minion_defeated_stat:vector ETV
attr source signal_minion_defeated
vector 7 Network.player minion_response_time_stat:vector ETV
attr source signal_minion_response_time
vector 8 Network.player boss_jobs_number_stat:vector ETV
attr source signal_boss_jobs_number
vector 9 Network.player minion_recovered_stat:vector ETV
attr source signal_minion_recovered
vector 10 Network.player boss_waiting_time_stat:vector ETV
attr source signal_boss_waiting_time
vector 11 Network.player minion_throughput:vector ETV
attr source signal_minion_throughput
vector 12 Network.player boss_throughput:vector ETV
attr source signal_boss_throughput
0	143	351.409402957577	21
0	150	370.777473116595	20
0	153	378.488229332204	21
0	157	391.078058889789	20
0	159	397.97888353961	21
0	162	413.278209427464	21
0	164	414.494555353125	22
0	169	434.906945211122	22
0	172	437.0912865596	23
0	174	438.966175237987	24
0	183	474.26066636912	20
0	187	480.065795011029	20
0	191	497.231086362742	21
0	198	512.07678505048	20
0	202	518.945557114013	20
0	212	544.217495540561	15
0	242	623.258149908015	10
0	244	627.605220061232	11
0	246	628.739338523454	12
0	248	630.00688768246	13
0	253	647.708836715768	14
0	255	652.384505225663	15
0	260	664.273518268876	16
0	263	666.288154121382	16
0	265	674.347348270964	17
0	267	674.425555408986	18
0	269	675.899256176373	19
0	275	700.760062923818	16
0	287	710.865589497593	14
0	290	724.828608809006	15
0	292	730.709122944328	16
0	294	731.848271043627	17
0	299	749.208050082966	16
0	303	760.492420943954	17
0	305	765.748292279184	18
0	313	773.490385942751	19
0	315	780.212356192121	20
0	317	787.654960188613	21
0	319	788.323488024282	22
0	323	797.85556685412	23
0	325	798.413781185913	24
0	327	811.294243343722	25
0	329	813.120722125919	26
0	331	813.826106259941	27
0	333	816.68276717622	28
0	338	822.977483888458	28
0	340	824.741693647157	29
0	344	830.931395268176	30
0	346	834.658069146762	31
0	357	852.005555808404	32
0	360	869.703654029265	33
0	362	874.30463029789	34
0	365	900.13962826778	34
0	368	904.889434806243	34
0	371	918.145831209117	34
0	373	918.838667467392	35
0	379	930.432183228779	32
0	383	934.017006555342	31
0	385	934.29913745827	32
0	394	954.82279783654	29
0	400	961.626707293467	29
0	405	968.280150071091	27
0	407	971.793722177781	28
0	409	974.151422278521	29
0	412	976.9459914137	29
0	414	978.394934346698	30
0	417	986.421336995351	30
0	419	987.326568608815	31
0	424	1001.036176797824	31
0	430	1016.748146059837	32
0	433	1020.510218106742	32
0	440	1033.999585119216	33
0	443	1043.756563453189	34
0	445	1051.620915736899	35
0	459	1088.408374112451	36
0	461	1090.63607194241	37
0	463	1095.507883561552	38
0	466	1108.151485015426	38
0	472	1119.147686660366	35
0	474	1119.446801457123	36
0	478	1123.425782964743	37
0	481	1126.517568189753	38
0	483	1131.053028010706	39
0	486	1151.019326435675	39
0	488	1152.885612349416	40
0	496	1169.793818019991	38
0	498	1172.430706127412	39
0	502	1176.785421987816	40
0	505	1183.600650372988	41
0	511	1198.630166700021	42
0	519	1232.03765163287	42
0	526	1249.526440271864	42
0	532	1254.309630554597	43
0	536	1263.305969080765	44
0	540	1267.464390136375	45
0	545	1282.299306329868	46
0	550	1287.698133590899	47
0	554	1293.601948324288	48
0	562	1323.21393942098	49
0	565	1329.212402018474	50
0	581	1363.610044111697	50
0	587	1369.946213549631	51
0	592	1382.460755315621	52
0	595	1384.501614716769	53
0	597	1387.20796223363	54
0	599	1387.325471994752	55
0	601	1393.722248568077	56
0	609	1425.17509749129	57
0	611	1425.196467057224	58
0	618	1453.829994229033	54
0	626	1490.750988451092	49
0	628	1491.240197052635	50
0	630	1496.543116832561	51
0	638	1525.251530865329	51
0	640	1526.464473774889	52
0	645	1534.15076374501	53
0	647	1538.820365119803	54
0	649	1540.897024957448	55
0	653	1561.95395168398	55
0	655	1565.233562054768	56
0	657	1566.62855413384	57
0	660	1575.187227612997	57
0	667	1588.772610919627	56
0	671	1595.274226142937	57
0	674	1601.208194458292	58
0	681	1622.917714708643	54
0	683	1623.024578515748	55
0	685	1625.660580289895	56
0	687	1633.273764316155	57
0	706	1678.424632632454	50
0	717	1697.969204775388	49
0	722	1707.218097800071	49
0	725	1712.437322052799	49
0	733	1734.191289418866	49
0	738	1740.94459471947	48
0	743	1746.967370311295	49
0	750	1757.017947266365	48
0	753	1768.826021958188	48
0	756	1771.13144291321	48
0	760	1800.299456396917	49
0	762	1802.158581269757	50
0	764	1805.623758910247	51
0	766	1806.711460360698	52
0	773	1817.133171535299	52
0	777	1825.812863346784	51
0	781	1827.864274009818	52
0	785	1833.258109085254	52
0	789	1838.116738802052	53
0	791	1848.699091873847	54
0	793	1848.942959488875	55
0	796	1855.407628382954	56
0	799	1863.515189732285	56
0	801	1867.17014373062	57
0	804	1883.03084663504	57
0	810	1918.146279260694	57
0	813	1924.655666632118	57
0	816	1925.505450703021	57
0	818	1925.829975339095	58
0	822	1935.226545363888	57
0	824	1935.58879072287	58
0	826	1935.70359640184	59
0	839	1977.715694456812	52
0	844	1999.230398836984	50
0	849	2011.407925776068	51
0	855	2034.806196267955	48
0	860	2055.555497537374	48
0	868	2089.775272916261	47
0	872	2090.88877186885	48
0	874	2095.110096941955	49
0	877	2102.439649176249	50
0	880	2106.021876466934	50
0	882	2109.291786164653	51
0	884	2114.395459772272	52
0	886	2115.168904883532	53
0	888	2116.267823271359	54
0	892	2122.901772868527	55
0	894	2123.062148492924	56
0	904	2148.457985402315	57
0	906	2151.828213339695	58
0	910	2160.367110380213	59
0	914	2162.102240589715	60
0	916	2162.187808588662	61
0	918	2166.088356402654	62
0	922	2189.531676080038	62
0	927	2194.994834075687	63
0	929	2197.694611454535	64
0	937	2209.48532261622	62
0	939	2211.311621876526	63
0	941	2221.220665968171	64
0	947	2243.478928328736	63
0	949	2246.199873964957	64
0	951	2250.397060634754	65
0	959	2260.291567120752	64
0	963	2273.128379691331	63
0	967	2278.94146497112	62
0	970	2283.518189796709	62
0	973	2292.05464674669	62
0	976	2322.682949916442	62
0	988	2365.592731081332	56
0	990	2367.633303705858	57
0	1001	2394.973432391493	55
0	1005	2396.233325765036	56
0	1007	2396.432639650882	57
0	1013	2406.724507506172	58
0	1015	2415.544886743746	59
0	1017	2427.390809023039	60
0	1019	2432.409733102057	61
0	1031	2460.200756621562	62
0	1033	2460.798367668201	63
0	1038	2463.437583920972	64
0	1043	2468.036643076955	65
0	1045	2468.171923063472	66
0	1047	2469.518480614558	67
0	1049	2483.984285460263	68
0	1051	2485.431446660174	69
0	1057	2495.212845808239	70
1	143	351.409402957577	20
1	145	364.979232014003	20
1	146	366.859863954183	19
1	150	370.777473116595	19
1	153	378.488229332204	20
1	154	386.055180957421	20
1	155	389.824363322321	19
1	157	391.078058889789	19
1	159	397.97888353961	20
1	160	405.00074536764	20
1	162	413.278209427464	20
1	164	414.494555353125	21
1	165	418.0519488233	21
1	169	434.906945211122	21
1	172	437.0912865596	22
1	174	438.966175237987	23
1	175	440.663095091103	23
1	176	445.567075908674	22
1	177	450.071691393414	21
1	178	457.811512117906	20
1	179	467.574367517992	19
1	183	474.26066636912	19
1	185	477.388515556024	19
1	187	480.065795011029	19
1	191	497.231086362742	20
1	193	506.777967035853	20
1	194	507.313640044671	19
1	198	512.07678505048	19
1	200	518.827894835637	19
1	202	518.945557114013	19
1	203	520.054443933518	19
1	204	520.607583968539	18
1	205	527.423021206364	17
1	206	528.206427603978	16
1	207	534.638306933096	15
1	208	535.061427088078	14
1	212	544.217495540561	14
1	217	554.935917797721	14
1	218	555.314493249233	13
1	231	591.683172420979	12
1	232	596.238750497584	11
1	233	601.127926179728	10
1	234	601.862500406889	9
1	242	623.258149908015	9
1	244	627.605220061232	10
1	246	628.739338523454	11
1	248	630.00688768246	12
1	253	647.708836715768	13
1	255	652.384505225663	14
1	260	664.273518268876	15
1	261	664.620943873246	15
1	263	666.288154121382	15
1	265	674.347348270964	16
1	267	674.425555408986	17
1	269	675.899256176373	18
1	270	677.201910319899	18
1	271	687.973855014863	17
1	272	688.05856165682	16
1	273	700.33105331207	15
1	275	700.760062923818	15
1	276	702.278168306507	15
1	277	704.402241375869	14
1	278	704.750432066747	13
1	287	710.865589497593	13
1	290	724.828608809006	14
1	292	730.709122944328	15
1	294	731.848271043627	16
1	296	737.015774571974	16
1	297	747.573831157294	15
1	299	749.208050082966	15
1	303	760.492420943954	16
1	305	765.748292279184	17
1	313	773.490385942751	18
1	315	780.212356192121	19
1	317	787.654960188613	20
1	319	788.323488024282	21
1	323	797.85556685412	22
1	325	798.413781185913	23
1	327	811.294243343722	24
1	329	813.120722125919	25
1	331	813.826106259941	26
1	333	816.68276717622	27
1	336	821.894983742209	27
1	338	822.977483888458	27
1	340	824.741693647157	28
1	344	830.931395268176	29
1	346	834.658069146762	30
1	357	852.005555808404	31
1	360	869.703654029265	32
1	362	874.30463029789	33
1	363	874.626469292228	33
1	365	900.13962826778	33
1	366	904.219265690677	33
1	368	904.889434806243	33
1	369	917.222873584716	33
1	371	918.145831209117	33
1	373	918.838667467392	34
1	374	918.856327386707	34
1	375	921.075384583419	33
1	376	921.935561595546	32
1	377	926.47954348708	31
1	379	930.432183228779	31
1	380	931.152326029872	31
1	381	931.709270253229	30
1	383	934.017006555342	30
1	385	934.29913745827	31
1	386	936.25384431774	31
1	387	939.605184749035	30
1	391	949.125993269244	29
1	392	954.130106766649	28
1	394	954.82279783654	28
1	395	955.701310788922	28
1	400	961.626707293467	28
1	401	963.556987479962	28
1	402	964.647300400836	27
1	403	966.933316189649	26
1	405	968.280150071091	26
1	407	971.793722177781	27
1	409	974.151422278521	28
1	410	975.849809463251	28
1	412	976.9459914137	28
1	414	978.394934346698	29
1	415	978.598777685102	29
1	417	986.421336995351	29
1	419	987.326568608815	30
1	420	990.299335807102	30
1	424	1001.036176797824	30
1	430	1016.748146059837	31
1	431	1017.645051004212	31
1	433	1020.510218106742	31
1	440	1033.999585119216	32
1	443	1043.756563453189	33
1	445	1051.620915736899	34
1	459	1088.408374112451	35
1	461	1090.63607194241	36
1	463	1095.507883561552	37
1	464	1099.394232648493	37
1	466	1108.151485015426	37
1	467	1110.286155915593	37
1	468	1114.53175127727	36
1	469	1114.558190600228	35
1	470	1118.945925912549	34
1	472	1119.147686660366	34
1	474	1119.446801457123	35
1	478	1123.425782964743	36
1	481	1126.517568189753	37
1	483	1131.053028010706	38
1	484	1142.119065087977	38
1	486	1151.019326435675	38
1	488	1152.885612349416	39
1	492	1163.63158909923	39
1	493	1164.576089018627	38
1	494	1165.935115300081	37
1	496	1169.793818019991	37
1	498	1172.430706127412	38
1	502	1176.785421987816	39
1	505	1183.600650372988	40
1	511	1198.630166700021	41
1	517	1226.100042665993	41
1	519	1232.03765163287	41
1	520	1233.512276959914	41
1	526	1249.526440271864	41
1	532	1254.309630554597	42
1	536	1263.305969080765	43
1	540	1267.464390136375	44
1	545	1282.299306329868	45
1	550	1287.698133590899	46
1	554	1293.601948324288	47
1	562	1323.21393942098	48
1	565	1329.212402018474	49
1	569	1332.046414009258	49
1	581	1363.610044111697	49
1	587	1369.946213549631	50
1	592	1382.460755315621	51
1	595	1384.501614716769	52
1	597	1387.20796223363	53
1	599	1387.325471994752	54
1	601	1393.722248568077	55
1	609	1425.17509749129	56
1	611	1425.196467057224	57
1	612	1429.389530792456	57
1	613	1442.718744521465	56
1	614	1442.729060547624	55
1	615	1445.516781672662	54
1	616	1445.812387579299	53
1	618	1453.829994229033	53
1	619	1464.730863014098	53
1	620	1468.56892448537	52
1	621	1470.259021701422	51
1	622	1474.500039804326	50
1	623	1483.425367371903	49
1	624	1490.067168014455	48
1	626	1490.750988451092	48
1	628	1491.240197052635	49
1	630	1496.543116832561	50
1	631	1502.571859556825	50
1	638	1525.251530865329	50
1	640	1526.464473774889	51
1	645	1534.15076374501	52
1	647	1538.820365119803	53
1	649	1540.897024957448	54
1	651	1560.976056494831	54
1	653	1561.95395168398	54
1	655	1565.233562054768	55
1	657	1566.62855413384	56
1	658	1569.4796969391	56
1	660	1575.187227612997	56
1	661	1577.441121293197	56
1	662	1578.121032853129	55
1	667	1588.772610919627	55
1	671	1595.274226142937	56
1	674	1601.208194458292	57
1	675	1603.596023636892	57
1	676	1605.205126243732	56
1	677	1611.756657791133	55
1	678	1611.847229586434	54
1	679	1620.341877998369	53
1	681	1622.917714708643	53
1	683	1623.024578515748	54
1	685	1625.660580289895	55
1	687	1633.273764316155	56
1	691	1640.579119218175	56
1	692	1641.867630965262	55
1	693	1645.614973708265	54
1	694	1645.830973626079	53
1	701	1668.383003505936	52
1	702	1669.76507558546	51
1	703	1673.443062319365	50
1	704	1675.46650201582	49
1	706	1678.424632632454	49
1	707	1679.545991511685	49
1	711	1682.285214434641	48
1	717	1697.969204775388	48
1	720	1705.325352512867	48
1	722	1707.218097800071	48
1	723	1707.655849151661	48
1	725	1712.437322052799	48
1	726	1714.483749713883	48
1	733	1734.191289418866	48
1	735	1737.617962135484	48
1	736	1739.21542214953	47
1	738	1740.94459471947	47
1	743	1746.967370311295	48
1	747	1755.158679475805	48
1	748	1756.488001932284	47
1	750	1757.017947266365	47
1	751	1759.94860947676	47
1	753	1768.826021958188	47
1	754	1770.30058278044	47
1	756	1771.13144291321	47
1	760	1800.299456396917	48
1	762	1802.158581269757	49
1	764	1805.623758910247	50
1	766	1806.711460360698	51
1	771	1812.628238396879	51
1	773	1817.133171535299	51
1	774	1822.387393011113	51
1	775	1824.089683720402	50
1	777	1825.812863346784	50
1	781	1827.864274009818	51
1	783	1832.561430181662	51
1	785	1833.258109085254	51
1	789	1838.116738802052	52
1	791	1848.699091873847	53
1	793	1848.942959488875	54
1	796	1855.407628382954	55
1	797	1860.708518556706	55
1	799	1863.515189732285	55
1	801	1867.17014373062	56
1	802	1871.80794049822	56
1	804	1883.03084663504	56
1	805	1887.546446225809	56
1	810	1918.146279260694	56
1	811	1920.41990803661	56
1	813	1924.655666632118	56
1	814	1925.182196887948	56
1	816	1925.505450703021	56
1	818	1925.829975339095	57
1	819	1927.729169251813	57
1	820	1934.307767074664	56
1	822	1935.226545363888	56
1	824	1935.58879072287	57
1	826	1935.70359640184	58
1	827	1940.171316454729	58
1	831	1957.02714676571	57
1	832	1957.314680235871	56
1	833	1957.465488161835	55
1	834	1970.784187778435	54
1	835	1972.038845636838	53
1	836	1975.990072653131	52
1	837	1976.071808503408	51
1	839	1977.715694456812	51
1	840	1989.574297997178	51
1	841	1989.682141964439	50
1	842	1990.584193072311	49
1	844	1999.230398836984	49
1	849	2011.407925776068	50
1	850	2011.720338532444	50
1	851	2013.995354194285	49
1	852	2014.533598192923	48
1	853	2026.436880430869	47
1	855	2034.806196267955	47
1	856	2045.387609649492	47
1	860	2055.555497537374	47
1	862	2074.276441218842	47
1	866	2074.953337179954	46
1	868	2089.775272916261	46
1	872	2090.88877186885	47
1	874	2095.110096941955	48
1	877	2102.439649176249	49
1	878	2105.115040087252	49
1	880	2106.021876466934	49
1	882	2109.291786164653	50
1	884	2114.395459772272	51
1	886	2115.168904883532	52
1	888	2116.267823271359	53
1	892	2122.901772868527	54
1	894	2123.062148492924	55
1	904	2148.457985402315	56
1	906	2151.828213339695	57
1	910	2160.367110380213	58
1	914	2162.102240589715	59
1	916	2162.187808588662	60
1	918	2166.088356402654	61
1	920	2188.918487408048	61
1	922	2189.531676080038	61
1	927	2194.994834075687	62
1	929	2197.694611454535	63
1	930	2202.394526314035	63
1	931	2202.402623358371	62
1	935	2208.834012057831	61
1	937	2209.48532261622	61
1	939	2211.311621876526	62
1	941	2221.220665968171	63
1	942	2235.770436001874	63
1	943	2239.626875046909	62
1	947	2243.478928328736	62
1	949	2246.199873964957	63
1	951	2250.397060634754	64
1	953	2252.013226403436	64
1	957	2259.993372635393	63
1	959	2260.291567120752	63
1	960	2266.108386370388	63
1	961	2266.774138387008	62
1	963	2273.128379691331	62
1	964	2276.570688014142	62
1	965	2277.95886459809	61
1	967	2278.94146497112	61
1	968	2283.487539357617	61
1	970	2283.518189796709	61
1	971	2284.635616331375	61
1	973	2292.05464674669	61
1	974	2320.367255127833	61
1	976	2322.682949916442	61
1	977	2324.852286126459	61
1	978	2334.467992691814	60
1	979	2334.715494288549	59
1	980	2336.852574485685	58
1	981	2348.094790613079	57
1	985	2359.656524403132	56
1	986	2362.926416643003	55
1	988	2365.592731081332	55
1	990	2367.633303705858	56
1	991	2368.95317280141	56
1	995	2371.878872203159	55
1	996	2381.029149206301	54
1	1001	2394.973432391493	54
1	1005	2396.233325765036	55
1	1007	2396.432639650882	56
1	1013	2406.724507506172	57
1	1015	2415.544886743746	58
1	1017	2427.390809023039	59
1	1019	2432.409733102057	60
1	1031	2460.200756621562	61
1	1033	2460.798367668201	62
1	1038	2463.437583920972	63
1	1043	2468.036643076955	64
1	1045	2468.171923063472	65
1	1047	2469.518480614558	66
1	1049	2483.984285460263	67
1	1051	2485.431446660174	68
1	1057	2495.212845808239	69
2	144	363.588044244919	19
2	151	374.885342243114	20
2	170	437.02112510291	21
2	184	476.286639676186	22
2	192	505.344593510225	23
2	199	518.332872888665	24
2	213	545.054108380203	25
2	216	553.392106752728	26
2	221	563.134391840077	27
2	224	573.480962566131	28
2	227	578.320353567084	29
2	230	588.0448745387	30
2	251	636.702881163065	31
2	256	652.442943383049	32
2	257	654.661692126444	33
2	258	664.265621033098	34
2	285	709.510594262068	35
2	288	722.415166445742	36
2	295	735.682403885716	37
2	308	768.878115308594	38
2	311	772.530056056814	39
2	334	819.238380162337	40
2	335	821.215279521979	41
2	351	841.299874747	42
2	354	846.994072086175	43
2	355	849.412468623886	44
2	358	852.236495800782	45
2	390	947.786575235742	46
2	398	960.264913737633	47
2	427	1013.828010642505	48
2	428	1016.535850066396	49
2	438	1030.669268406992	50
2	441	1042.737348329643	51
2	452	1062.472160903302	52
2	453	1064.770907837586	53
2	454	1065.433025955972	54
2	457	1083.112980989402	55
2	479	1123.788082321393	56
2	491	1162.676417915338	57
2	503	1183.289614395909	58
2	512	1218.809539899134	59
2	515	1222.006252241705	60
2	516	1225.232197336847	61
2	541	1268.183060287214	62
2	546	1285.912056596331	63
2	557	1298.943165459507	64
2	558	1302.372419731525	65
2	559	1314.033727226224	66
2	560	1317.316650802625	67
2	563	1325.277665317313	68
2	566	1329.810772018341	69
2	567	1331.519388162418	70
2	568	1331.558506728256	71
2	588	1371.455668052975	72
2	589	1378.045914808633	73
2	590	1382.138504158333	74
2	593	1382.64226584377	75
2	602	1395.299262700268	76
2	603	1396.462851588733	77
2	606	1420.51952083777	78
2	607	1423.3368360878	79
2	634	1507.185038757095	80
2	641	1528.981013910818	81
2	650	1553.51332528238	82
2	665	1588.000343075161	83
2	672	1596.131886818339	84
2	690	1638.912267011398	85
2	697	1659.366141431841	86
2	700	1668.137087310601	87
2	710	1680.610631655482	88
2	718	1699.546065955363	89
2	719	1700.513813724929	90
2	731	1734.147431103509	91
2	734	1735.891935610585	92
2	741	1746.681327588371	93
2	746	1751.328037043908	94
2	767	1807.130027505372	95
2	770	1810.123583787886	96
2	782	1830.287467366668	97
2	794	1855.098315127563	98
2	808	1889.935523133103	99
2	830	1953.209151346311	100
2	847	2011.396244965823	101
2	861	2063.642635577983	102
2	865	2074.758131406737	103
2	875	2098.488219632306	104
2	899	2143.372901226021	105
2	902	2148.024701862951	106
2	907	2156.900198198265	107
2	908	2158.335219562411	108
2	919	2177.772159926796	109
2	925	2193.187438013844	110
2	934	2205.618468045813	111
2	952	2251.233163492881	112
2	956	2259.429605360793	113
2	984	2358.136454469361	114
2	994	2370.174921670373	115
2	999	2389.543426026063	116
2	1026	2438.855542825815	117
2	1027	2448.368750652806	118
2	1028	2449.201865417503	119
2	1029	2457.747444786712	120
2	1036	2462.875135793082	121
2	1039	2465.475492434377	122
2	1052	2491.63573122382	123
2	1053	2491.847464733178	124
3	144	363.588044244919	0
3	148	370.280462470171	0
3	151	374.885342243114	0
3	167	431.695952669617	0
3	170	437.02112510291	0
3	181	474.147170758762	0
3	184	476.286639676186	0
3	189	481.480691986513	0
3	192	505.344593510225	0
3	196	510.24761767968	0
3	199	518.332872888665	0
3	210	539.94106415391	0
3	213	545.054108380203	0
3	215	550.161117734889	0
3	216	553.392106752728	0
3	220	557.673753371508	0
3	221	563.134391840077	0
3	223	567.956109043973	0
3	224	573.480962566131	0
3	226	575.15768250753	0
3	227	578.320353567084	0
3	229	580.804250949928	0
3	230	588.0448745387	0
3	236	610.465880879532	0
3	238	612.633669047796	1
3	240	621.078268320571	2
3	250	631.86060202898	3
3	251	636.702881163065	3
3	256	652.442943383049	2
3	257	654.661692126444	1
3	258	664.265621033098	0
3	280	705.638349697495	0
3	282	706.665987554936	1
3	284	707.236119425818	2
3	285	709.510594262068	2
3	288	722.415166445742	1
3	295	735.682403885716	0
3	301	751.530606146162	0
3	307	766.408258009834	1
3	308	768.878115308594	1
3	310	771.611960097243	1
3	311	772.530056056814	1
3	321	795.70823994459	1
3	334	819.238380162337	1
3	335	821.215279521979	0
3	342	828.587694700615	0
3	348	835.695198389493	1
3	350	841.24604760731	2
3	351	841.299874747	2
3	353	842.50405940262	2
3	354	846.994072086175	2
3	355	849.412468623886	1
3	358	852.236495800782	0
3	389	940.112090574546	0
3	390	947.786575235742	0
3	397	959.878403606532	0
3	398	960.264913737633	0
3	422	995.112056211267	0
3	426	1009.65256758039	1
3	427	1013.828010642505	1
3	428	1016.535850066396	0
3	435	1021.842623488271	0
3	437	1022.186221008682	1
3	438	1030.669268406992	1
3	441	1042.737348329643	0
3	447	1054.979966281205	0
3	449	1058.081305622748	1
3	451	1061.030308005097	2
3	452	1062.472160903302	2
3	453	1064.770907837586	1
3	454	1065.433025955972	0
3	456	1081.310136359704	0
3	457	1083.112980989402	0
3	476	1121.105252247653	0
3	479	1123.788082321393	0
3	490	1158.332650760421	0
3	491	1162.676417915338	0
3	500	1174.615342786981	0
3	503	1183.289614395909	0
3	507	1185.093400042341	0
3	509	1195.169701464507	1
3	512	1218.809539899134	1
3	514	1221.399061453619	1
3	515	1222.006252241705	1
3	516	1225.232197336847	0
3	522	1238.355828248703	0
3	524	1242.986426439704	1
3	528	1252.324057016316	2
3	530	1252.81041227046	3
3	534	1262.62134059803	4
3	538	1265.720375963125	5
3	541	1268.183060287214	5
3	543	1274.056234699699	5
3	546	1285.912056596331	5
3	548	1287.083915815885	5
3	552	1290.607169038882	6
3	556	1295.126534913334	7
3	557	1298.943165459507	7
3	558	1302.372419731525	6
3	559	1314.033727226224	5
3	560	1317.316650802625	4
3	563	1325.277665317313	3
3	566	1329.810772018341	2
3	567	1331.519388162418	1
3	568	1331.558506728256	0
3	571	1338.251262635238	0
3	573	1344.542083468712	1
3	575	1356.591721693122	2
3	577	1356.936211215667	3
3	579	1362.588580326634	4
3	583	1368.062489851398	5
3	585	1369.039045075951	6
3	588	1371.455668052975	6
3	589	1378.045914808633	5
3	590	1382.138504158333	4
3	593	1382.64226584377	3
3	602	1395.299262700268	2
3	603	1396.462851588733	1
3	605	1410.890176308349	1
3	606	1420.51952083777	1
3	607	1423.3368360878	0
3	633	1503.835474818698	0
3	634	1507.185038757095	0
3	636	1510.056245344328	0
3	641	1528.981013910818	0
3	643	1533.178873992729	0
3	650	1553.51332528238	0
3	664	1585.545449449645	0
3	665	1588.000343075161	0
3	669	1589.129463026233	0
3	672	1596.131886818339	0
3	689	1636.874992284231	0
3	690	1638.912267011398	0
3	696	1656.129627720702	0
3	697	1659.366141431841	0
3	699	1663.277407136755	0
3	700	1668.137087310601	0
3	709	1680.310452974527	0
3	710	1680.610631655482	0
3	713	1691.970041177819	0
3	715	1696.58688266278	1
3	718	1699.546065955363	1
3	719	1700.513813724929	0
3	728	1719.818776411279	0
3	730	1727.169572722012	1
3	731	1734.147431103509	1
3	734	1735.891935610585	0
3	740	1742.98295227048	0
3	741	1746.681327588371	0
3	745	1747.946618758475	0
3	746	1751.328037043908	0
3	758	1794.976383704355	0
3	767	1807.130027505372	0
3	769	1807.995699510076	0
3	770	1810.123583787886	0
3	779	1827.469922869166	0
3	782	1830.287467366668	0
3	787	1835.994284715025	0
3	794	1855.098315127563	0
3	807	1889.088743691529	0
3	808	1889.935523133103	0
3	829	1946.729588832254	0
3	830	1953.209151346311	0
3	846	2004.62429793366	0
3	847	2011.396244965823	0
3	858	2054.459779923515	0
3	861	2063.642635577983	0
3	864	2074.413488317576	0
3	865	2074.758131406737	0
3	870	2090.254935787689	0
3	875	2098.488219632306	0
3	890	2118.376201383707	0
3	896	2123.529966614318	1
3	898	2128.125391186792	2
3	899	2143.372901226021	2
3	901	2147.792189658182	2
3	902	2148.024701862951	2
3	907	2156.900198198265	1
3	908	2158.335219562411	0
3	912	2160.434193921626	0
3	919	2177.772159926796	0
3	924	2192.585280357836	0
3	925	2193.187438013844	0
3	933	2205.482816027784	0
3	934	2205.618468045813	0
3	945	2242.158972086936	0
3	952	2251.233163492881	0
3	955	2252.357253508174	0
3	956	2259.429605360793	0
3	983	2349.783810657802	0
3	984	2358.136454469361	0
3	993	2369.802429443491	0
3	994	2370.174921670373	0
3	998	2381.692791746694	0
3	999	2389.543426026063	0
3	1003	2395.775553395185	0
3	1009	2397.022295827693	1
3	1011	2397.996189404248	2
3	1021	2433.487883053021	3
3	1023	2433.832617070752	4
3	1025	2437.057922805673	5
3	1026	2438.855542825815	5
3	1027	2448.368750652806	4
3	1028	2449.201865417503	3
3	1029	2457.747444786712	2
3	1035	2461.518468346402	2
3	1036	2462.875135793082	2
3	1039	2465.475492434377	1
3	1041	2465.729271570205	1
3	1052	2491.63573122382	1
3	1053	2491.847464733178	0
3	1055	2493.276094709187	0
4	144	363.588044244919	27.588997463981
4	151	374.885342243114	4.604879772943
4	170	437.02112510291	5.325172433293
4	184	476.286639676186	2.139468917424
4	192	505.344593510225	23.863901523712
4	199	518.332872888665	8.085255208985
4	213	545.054108380203	5.113044226293
4	216	553.392106752728	3.230989017839
4	221	563.134391840077	5.460638468569
4	224	573.480962566131	5.524853522158
4	227	578.320353567084	3.162671059554
4	230	588.0448745387	7.240623588772
4	251	636.702881163065	26.237000283533
4	256	652.442943383049	39.809274335253
4	257	654.661692126444	33.583423805873
4	258	664.265621033098	32.405019004118
4	285	709.510594262068	3.872244564573
4	288	722.415166445742	15.749178890806
4	295	735.682403885716	28.446284459898
4	308	768.878115308594	17.347509162432
4	311	772.530056056814	6.12179804698
4	334	819.238380162337	47.626420065094
4	335	821.215279521979	25.507039577389
4	351	841.299874747	12.712180046385
4	354	846.994072086175	11.298873696682
4	355	849.412468623886	8.166421016576
4	358	852.236495800782	9.732436398162
4	390	947.786575235742	7.674484661196
4	398	960.264913737633	0.386510131101
4	427	1013.828010642505	18.715954431238
4	428	1016.535850066396	6.883282486006
4	438	1030.669268406992	8.826644918721
4	441	1042.737348329643	20.551127320961
4	452	1062.472160903302	7.492194622097
4	453	1064.770907837586	6.689602214838
4	454	1065.433025955972	4.402717950875
4	457	1083.112980989402	1.802844629698
4	479	1123.788082321393	2.68283007374
4	491	1162.676417915338	4.343767154917
4	503	1183.289614395909	8.674271608928
4	512	1218.809539899134	33.716139856793
4	515	1222.006252241705	26.836550777198
4	516	1225.232197336847	3.833135883228
4	541	1268.183060287214	29.827232038511
4	546	1285.912056596331	42.925630156627
4	557	1298.943165459507	46.619108443191
4	558	1302.372419731525	49.562007461065
4	559	1314.033727226224	51.412386628194
4	560	1317.316650802625	51.5962748395
4	563	1325.277665317313	51.221430617614
4	566	1329.810772018341	42.726856202456
4	567	1331.519388162418	40.912219123536
4	568	1331.558506728256	36.431971814922
4	588	1371.455668052975	33.204405417737
4	589	1378.045914808633	33.503831339921
4	590	1382.138504158333	25.546782465211
4	593	1382.64226584377	25.706054628103
4	602	1395.299262700268	32.710682373634
4	603	1396.462851588733	28.400361737335
4	606	1420.51952083777	51.480475761819
4	607	1423.3368360878	12.446659779451
4	634	1507.185038757095	3.349563938397
4	641	1528.981013910818	18.92476856649
4	650	1553.51332528238	20.334451289651
4	665	1588.000343075161	2.454893625516
4	672	1596.131886818339	7.002423792106
4	690	1638.912267011398	2.037274727167
4	697	1659.366141431841	3.236513711139
4	700	1668.137087310601	4.859680173846
4	710	1680.610631655482	0.300178680955
4	718	1699.546065955363	7.576024777544
4	719	1700.513813724929	3.926931062149
4	731	1734.147431103509	14.32865469223
4	734	1735.891935610585	8.722362888573
4	741	1746.681327588371	3.698375317891
4	746	1751.328037043908	3.381418285433
4	767	1807.130027505372	12.153643801017
4	770	1810.123583787886	2.12788427781
4	782	1830.287467366668	2.817544497502
4	794	1855.098315127563	19.104030412538
4	808	1889.935523133103	0.846779441574
4	830	1953.209151346311	6.479562514057
4	847	2011.396244965823	6.771947032163
4	861	2063.642635577983	9.182855654468
4	865	2074.758131406737	0.344643089161
4	875	2098.488219632306	8.233283844617
4	899	2143.372901226021	24.996699842314
4	902	2148.024701862951	24.494735248633
4	907	2156.900198198265	28.774807011473
4	908	2158.335219562411	10.543029904229
4	919	2177.772159926796	17.33796600517
4	925	2193.187438013844	0.602157656008
4	934	2205.618468045813	0.135652018029
4	952	2251.233163492881	9.074191405945
4	956	2259.429605360793	7.072351852619
4	984	2358.136454469361	8.352643811559
4	994	2370.174921670373	0.372492226882
4	999	2389.543426026063	7.850634279369
4	1026	2438.855542825815	43.07998943063
4	1027	2448.368750652806	51.346454825113
4	1028	2449.201865417503	51.205676013255
4	1029	2457.747444786712	24.259561733691
4	1036	2462.875135793082	29.04251872233
4	1039	2465.475492434377	28.417569628704
4	1052	2491.63573122382	30.117262877418
4	1053	2491.847464733178	26.118193162973
5	144	363.588044244919	156.90041239885
5	145	364.979232014003	145.64449874923
5	146	366.859863954183	141.61602303501
5	151	374.885342243114	138.21521155948
5	154	386.055180957421	142.46367871112
5	155	389.824363322321	137.747702148
5	160	405.00074536764	149.47777247247
5	165	418.0519488233	149.59625172907
5	170	437.02112510291	150.53305166977
5	175	440.663095091103	140.74264094935
5	176	445.567075908674	139.71474219872
5	177	450.071691393414	141.3547110058
5	178	457.811512117906	147.91841743073
5	179	467.574367517992	155.44261617151
5	184	476.286639676186	156.0389765987
5	185	477.388515556024	155.04599207742
5	192	505.344593510225	179.93216395125
5	193	506.777967035853	177.43310379459
5	194	507.313640044671	171.31459326373
5	199	518.332872888665	172.92912641513
5	200	518.827894835637	167.41849187806
5	203	520.054443933518	149.77398146335
5	204	520.607583968539	149.83011085194
5	205	527.423021206364	148.93479187416
5	206	528.206427603978	137.12836871419
5	207	534.638306933096	136.65942339349
5	208	535.061427088078	121.78321766061
5	213	545.054108380203	130.55955302708
5	216	553.392106752728	121.69615408311
5	217	554.935917797721	120.0289725866
5	218	555.314493249233	118.22320668963
5	221	563.134391840077	124.16821660209
5	224	573.480962566131	99.333791807369
5	227	578.320353567084	104.05968719796
5	230	588.0448745387	107.97907952767
5	231	591.683172420979	110.20248043447
5	232	596.238750497584	99.007664134842
5	233	601.127926179728	90.880308500048
5	234	601.862500406889	89.785715356409
5	258	664.265621033098	145.32006391908
5	261	664.620943873246	124.67987971934
5	270	677.201910319899	132.98441477934
5	271	687.973855014863	137.81273727997
5	272	688.05856165682	130.38480828531
5	273	700.33105331207	132.3749442681
5	276	702.278168306507	127.12048579898
5	277	704.402241375869	123.59799042594
5	278	704.750432066747	94.284551187215
5	295	735.682403885716	112.4242539777
5	296	737.015774571974	109.41055451074
5	297	747.573831157294	118.83449263384
5	335	821.215279521979	191.20839183952
5	336	821.894983742209	174.18614702644
5	358	852.236495800782	199.85199057512
5	363	874.626469292228	210.35295102335
5	366	904.219265690677	237.93111156929
5	369	917.222873584716	242.87552531375
5	374	918.856327386707	244.43077197772
5	375	921.075384583419	245.17612840705
5	376	921.935561595546	221.17549867173
5	377	926.47954348708	220.84119378958
5	380	931.152326029872	220.28673653228
5	381	931.709270253229	206.88066144422
5	386	936.25384431774	205.54472137341
5	387	939.605184749035	207.75691370541
5	390	947.786575235742	198.57852515278
5	391	949.125993269244	197.59538712308
5	392	954.130106766649	193.6376858227
5	395	955.701310788922	189.95301850974
5	398	960.264913737633	186.77452779488
5	401	963.556987479962	183.34463128784
5	402	964.647300400836	176.99234021222
5	403	966.933316189649	178.60982816537
5	410	975.849809463251	177.99424260913
5	415	978.598777685102	180.18499649919
5	420	990.299335807102	179.00509246338
5	428	1016.535850066396	203.41512794048
5	431	1017.645051004212	203.81894474427
5	441	1042.737348329643	226.05458115342
5	454	1065.433025955972	242.45554206751
5	457	1083.112980989402	258.37128734225
5	464	1099.394232648493	270.80653794788
5	467	1110.286155915593	279.35476064742
5	468	1114.53175127727	279.87368213051
5	469	1114.558190600228	262.55263479182
5	470	1118.945925912549	249.24227188328
5	479	1123.788082321393	249.4834520235
5	484	1142.119065087977	241.9794368202
5	491	1162.676417915338	257.78698310909
5	492	1163.63158909923	245.48575789011
5	493	1164.576089018627	245.73742155124
5	494	1165.935115300081	235.5029320713
5	503	1183.289614395909	249.27260784057
5	516	1225.232197336847	290.93305987858
5	517	1226.100042665993	285.98795209145
5	520	1233.512276959914	278.68947912337
5	568	1331.558506728256	371.68010312172
5	569	1332.046414009258	370.41970671579
5	607	1423.3368360878	455.05668601671
5	612	1429.389530792456	457.59580861467
5	613	1442.718744521465	468.56732224294
5	614	1442.729060547624	465.78306913392
5	615	1445.516781672662	467.12184732596
5	616	1445.812387579299	459.39105058395
5	619	1464.730863014098	477.40429440528
5	620	1468.56892448537	473.4568682741
5	621	1470.259021701422	469.2228449036
5	622	1474.500039804326	457.75189374449
5	623	1483.425367371903	462.91514926516
5	624	1490.067168014455	468.22454452618
5	631	1502.571859556825	468.57227443761
5	634	1507.185038757095	463.42847530391
5	641	1528.981013910818	477.36009817392
5	650	1553.51332528238	498.53335900117
5	651	1560.976056494831	479.66592013513
5	658	1569.4796969391	481.07132282665
5	661	1577.441121293197	486.80504935079
5	662	1578.121032853129	482.61314929158
5	665	1588.000343075161	479.84885805973
5	672	1596.131886818339	476.98420015797
5	675	1603.596023636892	484.14922217977
5	676	1605.205126243732	484.09987399608
5	677	1611.756657791133	488.33087482639
5	678	1611.847229586434	485.32966139668
5	679	1620.341877998369	489.28884998766
5	690	1638.912267011398	487.89294057572
5	691	1640.579119218175	487.69350686876
5	692	1641.867630965262	483.53498020484
5	693	1645.614973708265	475.82115568827
5	694	1645.830973626079	473.40026749867
5	697	1659.366141431841	484.75079864486
5	700	1668.137087310601	491.35166532278
5	701	1668.383003505936	484.78235313295
5	702	1669.76507558546	484.67167554312
5	703	1673.443062319365	474.81289561934
5	704	1675.46650201582	443.42885038295
5	707	1679.545991511685	441.19016326298
5	710	1680.610631655482	431.08419138362
5	711	1682.285214434641	427.97558388004
5	719	1700.513813724929	437.20784464416
5	720	1705.325352512867	437.86096237649
5	723	1707.655849151661	425.35654282179
5	726	1714.483749713883	426.78561612298
5	734	1735.891935610585	442.2899872863
5	735	1737.617962135484	414.4040227145
5	736	1739.21542214953	410.00302013106
5	741	1746.681327588371	408.43006495313
5	746	1751.328037043908	387.71799293221
5	747	1755.158679475805	385.21246592617
5	748	1756.488001932284	374.02724661666
5	751	1759.94860947676	375.44699475999
5	754	1770.30058278044	383.09262054681
5	767	1807.130027505372	419.80455551062
5	770	1810.123583787886	416.40133521981
5	771	1812.628238396879	387.45314090559
5	774	1822.387393011113	397.19092595389
5	775	1824.089683720402	370.25968949137
5	782	1830.287467366668	339.53647891558
5	783	1832.561430181662	341.32123312903
5	794	1855.098315127563	358.555198295
5	797	1860.708518556706	356.87304373801
5	802	1871.80794049822	361.75169515389
5	805	1887.546446225809	362.29491536048
5	808	1889.935523133103	363.47104935821
5	811	1920.41990803661	387.24103404388
5	814	1925.182196887948	391.03143314294
5	819	1927.729169251813	388.90880413201
5	820	1934.307767074664	393.41074211722
5	827	1940.171316454729	378.21736477075
5	830	1953.209151346311	387.97558929154
5	831	1957.02714676571	390.39859263187
5	832	1957.314680235871	382.12745262287
5	833	1957.465488161835	371.92003871219
5	834	1970.784187778435	382.01157685881
5	835	1972.038845636838	382.90938261061
5	836	1975.990072653131	380.71584651019
5	837	1976.071808503408	374.86361404512
5	840	1989.574297997178	366.65658328853
5	841	1989.682141964439	366.65756344869
5	842	1990.584193072311	364.92361278242
5	847	2011.396244965823	378.12248064967
5	850	2011.720338532444	374.84534624821
5	851	2013.995354194285	357.86572647358
5	852	2014.533598192923	351.25619105617
5	853	2026.436880430869	348.01224779841
5	856	2045.387609649492	365.07715667497
5	861	2063.642635577983	371.67259440016
5	862	2074.276441218842	376.30723644345
5	865	2074.758131406737	367.54003360667
5	866	2074.953337179954	362.51601512716
5	875	2098.488219632306	378.66944322103
5	878	2105.115040087252	370.92375066839
5	908	2158.335219562411	417.39062484294
5	919	2177.772159926796	434.78920765632
5	920	2188.918487408048	441.95111709675
5	925	2193.187438013844	445.24081925537
5	930	2202.394526314035	445.37657904767
5	931	2202.402623358371	433.57660140018
5	934	2205.618468045813	434.4870251326
5	935	2208.834012057831	413.85762835348
5	942	2235.770436001874	435.47097960496
5	943	2239.626875046909	437.46829377715
5	952	2251.233163492881	445.60940458263
5	953	2252.013226403436	445.30176604274
5	956	2259.429605360793	451.43390585072
5	957	2259.993372635393	442.86020110009
5	960	2266.108386370388	440.2955230236
5	961	2266.774138387008	439.30421551784
5	964	2276.570688014142	448.70641400432
5	965	2277.95886459809	444.70075551284
5	968	2283.487539357617	447.49325464259
5	971	2284.635616331375	446.51887752932
5	974	2320.367255127833	471.66816325399
5	977	2324.852286126459	475.90932663758
5	978	2334.467992691814	479.06036430886
5	979	2334.715494288549	471.20030455626
5	980	2336.852574485685	469.68243075507
5	981	2348.094790613079	465.06394397804
5	984	2358.136454469361	469.04771077783
5	985	2359.656524403132	441.51024514244
5	986	2362.926416643003	438.27075001088
5	991	2368.95317280141	443.44772209839
5	994	2370.174921670373	444.34494633128
5	995	2371.878872203159	436.65232683927
5	996	2381.029149206301	445.44035848343
5	999	2389.543426026063	453.83982962422
5	1053	2491.847464733178	545.11787590092
6	145	364.979232014003	16
6	146	366.859863954183	17
6	154	386.055180957421	18
6	155	389.824363322321	19
6	160	405.00074536764	20
6	165	418.0519488233	21
6	175	440.663095091103	22
6	176	445.567075908674	23
6	177	450.071691393414	24
6	178	457.811512117906	25
6	179	467.574367517992	26
6	185	477.388515556024	27
6	193	506.777967035853	28
6	194	507.313640044671	29
6	200	518.827894835637	30
6	203	520.054443933518	31
6	204	520.607583968539	32
6	205	527.423021206364	33
6	206	528.206427603978	34
6	207	534.638306933096	35
6	208	535.061427088078	36
6	217	554.935917797721	37
6	218	555.314493249233	38
6	231	591.683172420979	39
6	232	596.238750497584	40
6	233	601.127926179728	41
6	234	601.862500406889	42
6	261	664.620943873246	43
6	270	677.201910319899	44
6	271	687.973855014863	45
6	272	688.05856165682	46
6	273	700.33105331207	47
6	276	702.278168306507	48
6	277	704.402241375869	49
6	278	704.750432066747	50
6	296	737.015774571974	51
6	297	747.573831157294	52
6	336	821.894983742209	53
6	363	874.626469292228	54
6	366	904.219265690677	55
6	369	917.222873584716	56
6	374	918.856327386707	57
6	375	921.075384583419	58
6	376	921.935561595546	59
6	377	926.47954348708	60
6	380	931.152326029872	61
6	381	931.709270253229	62
6	386	936.25384431774	63
6	387	939.605184749035	64
6	391	949.125993269244	65
6	392	954.130106766649	66
6	395	955.701310788922	67
6	401	963.556987479962	68
6	402	964.647300400836	69
6	403	966.933316189649	70
6	410	975.849809463251	71
6	415	978.598777685102	72
6	420	990.299335807102	73
6	431	1017.645051004212	74
6	464	1099.394232648493	75
6	467	1110.286155915593	76
6	468	1114.53175127727	77
6	469	1114.558190600228	78
6	470	1118.945925912549	79
6	484	1142.119065087977	80
6	492	1163.63158909923	81
6	493	1164.576089018627	82
6	494	1165.935115300081	83
6	517	1226.100042665993	84
6	520	1233.512276959914	85
6	569	1332.046414009258	86
6	612	1429.389530792456	87
6	613	1442.718744521465	88
6	614	1442.729060547624	89
6	615	1445.516781672662	90
6	616	1445.812387579299	91
6	619	1464.730863014098	92
6	620	1468.56892448537	93
6	621	1470.259021701422	94
6	622	1474.500039804326	95
6	623	1483.425367371903	96
6	624	1490.067168014455	97
6	631	1502.571859556825	98
6	651	1560.976056494831	99
6	658	1569.4796969391	100
6	661	1577.441121293197	101
6	662	1578.121032853129	102
6	675	1603.596023636892	103
6	676	1605.205126243732	104
6	677	1611.756657791133	105
6	678	1611.847229586434	106
6	679	1620.341877998369	107
6	691	1640.579119218175	108
6	692	1641.867630965262	109
6	693	1645.614973708265	110
6	694	1645.830973626079	111
6	701	1668.383003505936	112
6	702	1669.76507558546	113
6	703	1673.443062319365	114
6	704	1675.46650201582	115
6	707	1679.545991511685	116
6	711	1682.285214434641	117
6	720	1705.325352512867	118
6	723	1707.655849151661	119
6	726	1714.483749713883	120
6	735	1737.617962135484	121
6	736	1739.21542214953	122
6	747	1755.158679475805	123
6	748	1756.488001932284	124
6	751	1759.94860947676	125
6	754	1770.30058278044	126
6	771	1812.628238396879	127
6	774	1822.387393011113	128
6	775	1824.089683720402	129
6	783	1832.561430181662	130
6	797	1860.708518556706	131
6	802	1871.80794049822	132
6	805	1887.546446225809	133
6	811	1920.41990803661	134
6	814	1925.182196887948	135
6	819	1927.729169251813	136
6	820	1934.307767074664	137
6	827	1940.171316454729	138
6	831	1957.02714676571	139
6	832	1957.314680235871	140
6	833	1957.465488161835	141
6	834	1970.784187778435	142
6	835	1972.038845636838	143
6	836	1975.990072653131	144
6	837	1976.071808503408	145
6	840	1989.574297997178	146
6	841	1989.682141964439	147
6	842	1990.584193072311	148
6	850	2011.720338532444	149
6	851	2013.995354194285	150
6	852	2014.533598192923	151
6	853	2026.436880430869	152
6	856	2045.387609649492	153
6	862	2074.276441218842	154
6	866	2074.953337179954	155
6	878	2105.115040087252	156
6	920	2188.918487408048	157
6	930	2202.394526314035	158
6	931	2202.402623358371	159
6	935	2208.834012057831	160
6	942	2235.770436001874	161
6	943	2239.626875046909	162
6	953	2252.013226403436	163
6	957	2259.993372635393	164
6	960	2266.108386370388	165
6	961	2266.774138387008	166
6	964	2276.570688014142	167
6	965	2277.95886459809	168
6	968	2283.487539357617	169
6	971	2284.635616331375	170
6	974	2320.367255127833	171
6	977	2324.852286126459	172
6	978	2334.467992691814	173
6	979	2334.715494288549	174
6	980	2336.852574485685	175
6	981	2348.094790613079	176
6	985	2359.656524403132	177
6	986	2362.926416643003	178
6	991	2368.95317280141	179
6	995	2371.878872203159	180
6	996	2381.029149206301	181
7	145	364.979232014003	158.29160016793
7	146	366.859863954183	147.52513068941
7	154	386.055180957421	149.38505027379
7	155	389.824363322321	146.23286107602
7	160	405.00074536764	152.92408419332
7	165	418.0519488233	162.52897592813
7	175	440.663095091103	154.17502165796
7	176	445.567075908674	145.64662176692
7	177	450.071691393414	144.21935768346
7	178	457.811512117906	149.09453173029
7	179	467.574367517992	157.68127283082
7	185	477.388515556024	157.14085247854
7	193	506.777967035853	181.36553747688
7	194	507.313640044671	177.96877680341
7	200	518.827894835637	173.4241483621
7	203	520.054443933518	168.64504097594
7	204	520.607583968539	150.32712149837
7	205	527.423021206364	156.64554808977
7	206	528.206427603978	149.71819827177
7	207	534.638306933096	143.56024804331
7	208	535.061427088078	137.08254354847
7	217	554.935917797721	123.2399651281
7	218	555.314493249233	120.40754803811
7	231	591.683172420979	111.61737740995
7	232	596.238750497584	114.75805851107
7	233	601.127926179728	103.89683981699
7	234	601.862500406889	91.614882727209
7	261	664.620943873246	145.67538675923
7	270	677.201910319899	137.26084616599
7	271	687.973855014863	143.7563594743
7	272	688.05856165682	137.89744392193
7	273	700.33105331207	142.65729994056
7	276	702.278168306507	134.32205926253
7	277	704.402241375869	129.24455886834
7	278	704.750432066747	123.94618111682
7	296	737.015774571974	113.75762466396
7	297	747.573831157294	119.96861109606
7	336	821.894983742209	191.88809605975
7	363	874.626469292228	222.24196406657
7	366	904.219265690677	239.9457474218
7	369	917.222873584716	250.93471946333
7	374	918.856327386707	244.50897911574
7	375	921.075384583419	246.64982917443
7	376	921.935561595546	246.03630541917
7	377	926.47954348708	225.71948056326
7	380	931.152326029872	225.51397633238
7	381	931.709270253229	220.84368075564
7	386	936.25384431774	211.42523550873
7	387	939.605184749035	208.89606180471
7	391	949.125993269244	199.91794318628
7	392	954.130106766649	202.59950062049
7	395	955.701310788922	195.20888984497
7	401	963.556987479962	190.06660153721
7	402	964.647300400836	184.43494420871
7	403	966.933316189649	179.27835600104
7	410	975.849809463251	187.52632143897
7	415	978.598777685102	180.74321083098
7	420	990.299335807102	191.88555462119
7	431	1017.645051004212	204.52432887829
7	464	1099.394232648493	274.65253900134
7	467	1110.286155915593	281.69846121498
7	468	1114.53175127727	283.60035600909
7	469	1114.558190600228	279.90012145347
7	470	1118.945925912549	266.94037010415
7	484	1142.119065087977	267.81443479009
7	492	1163.63158909923	258.74215429299
7	493	1164.576089018627	246.43025780951
7	494	1165.935115300081	247.09644783269
7	517	1226.100042665993	291.80090520772
7	520	1233.512276959914	293.40018638537
7	569	1332.046414009258	372.16801040273
7	612	1429.389530792456	461.10938072136
7	613	1442.718744521465	470.92502234368
7	614	1442.729060547624	468.5776382691
7	615	1445.516781672662	468.57079025896
7	616	1445.812387579299	467.4174532326
7	619	1464.730863014098	478.30952601875
7	620	1468.56892448537	481.24235587655
7	621	1470.259021701422	475.14696549015
7	622	1474.500039804326	473.4638630065
7	623	1483.425367371903	466.67722131207
7	624	1490.067168014455	469.55694990771
7	631	1502.571859556825	480.72923606855
7	651	1560.976056494831	505.99609021363
7	658	1569.4796969391	488.1695605794
7	661	1577.441121293197	489.03274718075
7	662	1578.121032853129	487.48496091072
7	675	1603.596023636892	484.44833697653
7	676	1605.205126243732	485.75832478661
7	677	1611.756657791133	490.65140554348
7	678	1611.847229586434	488.42144662169
7	679	1620.341877998369	493.82430980862
7	691	1640.579119218175	489.5597927825
7	692	1641.867630965262	488.98201861585
7	693	1645.614973708265	487.28232294784
7	694	1645.830973626079	476.03715560609
7	701	1668.383003505936	491.59758151812
7	702	1669.76507558546	486.16442521247
7	703	1673.443062319365	488.34966227702
7	704	1675.46650201582	476.8363353158
7	707	1679.545991511685	447.50833987881
7	711	1682.285214434641	432.75877416278
7	720	1705.325352512867	442.0193834321
7	723	1707.655849151661	440.19145901529
7	726	1714.483749713883	432.18444338401
7	735	1737.617962135484	444.0160138112
7	736	1739.21542214953	416.00148272855
7	747	1755.158679475805	391.54863536411
7	748	1756.488001932284	386.54178838265
7	751	1759.94860947676	377.48785416114
7	754	1770.30058278044	385.79896806367
7	771	1812.628238396879	418.9059898288
7	774	1822.387393011113	397.21229551982
7	775	1824.089683720402	398.89321666318
7	783	1832.561430181662	341.81044173057
7	797	1860.708518556706	364.16540172414
7	802	1871.80794049822	367.97246567952
7	805	1887.546446225809	377.49020088148
7	811	1920.41990803661	393.95543426172
7	814	1925.182196887948	392.00332289522
7	819	1927.729169251813	393.5784055068
7	820	1934.307767074664	395.48740195486
7	827	1940.171316454729	399.27429149728
7	831	1957.02714676571	391.79358471094
7	832	1957.314680235871	390.68612610203
7	833	1957.465488161835	382.27826054884
7	834	1970.784187778435	385.23873832879
7	835	1972.038845636838	383.26623471721
7	836	1975.990072653131	386.8606096269
7	837	1976.071808503408	380.79758236047
7	840	1989.574297997178	388.36610353889
7	841	1989.682141964439	366.7644272558
7	842	1990.584193072311	367.55961455656
7	850	2011.720338532444	378.44657421629
7	851	2013.995354194285	377.12036191005
7	852	2014.533598192923	358.40397047222
7	853	2026.436880430869	363.15947329411
7	856	2045.387609649492	366.96297701704
7	862	2074.276441218842	382.30640004102
7	866	2074.953337179954	367.73523937988
7	878	2105.115040087252	385.29626367597
7	920	2188.918487408048	445.93553513757
7	930	2202.394526314035	454.44790755556
7	931	2202.402623358371	445.38467609201
7	935	2208.834012057831	437.70256914462
7	942	2235.770436001874	440.79405229752
7	943	2239.626875046909	439.32741864999
7	953	2252.013226403436	446.38946749319
7	957	2259.993372635393	451.99767312532
7	960	2266.108386370388	448.97521483509
7	961	2266.774138387008	440.96127504022
7	964	2276.570688014142	449.10076514498
7	965	2277.95886459809	450.09459058827
7	968	2283.487539357617	450.22943027236
7	971	2284.635616331375	448.64133161635
7	974	2320.367255127833	482.25051632578
7	977	2324.852286126459	476.15319425261
7	978	2334.467992691814	485.52503320294
7	979	2334.715494288549	479.3078659056
7	980	2336.852574485685	473.3373847534
7	981	2348.094790613079	480.92464688246
7	985	2359.656524403132	470.5677807116
7	986	2362.926416643003	444.78013738231
7	991	2368.95317280141	444.29750616929
7	995	2371.878872203159	446.04889686406
7	996	2381.029149206301	445.80260384241
8	148	370.280462470171	1
8	167	431.695952669617	1
8	181	474.147170758762	1
8	189	481.480691986513	1
8	196	510.24761767968	1
8	210	539.94106415391	1
8	215	550.161117734889	1
8	220	557.673753371508	1
8	223	567.956109043973	1
8	226	575.15768250753	1
8	229	580.804250949928	1
8	236	610.465880879532	1
8	238	612.633669047796	2
8	240	621.078268320571	3
8	250	631.86060202898	4
8	280	705.638349697495	1
8	282	706.665987554936	2
8	284	707.236119425818	3
8	301	751.530606146162	1
8	307	766.408258009834	2
8	310	771.611960097243	2
8	321	795.70823994459	2
8	342	828.587694700615	1
8	348	835.695198389493	2
8	350	841.24604760731	3
8	353	842.50405940262	3
8	389	940.112090574546	1
8	397	959.878403606532	1
8	422	995.112056211267	1
8	426	1009.65256758039	2
8	435	1021.842623488271	1
8	437	1022.186221008682	2
8	447	1054.979966281205	1
8	449	1058.081305622748	2
8	451	1061.030308005097	3
8	456	1081.310136359704	1
8	476	1121.105252247653	1
8	490	1158.332650760421	1
8	500	1174.615342786981	1
8	507	1185.093400042341	1
8	509	1195.169701464507	2
8	514	1221.399061453619	2
8	522	1238.355828248703	1
8	524	1242.986426439704	2
8	528	1252.324057016316	3
8	530	1252.81041227046	4
8	534	1262.62134059803	5
8	538	1265.720375963125	6
8	543	1274.056234699699	6
8	548	1287.083915815885	6
8	552	1290.607169038882	7
8	556	1295.126534913334	8
8	571	1338.251262635238	1
8	573	1344.542083468712	2
8	575	1356.591721693122	3
8	577	1356.936211215667	4
8	579	1362.588580326634	5
8	583	1368.062489851398	6
8	585	1369.039045075951	7
8	605	1410.890176308349	2
8	633	1503.835474818698	1
8	636	1510.056245344328	1
8	643	1533.178873992729	1
8	664	1585.545449449645	1
8	669	1589.129463026233	1
8	689	1636.874992284231	1
8	696	1656.129627720702	1
8	699	1663.277407136755	1
8	709	1680.310452974527	1
8	713	1691.970041177819	1
8	715	1696.58688266278	2
8	728	1719.818776411279	1
8	730	1727.169572722012	2
8	740	1742.98295227048	1
8	745	1747.946618758475	1
8	758	1794.976383704355	1
8	769	1807.995699510076	1
8	779	1827.469922869166	1
8	787	1835.994284715025	1
8	807	1889.088743691529	1
8	829	1946.729588832254	1
8	846	2004.62429793366	1
8	858	2054.459779923515	1
8	864	2074.413488317576	1
8	870	2090.254935787689	1
8	890	2118.376201383707	1
8	896	2123.529966614318	2
8	898	2128.125391186792	3
8	901	2147.792189658182	3
8	912	2160.434193921626	1
8	924	2192.585280357836	1
8	933	2205.482816027784	1
8	945	2242.158972086936	1
8	955	2252.357253508174	1
8	983	2349.783810657802	1
8	993	2369.802429443491	1
8	998	2381.692791746694	1
8	1003	2395.775553395185	1
8	1009	2397.022295827693	2
8	1011	2397.996189404248	3
8	1021	2433.487883053021	4
8	1023	2433.832617070752	5
8	1025	2437.057922805673	6
8	1035	2461.518468346402	3
8	1041	2465.729271570205	2
8	1055	2493.276094709187	1
9	148	370.280462470171	12
9	167	431.695952669617	13
9	181	474.147170758762	14
9	189	481.480691986513	15
9	196	510.24761767968	16
9	210	539.94106415391	17
9	215	550.161117734889	18
9	220	557.673753371508	19
9	223	567.956109043973	20
9	226	575.15768250753	21
9	229	580.804250949928	22
9	236	610.465880879532	23
9	280	705.638349697495	24
9	301	751.530606146162	25
9	342	828.587694700615	26
9	389	940.112090574546	27
9	397	959.878403606532	28
9	422	995.112056211267	29
9	435	1021.842623488271	30
9	447	1054.979966281205	31
9	456	1081.310136359704	32
9	476	1121.105252247653	33
9	490	1158.332650760421	34
9	500	1174.615342786981	35
9	507	1185.093400042341	36
9	522	1238.355828248703	37
9	571	1338.251262635238	38
9	633	1503.835474818698	39
9	636	1510.056245344328	40
9	643	1533.178873992729	41
9	664	1585.545449449645	42
9	669	1589.129463026233	43
9	689	1636.874992284231	44
9	696	1656.129627720702	45
9	699	1663.277407136755	46
9	709	1680.310452974527	47
9	713	1691.970041177819	48
9	728	1719.818776411279	49
9	740	1742.98295227048	50
9	745	1747.946618758475	51
9	758	1794.976383704355	52
9	769	1807.995699510076	53
9	779	1827.469922869166	54
9	787	1835.994284715025	55
9	807	1889.088743691529	56
9	829	1946.729588832254	57
9	846	2004.62429793366	58
9	858	2054.459779923515	59
9	864	2074.413488317576	60
9	870	2090.254935787689	61
9	890	2118.376201383707	62
9	912	2160.434193921626	63
9	924	2192.585280357836	64
9	933	2205.482816027784	65
9	945	2242.158972086936	66
9	955	2252.357253508174	67
9	983	2349.783810657802	68
9	993	2369.802429443491	69
9	998	2381.692791746694	70
9	1003	2395.775553395185	71
9	1055	2493.276094709187	72
10	148	370.280462470171	0
10	167	431.695952669617	0
10	181	474.147170758762	0
10	189	481.480691986513	0
10	196	510.24761767968	0
10	210	539.94106415391	0
10	215	550.161117734889	0
10	220	557.673753371508	0
10	223	567.956109043973	0
10	226	575.15768250753	0
10	229	580.804250949928	0
10	236	610.465880879532	0
10	251	636.702881163065	24.069212115269
10	256	652.442943383049	31.364675062478
10	257	654.661692126444	22.801090097464
10	280	705.638349697495	0
10	285	709.510594262068	2.844606707132
10	288	722.415166445742	15.179047019924
10	301	751.530606146162	0
10	308	768.878115308594	2.46985729876
10	311	772.530056056814	0.918095959571
10	334	819.238380162337	23.530140217747
10	342	828.587694700615	0
10	351	841.299874747	5.604676357507
10	354	846.994072086175	5.748024478865
10	355	849.412468623886	6.908409221266
10	389	940.112090574546	0
10	397	959.878403606532	0
10	422	995.112056211267	0
10	427	1013.828010642505	4.175443062115
10	435	1021.842623488271	0
10	438	1030.669268406992	8.48304739831
10	447	1054.979966281205	0
10	452	1062.472160903302	4.390855280554
10	453	1064.770907837586	3.740599832489
10	456	1081.310136359704	0
10	476	1121.105252247653	0
10	490	1158.332650760421	0
10	500	1174.615342786981	0
10	507	1185.093400042341	0
10	512	1218.809539899134	23.639838434627
10	515	1222.006252241705	0.607190788086
10	522	1238.355828248703	0
10	541	1268.183060287214	25.19663384751
10	546	1285.912056596331	33.587999580015
10	557	1298.943165459507	46.132753189047
10	558	1302.372419731525	39.751079133495
10	559	1314.033727226224	48.313351263099
10	560	1317.316650802625	43.260416102926
10	563	1325.277665317313	38.193749501428
10	566	1329.810772018341	39.203602979459
10	567	1331.519388162418	36.392853249084
10	571	1338.251262635238	0
10	588	1371.455668052975	26.913584584263
10	589	1378.045914808633	21.454193115511
10	590	1382.138504158333	25.202292942666
10	593	1382.64226584377	20.053685517136
10	602	1395.299262700268	27.23677284887
10	603	1396.462851588733	27.423806512782
10	606	1420.51952083777	9.629344529421
10	633	1503.835474818698	0
10	636	1510.056245344328	0
10	643	1533.178873992729	0
10	664	1585.545449449645	0
10	669	1589.129463026233	0
10	689	1636.874992284231	0
10	696	1656.129627720702	0
10	699	1663.277407136755	0
10	709	1680.310452974527	0
10	713	1691.970041177819	0
10	718	1699.546065955363	2.959183292583
10	728	1719.818776411279	0
10	731	1734.147431103509	6.977858381497
10	740	1742.98295227048	0
10	745	1747.946618758475	0
10	758	1794.976383704355	0
10	769	1807.995699510076	0
10	779	1827.469922869166	0
10	787	1835.994284715025	0
10	807	1889.088743691529	0
10	829	1946.729588832254	0
10	846	2004.62429793366	0
10	858	2054.459779923515	0
10	864	2074.413488317576	0
10	870	2090.254935787689	0
10	890	2118.376201383707	0
10	899	2143.372901226021	19.842934611703
10	902	2148.024701862951	19.899310676159
10	907	2156.900198198265	9.108008540083
10	912	2160.434193921626	0
10	924	2192.585280357836	0
10	933	2205.482816027784	0
10	945	2242.158972086936	0
10	955	2252.357253508174	0
10	983	2349.783810657802	0
10	993	2369.802429443491	0
10	998	2381.692791746694	0
10	1003	2395.775553395185	0
10	1026	2438.855542825815	41.833246998122
10	1027	2448.368750652806	50.372561248558
10	1028	2449.201865417503	15.713982364482
10	1029	2457.747444786712	23.91482771596
10	1036	2462.875135793082	25.817212987409
10	1039	2465.475492434377	3.957024087975
10	1052	2491.63573122382	25.906459653615
10	1055	2493.276094709187	0
11	1058	2500	0.0724
12	1058	2500	0.0496

