version 2
run experiments_medium_game_mode1-747-20230311-09:42:32-12424
attr configname experiments_medium_game_mode1
attr datetime 20230311-09:42:32
attr experiment experiments_medium_game_mode1
attr inifile omnetpp.ini
attr iterationvars "$0=6, $1=5, $2=0"
attr iterationvarsf 6,5,0-
attr measurement "$0=6, $1=5, $2=0"
attr network Network
attr processid 12424
attr repetition 27
attr replication #27
attr resultdir results
attr runnumber 747
attr seedset 27
param *.boss.arrival_mean 20
param *.boss.service_mean 6
param *.minion.arrival_mean 10
param *.minion.service_mean 5
param *.player.recover_rate_x 0
param **.minion.arrival_distribution 0
param **.minion.service_distribution 0
param **.boss.arrival_distribution 0
param **.boss.service_distribution 0

vector 0 Network.player boss_jobs_number_stat:vector ETV
attr source signal_boss_jobs_number
vector 1 Network.player boss_jobs_queue_number_stat:vector ETV
attr source signal_boss_jobs_queue_number
vector 2 Network.player boss_waiting_time_stat:vector ETV
attr source signal_boss_waiting_time
vector 3 Network.player boss_defeated_stat:vector ETV
attr source signal_boss_defeated
vector 4 Network.player boss_response_time_stat:vector ETV
attr source signal_boss_response_time
vector 5 Network.player minion_jobs_number_stat:vector ETV
attr source signal_minion_jobs_number
vector 6 Network.player minion_jobs_queue_number_stat:vector ETV
attr source signal_minion_jobs_queue_number
vector 7 Network.player minion_waiting_time_stat:vector ETV
attr source signal_minion_waiting_time
vector 8 Network.player minion_defeated_stat:vector ETV
attr source signal_minion_defeated
vector 9 Network.player minion_response_time_stat:vector ETV
attr source signal_minion_response_time
vector 10 Network.player minion_recovered_stat:vector ETV
attr source signal_minion_recovered
vector 11 Network.player minion_throughput:vector ETV
attr source signal_minion_throughput
vector 12 Network.player boss_throughput:vector ETV
attr source signal_boss_throughput
0	152	368.831334544424	1
0	155	389.110670426301	1
0	158	392.470448185346	1
0	164	406.857955342912	1
0	175	426.413797271532	1
0	177	428.216150320548	2
0	179	429.56556717974	3
0	189	439.368663954059	2
0	194	453.418493226684	2
0	196	460.280800586182	3
0	202	465.421436393306	4
0	204	468.331227174635	5
0	234	532.267433263168	1
0	236	532.47057314743	2
0	249	551.950976185058	1
0	254	562.599858163725	1
0	264	566.167079330092	2
0	272	579.735833390176	1
0	277	587.83685848517	1
0	279	588.269454985046	2
0	281	589.0392234944	3
0	288	605.436577269174	1
0	293	613.330361908421	1
0	295	614.946250003507	2
0	302	625.020069418922	1
0	310	635.493773863116	1
0	313	651.93908874367	1
0	317	659.479702327961	2
0	319	660.616830717591	3
0	325	690.058304817686	2
0	338	724.440579512485	1
0	348	742.817448148488	1
0	352	750.436630718249	2
0	355	761.240283547267	2
0	358	768.129381117159	2
0	362	776.291255989424	3
0	384	836.22542674111	1
0	386	836.732694464763	2
0	409	886.875913427531	1
0	411	888.751654418823	2
0	418	906.16981819263	1
0	426	944.66435003739	1
0	447	972.102428593869	1
0	458	985.612944754038	1
0	461	992.436786322198	1
0	466	998.179883676915	1
0	470	1002.472414686305	1
0	487	1031.121101478372	1
0	501	1059.823730250331	1
0	507	1075.364437874632	2
0	537	1170.367082354032	1
0	542	1180.109766243292	1
0	558	1212.664506770435	1
0	574	1233.325160215043	1
0	591	1269.88515367764	1
0	593	1273.651998237192	2
0	596	1278.05293541854	2
0	604	1302.754338639653	3
0	606	1305.574118968634	4
0	610	1306.39506238908	5
0	615	1314.661552737215	5
0	629	1332.983630237907	2
0	646	1359.150555686224	1
0	649	1363.697256601952	1
0	676	1444.719652389594	1
0	681	1450.44504109149	1
0	683	1450.821689742854	2
0	689	1461.008519765219	1
0	707	1486.539293398296	1
0	714	1511.564798431682	1
0	721	1522.912315959582	1
0	742	1554.359213467081	1
0	750	1573.55463600345	1
0	771	1618.60610114374	1
0	781	1647.732977010864	1
0	783	1652.716300240126	2
0	800	1699.903565993872	1
0	802	1700.164731177748	2
0	805	1704.09610134274	2
0	822	1732.70694833244	1
0	826	1739.431147144398	1
0	830	1743.465202265492	2
0	835	1749.865499275879	2
0	848	1781.419902188234	1
0	854	1794.03587162119	2
0	889	1854.253817291772	1
0	911	1890.882005542659	1
0	913	1890.959832848247	2
0	923	1906.259346134547	1
0	941	1951.970516732074	1
0	948	1972.812470886184	1
0	972	2016.313752534131	1
0	981	2026.634220104932	1
0	1013	2113.398607569763	1
0	1016	2122.859661153812	1
0	1033	2162.021322230943	1
0	1036	2165.890783281384	1
0	1039	2172.746428742143	1
0	1052	2189.245132141111	1
0	1067	2233.879336630663	1
0	1072	2239.267804364735	1
0	1083	2252.616090301519	1
0	1113	2345.378507754397	1
0	1120	2358.900332232856	1
0	1123	2370.717925181556	1
0	1139	2418.046391651931	1
0	1142	2423.759721043991	1
0	1148	2453.422693129747	1
0	1151	2458.491186840242	1
0	1159	2480.169364514395	1
1	152	368.831334544424	0
1	153	375.1227981609	0
1	155	389.110670426301	0
1	156	392.381356244795	0
1	158	392.470448185346	0
1	161	397.993784783744	0
1	164	406.857955342912	0
1	165	408.49418123919	0
1	175	426.413797271532	0
1	177	428.216150320548	1
1	179	429.56556717974	2
1	180	433.888258083523	2
1	185	436.360081133576	1
1	189	439.368663954059	1
1	192	451.547977488512	1
1	194	453.418493226684	1
1	196	460.280800586182	2
1	202	465.421436393306	3
1	204	468.331227174635	4
1	207	479.622471457736	4
1	208	480.281607792823	3
1	209	481.910306620337	2
1	212	486.414428086337	1
1	213	486.922500998314	0
1	234	532.267433263168	0
1	236	532.47057314743	1
1	237	534.253638120848	1
1	242	540.898349834745	0
1	249	551.950976185058	0
1	250	558.177005693448	0
1	254	562.599858163725	0
1	264	566.167079330092	1
1	267	568.425019604697	1
1	268	569.601464196771	0
1	272	579.735833390176	0
1	273	581.659160612678	0
1	277	587.83685848517	0
1	279	588.269454985046	1
1	281	589.0392234944	2
1	282	595.48104758651	2
1	283	599.247692498882	1
1	284	602.126174259071	0
1	288	605.436577269174	0
1	289	606.192458843415	0
1	293	613.330361908421	0
1	295	614.946250003507	1
1	296	619.203134966532	1
1	297	619.664146285111	0
1	302	625.020069418922	0
1	305	626.570480311854	0
1	310	635.493773863116	0
1	311	649.355915719029	0
1	313	651.93908874367	0
1	317	659.479702327961	1
1	319	660.616830717591	2
1	320	660.705504415114	2
1	321	670.18368851737	1
1	325	690.058304817686	1
1	326	695.238966176383	1
1	329	706.25585502405	0
1	338	724.440579512485	0
1	341	728.335718759196	0
1	348	742.817448148488	0
1	352	750.436630718249	1
1	353	752.94857687453	1
1	355	761.240283547267	1
1	356	762.255318394249	1
1	358	768.129381117159	1
1	362	776.291255989424	2
1	367	790.488478229844	2
1	370	797.635714866843	1
1	373	802.801898762698	0
1	384	836.22542674111	0
1	386	836.732694464763	1
1	391	847.365206813456	1
1	392	857.449744352612	0
1	409	886.875913427531	0
1	411	888.751654418823	1
1	412	894.64809894539	1
1	413	897.930110713504	0
1	418	906.16981819263	0
1	419	908.06059576687	0
1	426	944.66435003739	0
1	427	944.831340173748	0
1	447	972.102428593869	0
1	454	981.891204977044	0
1	458	985.612944754038	0
1	459	989.24526432616	0
1	461	992.436786322198	0
1	462	995.983326147832	0
1	466	998.179883676915	0
1	467	998.847659453747	0
1	470	1002.472414686305	0
1	475	1014.719556470249	0
1	487	1031.121101478372	0
1	492	1041.317935686792	0
1	501	1059.823730250331	0
1	507	1075.364437874632	1
1	508	1076.500790552327	1
1	509	1083.679353300373	0
1	537	1170.367082354032	0
1	538	1172.507241917795	0
1	542	1180.109766243292	0
1	543	1185.108159613176	0
1	558	1212.664506770435	0
1	559	1214.306284422127	0
1	574	1233.325160215043	0
1	575	1235.248270546515	0
1	591	1269.88515367764	0
1	593	1273.651998237192	1
1	594	1274.6853271525	1
1	596	1278.05293541854	1
1	604	1302.754338639653	2
1	606	1305.574118968634	3
1	610	1306.39506238908	4
1	613	1313.594953314613	4
1	615	1314.661552737215	4
1	616	1316.139897457481	4
1	617	1317.031190237999	3
1	624	1324.878822447943	2
1	627	1330.612375934401	1
1	629	1332.983630237907	1
1	630	1333.174311656304	1
1	637	1337.156264911054	0
1	646	1359.150555686224	0
1	647	1361.256919301887	0
1	649	1363.697256601952	0
1	650	1366.812692441684	0
1	676	1444.719652389594	0
1	677	1449.329128346843	0
1	681	1450.44504109149	0
1	683	1450.821689742854	1
1	684	1458.253432588865	1
1	685	1458.620137081661	0
1	689	1461.008519765219	0
1	690	1463.347374884437	0
1	707	1486.539293398296	0
1	708	1492.757786797626	0
1	714	1511.564798431682	0
1	715	1514.635210116819	0
1	721	1522.912315959582	0
1	726	1529.570503611471	0
1	742	1554.359213467081	0
1	745	1556.664075318141	0
1	750	1573.55463600345	0
1	751	1573.600837228158	0
1	771	1618.60610114374	0
1	778	1636.256046102989	0
1	781	1647.732977010864	0
1	783	1652.716300240126	1
1	784	1659.239793547637	1
1	791	1674.298066252488	0
1	800	1699.903565993872	0
1	802	1700.164731177748	1
1	803	1700.389091065707	1
1	805	1704.09610134274	1
1	808	1710.476124660103	1
1	809	1713.061136113138	0
1	822	1732.70694833244	0
1	823	1732.914975828336	0
1	826	1739.431147144398	0
1	830	1743.465202265492	1
1	833	1749.110113364327	1
1	835	1749.865499275879	1
1	840	1766.337715854552	1
1	841	1767.337433857547	0
1	848	1781.419902188234	0
1	854	1794.03587162119	1
1	855	1799.447228643875	1
1	858	1801.736336421762	0
1	889	1854.253817291772	0
1	894	1864.111507854464	0
1	911	1890.882005542659	0
1	913	1890.959832848247	1
1	914	1892.526856298367	1
1	915	1896.46517989115	0
1	923	1906.259346134547	0
1	924	1908.944350019394	0
1	941	1951.970516732074	0
1	946	1972.394384885881	0
1	948	1972.812470886184	0
1	955	1984.184017440829	0
1	972	2016.313752534131	0
1	977	2019.550945837422	0
1	981	2026.634220104932	0
1	988	2029.048594739697	0
1	1013	2113.398607569763	0
1	1014	2115.702356995043	0
1	1016	2122.859661153812	0
1	1017	2124.968710457234	0
1	1033	2162.021322230943	0
1	1034	2162.120799233528	0
1	1036	2165.890783281384	0
1	1037	2171.708673372119	0
1	1039	2172.746428742143	0
1	1040	2172.980008509691	0
1	1052	2189.245132141111	0
1	1053	2191.523045313153	0
1	1067	2233.879336630663	0
1	1068	2234.206641786131	0
1	1072	2239.267804364735	0
1	1073	2241.099140526959	0
1	1083	2252.616090301519	0
1	1084	2253.437615802688	0
1	1113	2345.378507754397	0
1	1114	2355.460201277653	0
1	1120	2358.900332232856	0
1	1121	2359.104050791755	0
1	1123	2370.717925181556	0
1	1126	2380.868795017123	0
1	1139	2418.046391651931	0
1	1140	2419.586757229489	0
1	1142	2423.759721043991	0
1	1143	2429.155491880343	0
1	1148	2453.422693129747	0
1	1149	2458.133069490789	0
1	1151	2458.491186840242	0
1	1152	2462.775959421297	0
1	1159	2480.169364514395	0
1	1162	2481.350023540811	0
2	152	368.831334544424	0
2	155	389.110670426301	0
2	158	392.470448185346	0
2	164	406.857955342912	0
2	175	426.413797271532	0
2	180	433.888258083523	5.672107762975
2	185	436.360081133576	6.794513953836
2	192	451.547977488512	12.179313534453
2	207	479.622471457736	26.203978231052
2	208	480.281607792823	20.000807206641
2	209	481.910306620337	16.488870227031
2	212	486.414428086337	18.083200911702
2	234	532.267433263168	0
2	237	534.253638120848	1.783064973418
2	249	551.950976185058	0
2	254	562.599858163725	0
2	267	568.425019604697	2.257940274605
2	272	579.735833390176	0
2	277	587.83685848517	0
2	282	595.48104758651	7.211592601464
2	283	599.247692498882	10.208469004482
2	288	605.436577269174	0
2	293	613.330361908421	0
2	296	619.203134966532	4.256884963025
2	302	625.020069418922	0
2	310	635.493773863116	0
2	313	651.93908874367	0
2	320	660.705504415114	1.225802087153
2	321	670.18368851737	9.566857799779
2	326	695.238966176383	5.180661358697
2	338	724.440579512485	0
2	348	742.817448148488	0
2	353	752.94857687453	2.511946156281
2	356	762.255318394249	1.015034846982
2	367	790.488478229844	22.359097112685
2	370	797.635714866843	21.344458877419
2	384	836.22542674111	0
2	391	847.365206813456	10.632512348693
2	409	886.875913427531	0
2	412	894.64809894539	5.896444526567
2	418	906.16981819263	0
2	426	944.66435003739	0
2	447	972.102428593869	0
2	458	985.612944754038	0
2	461	992.436786322198	0
2	466	998.179883676915	0
2	470	1002.472414686305	0
2	487	1031.121101478372	0
2	501	1059.823730250331	0
2	508	1076.500790552327	1.136352677695
2	537	1170.367082354032	0
2	542	1180.109766243292	0
2	558	1212.664506770435	0
2	574	1233.325160215043	0
2	591	1269.88515367764	0
2	594	1274.6853271525	1.033328915308
2	613	1313.594953314613	35.542017896073
2	616	1316.139897457481	13.385558817828
2	617	1317.031190237999	11.457071269365
2	624	1324.878822447943	18.483760058863
2	627	1330.612375934401	15.950823197186
2	630	1333.174311656304	0.190681418397
2	646	1359.150555686224	0
2	649	1363.697256601952	0
2	676	1444.719652389594	0
2	681	1450.44504109149	0
2	684	1458.253432588865	7.431742846011
2	689	1461.008519765219	0
2	707	1486.539293398296	0
2	714	1511.564798431682	0
2	721	1522.912315959582	0
2	742	1554.359213467081	0
2	750	1573.55463600345	0
2	771	1618.60610114374	0
2	781	1647.732977010864	0
2	784	1659.239793547637	6.523493307511
2	800	1699.903565993872	0
2	803	1700.389091065707	0.224359887959
2	808	1710.476124660103	6.380023317363
2	822	1732.70694833244	0
2	826	1739.431147144398	0
2	833	1749.110113364327	5.644911098835
2	840	1766.337715854552	16.472216578673
2	848	1781.419902188234	0
2	855	1799.447228643875	5.411357022685
2	889	1854.253817291772	0
2	911	1890.882005542659	0
2	914	1892.526856298367	1.56702345012
2	923	1906.259346134547	0
2	941	1951.970516732074	0
2	948	1972.812470886184	0
2	972	2016.313752534131	0
2	981	2026.634220104932	0
2	1013	2113.398607569763	0
2	1016	2122.859661153812	0
2	1033	2162.021322230943	0
2	1036	2165.890783281384	0
2	1039	2172.746428742143	0
2	1052	2189.245132141111	0
2	1067	2233.879336630663	0
2	1072	2239.267804364735	0
2	1083	2252.616090301519	0
2	1113	2345.378507754397	0
2	1120	2358.900332232856	0
2	1123	2370.717925181556	0
2	1139	2418.046391651931	0
2	1142	2423.759721043991	0
2	1148	2453.422693129747	0
2	1151	2458.491186840242	0
2	1159	2480.169364514395	0
3	153	375.1227981609	14
3	156	392.381356244795	15
3	161	397.993784783744	16
3	165	408.49418123919	17
3	180	433.888258083523	18
3	185	436.360081133576	19
3	192	451.547977488512	20
3	207	479.622471457736	21
3	208	480.281607792823	22
3	209	481.910306620337	23
3	212	486.414428086337	24
3	213	486.922500998314	25
3	237	534.253638120848	26
3	242	540.898349834745	27
3	250	558.177005693448	28
3	267	568.425019604697	29
3	268	569.601464196771	30
3	273	581.659160612678	31
3	282	595.48104758651	32
3	283	599.247692498882	33
3	284	602.126174259071	34
3	289	606.192458843415	35
3	296	619.203134966532	36
3	297	619.664146285111	37
3	305	626.570480311854	38
3	311	649.355915719029	39
3	320	660.705504415114	40
3	321	670.18368851737	41
3	326	695.238966176383	42
3	329	706.25585502405	43
3	341	728.335718759196	44
3	353	752.94857687453	45
3	356	762.255318394249	46
3	367	790.488478229844	47
3	370	797.635714866843	48
3	373	802.801898762698	49
3	391	847.365206813456	50
3	392	857.449744352612	51
3	412	894.64809894539	52
3	413	897.930110713504	53
3	419	908.06059576687	54
3	427	944.831340173748	55
3	454	981.891204977044	56
3	459	989.24526432616	57
3	462	995.983326147832	58
3	467	998.847659453747	59
3	475	1014.719556470249	60
3	492	1041.317935686792	61
3	508	1076.500790552327	62
3	509	1083.679353300373	63
3	538	1172.507241917795	64
3	543	1185.108159613176	65
3	559	1214.306284422127	66
3	575	1235.248270546515	67
3	594	1274.6853271525	68
3	613	1313.594953314613	69
3	616	1316.139897457481	70
3	617	1317.031190237999	71
3	624	1324.878822447943	72
3	627	1330.612375934401	73
3	630	1333.174311656304	74
3	637	1337.156264911054	75
3	647	1361.256919301887	76
3	650	1366.812692441684	77
3	677	1449.329128346843	78
3	684	1458.253432588865	79
3	685	1458.620137081661	80
3	690	1463.347374884437	81
3	708	1492.757786797626	82
3	715	1514.635210116819	83
3	726	1529.570503611471	84
3	745	1556.664075318141	85
3	751	1573.600837228158	86
3	778	1636.256046102989	87
3	784	1659.239793547637	88
3	791	1674.298066252488	89
3	803	1700.389091065707	90
3	808	1710.476124660103	91
3	809	1713.061136113138	92
3	823	1732.914975828336	93
3	833	1749.110113364327	94
3	840	1766.337715854552	95
3	841	1767.337433857547	96
3	855	1799.447228643875	97
3	858	1801.736336421762	98
3	894	1864.111507854464	99
3	914	1892.526856298367	100
3	915	1896.46517989115	101
3	924	1908.944350019394	102
3	946	1972.394384885881	103
3	955	1984.184017440829	104
3	977	2019.550945837422	105
3	988	2029.048594739697	106
3	1014	2115.702356995043	107
3	1017	2124.968710457234	108
3	1034	2162.120799233528	109
3	1037	2171.708673372119	110
3	1040	2172.980008509691	111
3	1053	2191.523045313153	112
3	1068	2234.206641786131	113
3	1073	2241.099140526959	114
3	1084	2253.437615802688	115
3	1114	2355.460201277653	116
3	1121	2359.104050791755	117
3	1126	2380.868795017123	118
3	1140	2419.586757229489	119
3	1143	2429.155491880343	120
3	1149	2458.133069490789	121
3	1152	2462.775959421297	122
3	1162	2481.350023540811	123
4	153	375.1227981609	6.291463616476
4	156	392.381356244795	3.270685818494
4	161	397.993784783744	5.523336598398
4	165	408.49418123919	1.636225896278
4	180	433.888258083523	7.474460811991
4	185	436.360081133576	8.143930813028
4	192	451.547977488512	21.982410308772
4	207	479.622471457736	40.253807503677
4	208	480.281607792823	26.863114566139
4	209	481.910306620337	21.629506034155
4	212	486.414428086337	20.992991693031
4	213	486.922500998314	18.591273823679
4	237	534.253638120848	1.98620485768
4	242	540.898349834745	8.427776687315
4	250	558.177005693448	6.22602950839
4	267	568.425019604697	5.825161440972
4	268	569.601464196771	3.434384866679
4	273	581.659160612678	1.923327222502
4	282	595.48104758651	7.64418910134
4	283	599.247692498882	10.978237513836
4	284	602.126174259071	13.086950764671
4	289	606.192458843415	0.755881574241
4	296	619.203134966532	5.872773058111
4	297	619.664146285111	4.717896281604
4	305	626.570480311854	1.550410892932
4	311	649.355915719029	13.862141855913
4	320	660.705504415114	8.766415671444
4	321	670.18368851737	10.703986189409
4	326	695.238966176383	34.622135458792
4	329	706.25585502405	16.197550206364
4	341	728.335718759196	3.895139246711
4	353	752.94857687453	10.131128726042
4	356	762.255318394249	11.818687676
4	367	790.488478229844	29.248194682577
4	370	797.635714866843	29.506333749684
4	373	802.801898762698	26.510642773274
4	391	847.365206813456	11.139780072346
4	392	857.449744352612	20.717049887849
4	412	894.64809894539	7.772185517859
4	413	897.930110713504	9.178456294681
4	419	908.06059576687	1.89077757424
4	427	944.831340173748	0.166990136358
4	454	981.891204977044	9.788776383175
4	459	989.24526432616	3.632319572122
4	462	995.983326147832	3.546539825634
4	467	998.847659453747	0.667775776832
4	475	1014.719556470249	12.247141783944
4	492	1041.317935686792	10.19683420842
4	508	1076.500790552327	16.677060301996
4	509	1083.679353300373	8.314915425741
4	538	1172.507241917795	2.140159563763
4	543	1185.108159613176	4.998393369884
4	559	1214.306284422127	1.641777651692
4	575	1235.248270546515	1.923110331472
4	594	1274.6853271525	4.80017347486
4	613	1313.594953314613	39.942955077421
4	616	1316.139897457481	38.086962038941
4	617	1317.031190237999	14.276851598346
4	624	1324.878822447943	19.304703479309
4	627	1330.612375934401	24.217313545321
4	630	1333.174311656304	18.512758919089
4	637	1337.156264911054	4.172634673147
4	647	1361.256919301887	2.106363615663
4	650	1366.812692441684	3.115435839732
4	677	1449.329128346843	4.609475957249
4	684	1458.253432588865	7.808391497375
4	685	1458.620137081661	7.798447338807
4	690	1463.347374884437	2.338855119218
4	708	1492.757786797626	6.21849339933
4	715	1514.635210116819	3.070411685137
4	726	1529.570503611471	6.658187651889
4	745	1556.664075318141	2.30486185106
4	751	1573.600837228158	0.046201224708
4	778	1636.256046102989	17.649944959249
4	784	1659.239793547637	11.506816536773
4	791	1674.298066252488	21.581766012362
4	803	1700.389091065707	0.485525071835
4	808	1710.476124660103	10.311393482355
4	809	1713.061136113138	8.965034770398
4	823	1732.914975828336	0.208027495896
4	833	1749.110113364327	9.678966219929
4	840	1766.337715854552	22.87251358906
4	841	1767.337433857547	17.471934581668
4	855	1799.447228643875	18.027326455641
4	858	1801.736336421762	7.700464800572
4	894	1864.111507854464	9.857690562692
4	914	1892.526856298367	1.644850755708
4	915	1896.46517989115	5.505347042903
4	924	1908.944350019394	2.685003884847
4	946	1972.394384885881	20.423868153807
4	955	1984.184017440829	11.371546554645
4	977	2019.550945837422	3.237193303291
4	988	2029.048594739697	2.414374634765
4	1014	2115.702356995043	2.30374942528
4	1017	2124.968710457234	2.109049303422
4	1034	2162.120799233528	0.099477002585
4	1037	2171.708673372119	5.817890090735
4	1040	2172.980008509691	0.233579767548
4	1053	2191.523045313153	2.277913172042
4	1068	2234.206641786131	0.327305155468
4	1073	2241.099140526959	1.831336162224
4	1084	2253.437615802688	0.821525501169
4	1114	2355.460201277653	10.081693523256
4	1121	2359.104050791755	0.203718558899
4	1126	2380.868795017123	10.150869835567
4	1140	2419.586757229489	1.540365577558
4	1143	2429.155491880343	5.395770836352
4	1149	2458.133069490789	4.710376361042
4	1152	2462.775959421297	4.284772581055
4	1162	2481.350023540811	1.180659026416
5	160	397.949897162909	1
5	167	411.471568794108	1
5	170	420.230523895315	1
5	173	423.626370630007	1
5	182	433.979021401061	2
5	184	434.997459550596	3
5	187	436.463358371075	4
5	191	447.3390123704	5
5	198	460.684561441791	6
5	200	462.209260645508	7
5	206	471.80022684556	8
5	211	482.12454206374	9
5	216	501.94602011595	9
5	220	504.152873383937	8
5	223	506.764314853358	8
5	228	516.720497587459	6
5	230	525.084643806652	7
5	239	535.727868267657	6
5	241	537.018404049543	7
5	245	549.634151508763	7
5	247	551.56278072711	8
5	252	559.039735221251	9
5	256	562.877230825547	10
5	258	562.954784115561	11
5	260	565.008561718757	12
5	262	565.430729754966	13
5	266	568.095931702788	14
5	270	571.345060115002	15
5	275	582.639845148548	16
5	291	608.459123519515	15
5	300	622.936509287057	15
5	304	626.569211957683	16
5	308	631.689727490417	16
5	315	659.407904956321	17
5	323	679.657796540349	18
5	328	701.327193298871	19
5	332	713.90688556752	19
5	335	720.086850441601	19
5	340	727.457895586696	19
5	344	733.313309239065	19
5	350	749.354740548087	18
5	360	776.276508363408	19
5	364	777.28756776415	20
5	366	787.378396625648	21
5	369	790.643643360153	22
5	372	800.042271453348	23
5	377	810.570050040013	22
5	381	817.725022293353	21
5	388	839.515907787457	21
5	390	841.688057020289	22
5	394	862.791215186079	23
5	397	869.66179205242	23
5	400	876.497427822597	23
5	402	877.513300832293	24
5	407	886.270071100297	22
5	415	902.631208475954	23
5	421	920.651580677701	23
5	423	936.116745149452	24
5	429	945.211657223258	24
5	435	958.429144938276	21
5	439	965.565444506313	20
5	441	965.738090244711	21
5	443	966.252998812531	22
5	445	969.063236927235	23
5	449	973.705196395811	24
5	451	975.394861851765	25
5	453	981.092227947627	26
5	464	997.320396551664	25
5	472	1004.131180005746	25
5	474	1009.808859567802	26
5	479	1017.930388621933	25
5	482	1022.419777073105	25
5	485	1025.300882535409	25
5	489	1037.939473070161	26
5	491	1039.229428256462	27
5	494	1049.658067412039	28
5	503	1061.06979822698	24
5	505	1071.919528734719	25
5	512	1095.56391038071	25
5	515	1103.766454948256	25
5	518	1110.542400832551	25
5	522	1123.489569023027	24
5	524	1124.218693505945	25
5	531	1152.481030913731	21
5	533	1158.036682929179	22
5	547	1197.501637819124	17
5	549	1200.101138425325	18
5	553	1211.222097662782	17
5	555	1211.487149992353	18
5	564	1222.187040243271	15
5	567	1229.137359880271	15
5	570	1230.742420810067	15
5	578	1241.579059115042	13
5	580	1243.485386794217	14
5	584	1259.835760388708	13
5	587	1261.215077139916	13
5	598	1281.144771545962	12
5	600	1286.813517328929	13
5	602	1290.596789691155	14
5	608	1305.962453132044	15
5	612	1312.995428447974	16
5	619	1317.376687031108	17
5	621	1320.216093915217	18
5	623	1324.53062450491	19
5	626	1325.881155680585	20
5	632	1335.272079502913	21
5	634	1335.806599765196	22
5	636	1336.515749204007	23
5	640	1342.118909752105	23
5	654	1384.84673323077	18
5	656	1386.893093362784	19
5	658	1391.798389368981	20
5	662	1403.202839834223	19
5	664	1403.920456823309	20
5	668	1420.273671390911	19
5	674	1440.173971765543	16
5	679	1449.518260083194	17
5	687	1460.539974187747	18
5	692	1467.848024405061	19
5	694	1469.095230486552	20
5	696	1469.985964243131	21
5	702	1480.056475120775	18
5	704	1481.268096005576	19
5	710	1497.204046517625	19
5	717	1518.875082245208	18
5	723	1525.623965836859	17
5	725	1527.782095723479	18
5	728	1529.596622400465	19
5	731	1531.339929549102	19
5	734	1539.152779654656	19
5	736	1540.895297695028	20
5	740	1552.853280549139	19
5	744	1554.383510647309	20
5	748	1572.961662525789	20
5	755	1575.714470806213	19
5	757	1583.828528454689	20
5	763	1598.809142560443	17
5	766	1613.696400737282	17
5	773	1621.907817106086	15
5	775	1622.31002925285	16
5	777	1624.358444580792	17
5	786	1663.757812045068	17
5	788	1666.416554936188	18
5	790	1672.64424859245	19
5	793	1680.526224448561	20
5	807	1710.318132843612	16
5	811	1714.293339977835	17
5	814	1718.084805929546	17
5	816	1725.484517705623	18
5	819	1726.975676381114	18
5	828	1743.294389927774	17
5	832	1744.421660029402	18
5	837	1755.941372109301	19
5	839	1763.668176453331	20
5	843	1770.221910112845	21
5	850	1790.113433138279	19
5	852	1791.583001313832	20
5	857	1801.182068619676	21
5	861	1804.051889999432	21
5	863	1816.993400954675	22
5	866	1819.834835112653	22
5	869	1821.339737626092	22
5	872	1825.14610524439	22
5	875	1828.541154669257	22
5	877	1828.717307722878	23
5	879	1829.424264379244	24
5	881	1834.169884143891	25
5	884	1839.70340363286	25
5	886	1843.468980196812	26
5	891	1855.716236927823	26
5	893	1861.806249823189	27
5	897	1869.715884528952	27
5	899	1871.377560180694	28
5	901	1873.028429102896	29
5	905	1877.997101666317	28
5	919	1903.84832920382	23
5	927	1910.23864665529	21
5	934	1923.432083544034	17
5	943	1960.039365907734	13
5	945	1968.288958189991	14
5	950	1975.326106130925	15
5	952	1980.980090044125	16
5	954	1982.684070999175	17
5	967	1999.747928399395	8
5	970	2010.133410106158	8
5	974	2016.520771429637	9
5	976	2016.753743487101	10
5	983	2027.642227590007	9
5	985	2027.966526499892	10
5	987	2028.769498076468	11
5	991	2033.860208532856	11
5	997	2049.487973869718	8
5	1000	2060.097357441063	8
5	1003	2069.15897862647	8
5	1019	2134.481129799226	1
5	1021	2142.074008915878	2
5	1023	2146.781749050434	3
5	1025	2146.784535038275	4
5	1027	2148.086814447921	5
5	1030	2158.500431566153	5
5	1045	2177.132411439339	2
5	1047	2177.799656478916	3
5	1055	2193.954006118779	1
5	1058	2206.945878337797	1
5	1060	2208.441259711246	2
5	1062	2209.854623402569	3
5	1070	2237.548623821418	1
5	1075	2241.407922421277	2
5	1077	2241.759293760181	3
5	1080	2244.136904210264	3
5	1086	2258.445932998195	3
5	1088	2258.665064005915	4
5	1094	2297.678040884525	1
5	1096	2298.970300673345	2
5	1098	2302.107353899143	3
5	1100	2309.250515592818	4
5	1104	2319.217539614216	3
5	1109	2341.010863998471	1
5	1111	2343.787560148528	2
5	1116	2356.269138156631	3
5	1118	2357.424688540216	4
5	1125	2371.83423005954	5
5	1132	2405.260191258795	2
5	1135	2409.872830752608	2
5	1145	2435.258806490311	1
5	1154	2465.030252498576	1
5	1157	2475.340337087485	1
5	1161	2480.296612191078	2
5	1165	2486.589377076387	2
5	1169	2495.328009140238	1
6	160	397.949897162909	0
6	162	400.831818165059	0
6	167	411.471568794108	0
6	168	411.563435355048	0
6	170	420.230523895315	0
6	171	422.574068046056	0
6	173	423.626370630007	0
6	182	433.979021401061	1
6	184	434.997459550596	2
6	187	436.463358371075	3
6	191	447.3390123704	4
6	198	460.684561441791	5
6	200	462.209260645508	6
6	206	471.80022684556	7
6	211	482.12454206374	8
6	214	498.989127741136	8
6	216	501.94602011595	8
6	217	502.2330404685	8
6	218	504.094142040712	7
6	220	504.152873383937	7
6	221	505.186198674264	7
6	223	506.764314853358	7
6	224	514.399346329776	7
6	225	516.220982627417	6
6	226	516.334242509074	5
6	228	516.720497587459	5
6	230	525.084643806652	6
6	231	525.676434699143	6
6	232	530.026068586053	5
6	239	535.727868267657	5
6	241	537.018404049543	6
6	243	545.532140377877	6
6	245	549.634151508763	6
6	247	551.56278072711	7
6	252	559.039735221251	8
6	256	562.877230825547	9
6	258	562.954784115561	10
6	260	565.008561718757	11
6	262	565.430729754966	12
6	266	568.095931702788	13
6	270	571.345060115002	14
6	275	582.639845148548	15
6	285	604.016867653522	15
6	286	605.240736208246	14
6	291	608.459123519515	14
6	298	621.257554587484	14
6	300	622.936509287057	14
6	304	626.569211957683	15
6	306	631.574734284888	15
6	308	631.689727490417	15
6	315	659.407904956321	16
6	323	679.657796540349	17
6	328	701.327193298871	18
6	330	708.543423160512	18
6	332	713.90688556752	18
6	333	718.621335739382	18
6	335	720.086850441601	18
6	336	723.332551653779	18
6	340	727.457895586696	18
6	342	732.040573885662	18
6	344	733.313309239065	18
6	345	735.413232490993	18
6	346	736.270763423038	17
6	350	749.354740548087	17
6	360	776.276508363408	18
6	364	777.28756776415	19
6	366	787.378396625648	20
6	369	790.643643360153	21
6	372	800.042271453348	22
6	374	809.230256768628	22
6	375	809.350991616249	21
6	377	810.570050040013	21
6	378	813.65164572434	21
6	379	816.642324683144	20
6	381	817.725022293353	20
6	382	820.386635389853	20
6	388	839.515907787457	20
6	390	841.688057020289	21
6	394	862.791215186079	22
6	395	864.794337790418	22
6	397	869.66179205242	22
6	398	873.836430005277	22
6	400	876.497427822597	22
6	402	877.513300832293	23
6	403	881.079670198233	23
6	404	884.298548800795	22
6	405	885.54760437731	21
6	407	886.270071100297	21
6	415	902.631208475954	22
6	416	904.832892267822	22
6	421	920.651580677701	22
6	423	936.116745149452	23
6	424	937.401233014605	23
6	429	945.211657223258	23
6	430	952.477365530657	23
6	431	953.162243274965	22
6	432	955.540524932242	21
6	433	958.090190254957	20
6	435	958.429144938276	20
6	436	960.364691259108	20
6	437	965.563842851443	19
6	439	965.565444506313	19
6	441	965.738090244711	20
6	443	966.252998812531	21
6	445	969.063236927235	22
6	449	973.705196395811	23
6	451	975.394861851765	24
6	453	981.092227947627	25
6	455	981.975104560758	25
6	456	982.724790760915	24
6	464	997.320396551664	24
6	468	999.126216337673	24
6	472	1004.131180005746	24
6	474	1009.808859567802	25
6	476	1016.16654906076	25
6	477	1017.866446234129	24
6	479	1017.930388621933	24
6	480	1021.939168773579	24
6	482	1022.419777073105	24
6	483	1024.725658317976	24
6	485	1025.300882535409	24
6	489	1037.939473070161	25
6	491	1039.229428256462	26
6	494	1049.658067412039	27
6	495	1050.433585453281	27
6	496	1052.76921753919	26
6	497	1053.256487979463	25
6	498	1053.316624962251	24
6	499	1056.272945584527	23
6	503	1061.06979822698	23
6	505	1071.919528734719	24
6	510	1083.96410188071	24
6	512	1095.56391038071	24
6	513	1098.677895209329	24
6	515	1103.766454948256	24
6	516	1109.613863964025	24
6	518	1110.542400832551	24
6	519	1115.07451502065	24
6	520	1116.926171657314	23
6	522	1123.489569023027	23
6	524	1124.218693505945	24
6	525	1126.128326383523	24
6	526	1126.61906199432	23
6	527	1133.054323570974	22
6	528	1134.790630778046	21
6	529	1138.894038287916	20
6	531	1152.481030913731	20
6	533	1158.036682929179	21
6	534	1160.502556875281	21
6	535	1163.268326045241	20
6	539	1175.411029544241	19
6	540	1178.982385913507	18
6	544	1185.920939856976	17
6	545	1191.488915356715	16
6	547	1197.501637819124	16
6	549	1200.101138425325	17
6	550	1207.181681036729	17
6	551	1210.754673225683	16
6	553	1211.222097662782	16
6	555	1211.487149992353	17
6	556	1211.68461499573	17
6	560	1217.115271357803	16
6	561	1218.660699383483	15
6	562	1218.685344394932	14
6	564	1222.187040243271	14
6	565	1228.863658690371	14
6	567	1229.137359880271	14
6	568	1230.729118334272	14
6	570	1230.742420810067	14
6	571	1231.566305979482	14
6	572	1231.939510555615	13
6	576	1237.703086438224	12
6	578	1241.579059115042	12
6	580	1243.485386794217	13
6	581	1250.617100234722	13
6	582	1252.969195824356	12
6	584	1259.835760388708	12
6	585	1260.32320579681	12
6	587	1261.215077139916	12
6	588	1264.862916958488	12
6	589	1265.54753409027	11
6	598	1281.144771545962	11
6	600	1286.813517328929	12
6	602	1290.596789691155	13
6	608	1305.962453132044	14
6	612	1312.995428447974	15
6	619	1317.376687031108	16
6	621	1320.216093915217	17
6	623	1324.53062450491	18
6	626	1325.881155680585	19
6	632	1335.272079502913	20
6	634	1335.806599765196	21
6	636	1336.515749204007	22
6	638	1342.051850629616	22
6	640	1342.118909752105	22
6	641	1344.976571445193	22
6	642	1349.862560721338	21
6	643	1353.341336914844	20
6	644	1355.824684442724	19
6	651	1377.146954510285	18
6	652	1380.557106352766	17
6	654	1384.84673323077	17
6	656	1386.893093362784	18
6	658	1391.798389368981	19
6	659	1393.043827319249	19
6	660	1396.423713672865	18
6	662	1403.202839834223	18
6	664	1403.920456823309	19
6	665	1405.98258694159	19
6	666	1407.674690276378	18
6	668	1420.273671390911	18
6	669	1422.226871385644	18
6	670	1430.972120566764	17
6	671	1431.300242627969	16
6	672	1432.174771099774	15
6	674	1440.173971765543	15
6	679	1449.518260083194	16
6	687	1460.539974187747	17
6	692	1467.848024405061	18
6	694	1469.095230486552	19
6	696	1469.985964243131	20
6	697	1470.358626237934	20
6	698	1473.790685461886	19
6	699	1476.646737705499	18
6	700	1477.00738795728	17
6	702	1480.056475120775	17
6	704	1481.268096005576	18
6	705	1485.20129960302	18
6	710	1497.204046517625	18
6	711	1500.892975240971	18
6	712	1501.246467555324	17
6	717	1518.875082245208	17
6	718	1519.392167152305	17
6	719	1521.266425212486	16
6	723	1525.623965836859	16
6	725	1527.782095723479	17
6	728	1529.596622400465	18
6	729	1529.734842604989	18
6	731	1531.339929549102	18
6	732	1531.828610626322	18
6	734	1539.152779654656	18
6	736	1540.895297695028	19
6	737	1544.995925808096	19
6	738	1551.912117647697	18
6	740	1552.853280549139	18
6	744	1554.383510647309	19
6	746	1557.278348797537	19
6	748	1572.961662525789	19
6	752	1574.435642556854	19
6	753	1575.561431301026	18
6	755	1575.714470806213	18
6	757	1583.828528454689	19
6	758	1585.327666254896	19
6	759	1592.803559296288	18
6	760	1594.081854918045	17
6	761	1597.955978120918	16
6	763	1598.809142560443	16
6	764	1611.291208639064	16
6	766	1613.696400737282	16
6	767	1613.720705256446	16
6	768	1614.066413453807	15
6	769	1614.66819087164	14
6	773	1621.907817106086	14
6	775	1622.31002925285	15
6	777	1624.358444580792	16
6	779	1645.071436026991	16
6	786	1663.757812045068	16
6	788	1666.416554936188	17
6	790	1672.64424859245	18
6	793	1680.526224448561	19
6	794	1683.764192176694	19
6	795	1684.224099821585	18
6	796	1685.309767777654	17
6	797	1688.895403014648	16
6	798	1691.432714597093	15
6	807	1710.318132843612	15
6	811	1714.293339977835	16
6	812	1717.947635825414	16
6	814	1718.084805929546	16
6	816	1725.484517705623	17
6	817	1726.642056431885	17
6	819	1726.975676381114	17
6	820	1729.848459291082	17
6	824	1733.873980324951	16
6	828	1743.294389927774	16
6	832	1744.421660029402	17
6	837	1755.941372109301	18
6	839	1763.668176453331	19
6	843	1770.221910112845	20
6	844	1777.627952230644	20
6	845	1779.115838738606	19
6	846	1780.026546270344	18
6	850	1790.113433138279	18
6	852	1791.583001313832	19
6	857	1801.182068619676	20
6	859	1802.572519240589	20
6	861	1804.051889999432	20
6	863	1816.993400954675	21
6	864	1817.018373325986	21
6	866	1819.834835112653	21
6	867	1821.243702492818	21
6	869	1821.339737626092	21
6	870	1822.841915923462	21
6	872	1825.14610524439	21
6	873	1826.93298722509	21
6	875	1828.541154669257	21
6	877	1828.717307722878	22
6	879	1829.424264379244	23
6	881	1834.169884143891	24
6	882	1837.011104675301	24
6	884	1839.70340363286	24
6	886	1843.468980196812	25
6	887	1851.831307263896	25
6	891	1855.716236927823	25
6	893	1861.806249823189	26
6	895	1869.441824433629	26
6	897	1869.715884528952	26
6	899	1871.377560180694	27
6	901	1873.028429102896	28
6	902	1873.594277068526	28
6	903	1876.937742124821	27
6	905	1877.997101666317	27
6	906	1880.834646612131	27
6	907	1881.762411911451	26
6	908	1887.936646242195	25
6	909	1889.740382338017	24
6	916	1897.7673343046	23
6	917	1900.852718587146	22
6	919	1903.84832920382	22
6	920	1903.961736476112	22
6	921	1905.07743034548	21
6	925	1910.073386572308	20
6	927	1910.23864665529	20
6	928	1915.620342075152	20
6	929	1918.179985917051	19
6	930	1919.628814864232	18
6	931	1920.313661918481	17
6	932	1922.517770130044	16
6	934	1923.432083544034	16
6	935	1929.919830237408	16
6	936	1939.697049488973	15
6	937	1939.771919959931	14
6	938	1942.105433874157	13
6	939	1951.74675757821	12
6	943	1960.039365907734	12
6	945	1968.288958189991	13
6	950	1975.326106130925	14
6	952	1980.980090044125	15
6	954	1982.684070999175	16
6	956	1987.188801143959	16
6	957	1988.316859395157	15
6	958	1990.656650470494	14
6	959	1991.366811224424	13
6	960	1992.350615360539	12
6	961	1994.924881397538	11
6	962	1995.41708325429	10
6	963	1995.906782088156	9
6	964	1999.022450662271	8
6	965	1999.368412744004	7
6	967	1999.747928399395	7
6	968	2003.54231378098	7
6	970	2010.133410106158	7
6	974	2016.520771429637	8
6	976	2016.753743487101	9
6	978	2021.707509092189	9
6	979	2026.429964783298	8
6	983	2027.642227590007	8
6	985	2027.966526499892	9
6	987	2028.769498076468	10
6	989	2030.441397957777	10
6	991	2033.860208532856	10
6	992	2040.090334828903	10
6	993	2041.006650777614	9
6	994	2044.3356333513	8
6	995	2045.978028481969	7
6	997	2049.487973869718	7
6	998	2059.320578178418	7
6	1000	2060.097357441063	7
6	1001	2062.926947666318	7
6	1003	2069.15897862647	7
6	1004	2069.370958202131	7
6	1005	2073.291687368764	6
6	1006	2076.608776000809	5
6	1007	2078.168224307328	4
6	1008	2082.472322757579	3
6	1009	2083.150658586289	2
6	1010	2086.156517568739	1
6	1011	2094.217280199069	0
6	1019	2134.481129799226	0
6	1021	2142.074008915878	1
6	1023	2146.781749050434	2
6	1025	2146.784535038275	3
6	1027	2148.086814447921	4
6	1028	2154.185979980046	4
6	1030	2158.500431566153	4
6	1031	2161.557104856154	4
6	1041	2173.120810986732	3
6	1042	2174.244372176103	2
6	1043	2174.486790486235	1
6	1045	2177.132411439339	1
6	1047	2177.799656478916	2
6	1048	2180.434002135983	2
6	1049	2183.102034457716	1
6	1050	2184.411358016448	0
6	1055	2193.954006118779	0
6	1056	2200.805592296526	0
6	1058	2206.945878337797	0
6	1060	2208.441259711246	1
6	1062	2209.854623402569	2
6	1063	2211.298525352439	2
6	1064	2213.291789967751	1
6	1065	2218.298859251095	0
6	1070	2237.548623821418	0
6	1075	2241.407922421277	1
6	1077	2241.759293760181	2
6	1078	2243.515122249749	2
6	1080	2244.136904210264	2
6	1081	2251.013417297429	2
6	1086	2258.445932998195	2
6	1088	2258.665064005915	3
6	1089	2259.03282581837	3
6	1090	2266.023598524902	2
6	1091	2267.961257440548	1
6	1092	2269.964567389314	0
6	1094	2297.678040884525	0
6	1096	2298.970300673345	1
6	1098	2302.107353899143	2
6	1100	2309.250515592818	3
6	1101	2316.432119668767	3
6	1102	2316.838975664069	2
6	1104	2319.217539614216	2
6	1105	2321.74375776485	2
6	1106	2323.052760293489	1
6	1107	2331.42639729332	0
6	1109	2341.010863998471	0
6	1111	2343.787560148528	1
6	1116	2356.269138156631	2
6	1118	2357.424688540216	3
6	1125	2371.83423005954	4
6	1127	2384.074219145671	4
6	1128	2396.274213636445	3
6	1129	2398.557173033303	2
6	1130	2403.272900670313	1
6	1132	2405.260191258795	1
6	1133	2409.628630788921	1
6	1135	2409.872830752608	1
6	1136	2410.318594669158	1
6	1137	2416.268149268554	0
6	1145	2435.258806490311	0
6	1146	2436.182711402377	0
6	1154	2465.030252498576	0
6	1155	2466.797880332776	0
6	1157	2475.340337087485	0
6	1161	2480.296612191078	1
6	1163	2483.879507943403	1
6	1165	2486.589377076387	1
6	1166	2492.488463938263	1
6	1167	2494.358693378598	0
6	1169	2495.328009140238	0
7	161	397.993784783744	0.043887620835
7	167	411.471568794108	0
7	170	420.230523895315	0
7	173	423.626370630007	0
7	213	486.922500998314	60.508703726782
7	214	498.989127741136	65.010106340075
7	217	502.2330404685	67.235580917904
7	218	504.094142040712	67.630783669637
7	221	505.186198674264	57.847186303864
7	224	514.399346329776	53.714784887985
7	225	516.220982627417	54.011721981909
7	226	516.334242509074	44.534015663514
7	231	525.676434699143	43.551892635403
7	232	530.026068586053	28.080048470103
7	242	540.898349834745	36.745476450808
7	243	545.532140377877	38.767825524519
7	250	558.177005693448	41.456508105989
7	268	569.601464196771	44.516820390119
7	273	581.659160612678	49.39172734951
7	284	602.126174259071	66.398305991414
7	285	604.016867653522	66.998463603979
7	286	605.240736208246	55.606584699483
7	289	606.192458843415	54.629678116305
7	297	619.664146285111	67.713170100053
7	298	621.257554587484	62.217819366233
7	305	626.570480311854	63.970622148129
7	306	631.574734284888	68.697503459341
7	311	649.355915719029	86.401131603468
7	329	706.25585502405	141.24729330529
7	330	708.543423160512	143.11269340555
7	333	718.621335739382	150.52540403659
7	336	723.332551653779	151.98749153878
7	341	728.335718759196	148.59988536902
7	342	732.040573885662	149.40072873711
7	345	735.413232490993	147.57637400582
7	346	736.270763423038	130.83418615386
7	373	802.801898762698	194.34277524318
7	374	809.230256768628	195.89989486021
7	375	809.350991616249	186.41448232919
7	378	813.65164572434	188.63157630542
7	379	816.642324683144	190.07311272546
7	382	820.386635389853	188.69690789944
7	392	857.449744352612	221.9559704895
7	395	864.794337790418	212.85524904675
7	398	873.836430005277	214.42852504896
7	403	881.079670198233	201.42187365788
7	404	884.298548800795	182.97135550192
7	405	885.54760437731	171.64071880979
7	413	897.930110713504	177.8432602719
7	416	904.832892267822	180.39231275534
7	419	908.06059576687	180.60270018017
7	424	937.401233014605	204.08792377554
7	427	944.831340173748	202.01389202526
7	430	952.477365530657	203.12262498257
7	431	953.162243274965	176.88573491156
7	432	955.540524932242	178.25295716809
7	433	958.090190254957	170.71179362931
7	436	960.364691259108	169.72104789895
7	437	965.563842851443	165.5215713981
7	454	981.891204977044	171.32115493703
7	455	981.975104560758	164.2500822674
7	456	982.724790760915	146.49936401981
7	459	989.24526432616	149.7293565387
7	462	995.983326147832	154.29526912754
7	467	998.847659453747	136.05644426767
7	468	999.126216337673	129.46442428525
7	475	1014.719556470249	138.22212864765
7	476	1016.16654906076	138.65324822847
7	477	1017.866446234129	131.59637513383
7	480	1021.939168773579	135.06325534605
7	483	1024.725658317976	122.09444984202
7	492	1041.317935686792	135.14811749416
7	495	1050.433585453281	129.78200477558
7	496	1052.76921753919	116.65247238974
7	497	1053.256487979463	108.59213794207
7	498	1053.316624962251	108.10496773899
7	499	1056.272945584527	97.843800646251
7	509	1083.679353300373	118.11390879406
7	510	1083.96410188071	118.226011636
7	513	1098.677895209329	132.4248963968
7	516	1109.613863964025	140.55062703679
7	519	1115.07451502065	142.97208642678
7	520	1116.926171657314	143.2209752615
7	525	1126.128326383523	150.73346453176
7	526	1126.61906199432	145.52683404669
7	527	1133.054323570974	147.44137881694
7	528	1134.790630778046	142.35384445585
7	529	1138.894038287916	141.57364173625
7	534	1160.502556875281	162.32267319837
7	535	1163.268326045241	160.79591135894
7	538	1172.507241917795	168.37606191205
7	539	1175.411029544241	165.60216997644
7	540	1178.982385913507	161.05199729157
7	543	1185.108159613176	162.68838254007
7	544	1185.920939856976	160.62005732157
7	545	1191.488915356715	160.36781387834
7	550	1207.181681036729	169.24220796657
7	551	1210.754673225683	171.52524496922
7	556	1211.68461499573	162.02654758369
7	559	1214.306284422127	154.4825541718
7	560	1217.115271357803	156.04547313082
7	561	1218.660699383483	146.74117064876
7	562	1218.685344394932	123.12143401422
7	565	1228.863658690371	125.09720374211
7	568	1230.729118334272	120.18671750172
7	571	1231.566305979482	108.07673695645
7	572	1231.939510555615	107.72081704967
7	575	1235.248270546515	82.767239632784
7	576	1237.703086438224	79.666403509045
7	581	1250.617100234722	80.25001788069
7	582	1252.969195824356	72.859429581064
7	585	1260.32320579681	62.821567977686
7	588	1264.862916958488	64.761778533163
7	589	1265.54753409027	54.325436427488
7	637	1337.156264911054	125.6691149187
7	638	1342.051850629616	129.38734385918
7	641	1344.976571445193	122.78953120192
7	642	1349.862560721338	120.72520084107
7	643	1353.341336914844	122.59891610478
7	644	1355.824684442724	122.49952422768
7	647	1361.256919301887	119.67786018684
7	650	1366.812692441684	123.32730564747
7	651	1377.146954510285	117.31119412158
7	652	1380.557106352766	119.34202921285
7	659	1393.043827319249	123.15867364161
7	660	1396.423713672865	115.2789421269
7	665	1405.98258694159	119.16906961266
7	666	1407.674690276378	117.07790058522
7	669	1422.226871385644	116.2644182536
7	670	1430.972120566764	117.97669211879
7	671	1431.300242627969	113.92355559686
7	672	1432.174771099774	111.95867718456
7	677	1449.329128346843	124.79850384193
7	685	1458.620137081661	132.73898140108
7	690	1463.347374884437	128.07529538152
7	697	1470.358626237934	134.55202647274
7	698	1473.790685461886	137.27493625788
7	699	1476.646737705499	134.52782795339
7	700	1477.00738795728	117.85683227106
7	705	1485.20129960302	121.50404300107
7	708	1492.757786797626	107.91105356686
7	711	1500.892975240971	113.99988187819
7	712	1501.246467555324	109.44807818634
7	715	1514.635210116819	111.4323702826
7	718	1519.392167152305	115.471710329
7	719	1521.266425212486	100.99275382157
7	726	1529.570503611471	89.396531845928
7	729	1529.734842604989	85.015190215395
7	732	1531.828610626322	82.310350543128
7	737	1544.995925808096	94.550884716606
7	738	1551.912117647697	91.37214345995
7	745	1556.664075318141	95.655555552922
7	746	1557.278348797537	89.430324392476
7	751	1573.600837228158	104.50560674161
7	752	1574.435642556854	104.44967831372
7	753	1575.561431301026	95.504956180251
7	758	1585.327666254896	104.05957024932
7	759	1592.803559296288	106.26426589799
7	760	1594.081854918045	96.87780840042
7	761	1597.955978120918	86.391179689236
7	764	1611.291208639064	92.416126393856
7	767	1613.720705256446	90.808389296864
7	768	1614.066413453807	88.442447616948
7	769	1614.66819087164	86.886095148161
7	778	1636.256046102989	106.65942370252
7	779	1645.071436026991	113.73150647789
7	791	1674.298066252488	135.14528659783
7	794	1683.764192176694	142.86889448167
7	795	1684.224099821585	131.37081927245
7	796	1685.309767777654	130.95055431057
7	797	1688.895403014648	134.51189236734
7	798	1691.432714597093	118.4710520713
7	809	1713.061136113138	139.50650010969
7	812	1717.947635825414	142.2331650192
7	817	1726.642056431885	142.8135279772
7	820	1729.848459291082	131.03931673064
7	823	1732.914975828336	119.21857509105
7	824	1733.873980324951	115.26787918121
7	841	1767.337433857547	145.42961675146
7	844	1777.627952230644	155.31792297779
7	845	1779.115838738606	154.75739415781
7	846	1780.026546270344	132.29356925948
7	858	1801.736336421762	137.97852437669
7	859	1802.572519240589	136.1559643044
7	864	1817.018373325986	144.37412473354
7	867	1821.243702492818	140.71747804426
7	870	1822.841915923462	122.93834992959
7	873	1826.93298722509	116.61485438148
7	882	1837.011104675301	122.71776469747
7	887	1851.831307263896	133.74650133435
7	894	1864.111507854464	138.62699014884
7	895	1869.441824433629	142.46614805251
7	902	1873.594277068526	140.88732873609
7	903	1876.937742124821	137.50659498042
7	906	1880.834646612131	137.54025668436
7	907	1881.762411911451	137.34075188205
7	908	1887.936646242195	131.99527413289
7	909	1889.740382338017	126.07220588469
7	915	1896.46517989115	126.2432697783
7	916	1897.7673343046	116.34743211637
7	917	1900.852718587146	110.73928544887
7	920	1903.961736476112	112.37873516228
7	921	1905.07743034548	103.8953617258
7	924	1908.944350019394	104.89246001996
7	925	1910.073386572308	93.079985617633
7	928	1915.620342075152	95.785506962499
7	929	1918.179985917051	96.840248290959
7	930	1919.628814864232	94.482709619842
7	931	1920.313661918481	91.772507249224
7	932	1922.517770130044	93.800462407166
7	935	1929.919830237408	100.49556585816
7	936	1939.697049488973	105.52716534508
7	937	1939.771919959931	100.06851632707
7	938	1942.105433874157	98.636453677345
7	939	1951.74675757821	97.492940286438
7	946	1972.394384885881	116.67814795806
7	955	1984.184017440829	122.37776761764
7	956	1987.188801143959	117.47291661501
7	957	1988.316859395157	116.93929921446
7	958	1990.656650470494	117.6282213676
7	959	1991.366811224424	113.36970955811
7	960	1992.350615360539	101.46860981788
7	961	1994.924881397538	91.076552193718
7	962	1995.41708325429	89.157737119743
7	963	1995.906782088156	85.668135432866
7	964	1999.022450662271	75.590367118237
7	965	1999.368412744004	47.39789601193
7	968	2003.54231378098	43.502947873246
7	977	2019.550945837422	51.261987647431
7	978	2021.707509092189	48.895038206005
7	979	2026.429964783298	51.103858652373
7	988	2029.048594739697	48.068504695572
7	989	2030.441397957777	47.757326958602
7	992	2040.090334828903	40.342406429508
7	993	2041.006650777614	30.873240671456
7	994	2044.3356333513	28.021880817169
7	995	2045.978028481969	29.457257052332
7	998	2059.320578178418	42.566834691317
7	1001	2062.926947666318	36.292727561386
7	1004	2069.370958202131	41.728730612124
7	1005	2073.291687368764	45.325160868872
7	1006	2076.608776000809	47.839277924341
7	1007	2078.168224307328	44.308015774472
7	1008	2082.472322757579	32.984348887861
7	1009	2083.150658586289	23.053301145226
7	1010	2086.156517568739	16.997538942269
7	1019	2134.481129799226	0
7	1028	2154.185979980046	12.111971064168
7	1031	2161.557104856154	14.77535580572
7	1034	2162.120799233528	15.336264195253
7	1037	2171.708673372119	23.621858924198
7	1040	2172.980008509691	14.479576943538
7	1041	2173.120810986732	11.099488755789
7	1042	2174.244372176103	8.353588894719
7	1043	2174.486790486235	1.740361744092
7	1048	2180.434002135983	3.301590696644
7	1049	2183.102034457716	5.3023779788
7	1055	2193.954006118779	0
7	1058	2206.945878337797	0
7	1063	2211.298525352439	2.857265641193
7	1064	2213.291789967751	3.437166565182
7	1070	2237.548623821418	0
7	1073	2241.099140526959	1.831336162224
7	1078	2243.515122249749	2.107199828472
7	1081	2251.013417297429	9.254123537248
7	1084	2253.437615802688	9.300711592424
7	1089	2259.03282581837	6.416735516851
7	1090	2266.023598524902	7.577665526707
7	1091	2267.961257440548	9.296193434633
7	1094	2297.678040884525	0
7	1101	2316.432119668767	17.461818995422
7	1102	2316.838975664069	14.731621764926
7	1105	2321.74375776485	12.493242172032
7	1106	2323.052760293489	3.835220679273
7	1109	2341.010863998471	0
7	1114	2355.460201277653	11.672641129125
7	1121	2359.104050791755	13.725543037358
7	1126	2380.868795017123	24.599656860492
7	1127	2384.074219145671	26.649530605455
7	1128	2396.274213636445	37.373881403589
7	1129	2398.557173033303	27.839247851747
7	1130	2403.272900670313	31.438670610773
7	1133	2409.628630788921	4.368439530126
7	1136	2410.318594669158	0.44576391655
7	1145	2435.258806490311	0
7	1154	2465.030252498576	0
7	1157	2475.340337087485	0
7	1162	2481.350023540811	1.180659026416
7	1163	2483.879507943403	3.582895752325
7	1166	2492.488463938263	5.899086861876
7	1169	2495.328009140238	0
8	162	400.831818165059	38
8	168	411.563435355048	39
8	171	422.574068046056	40
8	214	498.989127741136	41
8	217	502.2330404685	42
8	218	504.094142040712	43
8	221	505.186198674264	44
8	224	514.399346329776	45
8	225	516.220982627417	46
8	226	516.334242509074	47
8	231	525.676434699143	48
8	232	530.026068586053	49
8	243	545.532140377877	50
8	285	604.016867653522	51
8	286	605.240736208246	52
8	298	621.257554587484	53
8	306	631.574734284888	54
8	330	708.543423160512	55
8	333	718.621335739382	56
8	336	723.332551653779	57
8	342	732.040573885662	58
8	345	735.413232490993	59
8	346	736.270763423038	60
8	374	809.230256768628	61
8	375	809.350991616249	62
8	378	813.65164572434	63
8	379	816.642324683144	64
8	382	820.386635389853	65
8	395	864.794337790418	66
8	398	873.836430005277	67
8	403	881.079670198233	68
8	404	884.298548800795	69
8	405	885.54760437731	70
8	416	904.832892267822	71
8	424	937.401233014605	72
8	430	952.477365530657	73
8	431	953.162243274965	74
8	432	955.540524932242	75
8	433	958.090190254957	76
8	436	960.364691259108	77
8	437	965.563842851443	78
8	455	981.975104560758	79
8	456	982.724790760915	80
8	468	999.126216337673	81
8	476	1016.16654906076	82
8	477	1017.866446234129	83
8	480	1021.939168773579	84
8	483	1024.725658317976	85
8	495	1050.433585453281	86
8	496	1052.76921753919	87
8	497	1053.256487979463	88
8	498	1053.316624962251	89
8	499	1056.272945584527	90
8	510	1083.96410188071	91
8	513	1098.677895209329	92
8	516	1109.613863964025	93
8	519	1115.07451502065	94
8	520	1116.926171657314	95
8	525	1126.128326383523	96
8	526	1126.61906199432	97
8	527	1133.054323570974	98
8	528	1134.790630778046	99
8	529	1138.894038287916	100
8	534	1160.502556875281	101
8	535	1163.268326045241	102
8	539	1175.411029544241	103
8	540	1178.982385913507	104
8	544	1185.920939856976	105
8	545	1191.488915356715	106
8	550	1207.181681036729	107
8	551	1210.754673225683	108
8	556	1211.68461499573	109
8	560	1217.115271357803	110
8	561	1218.660699383483	111
8	562	1218.685344394932	112
8	565	1228.863658690371	113
8	568	1230.729118334272	114
8	571	1231.566305979482	115
8	572	1231.939510555615	116
8	576	1237.703086438224	117
8	581	1250.617100234722	118
8	582	1252.969195824356	119
8	585	1260.32320579681	120
8	588	1264.862916958488	121
8	589	1265.54753409027	122
8	638	1342.051850629616	123
8	641	1344.976571445193	124
8	642	1349.862560721338	125
8	643	1353.341336914844	126
8	644	1355.824684442724	127
8	651	1377.146954510285	128
8	652	1380.557106352766	129
8	659	1393.043827319249	130
8	660	1396.423713672865	131
8	665	1405.98258694159	132
8	666	1407.674690276378	133
8	669	1422.226871385644	134
8	670	1430.972120566764	135
8	671	1431.300242627969	136
8	672	1432.174771099774	137
8	697	1470.358626237934	138
8	698	1473.790685461886	139
8	699	1476.646737705499	140
8	700	1477.00738795728	141
8	705	1485.20129960302	142
8	711	1500.892975240971	143
8	712	1501.246467555324	144
8	718	1519.392167152305	145
8	719	1521.266425212486	146
8	729	1529.734842604989	147
8	732	1531.828610626322	148
8	737	1544.995925808096	149
8	738	1551.912117647697	150
8	746	1557.278348797537	151
8	752	1574.435642556854	152
8	753	1575.561431301026	153
8	758	1585.327666254896	154
8	759	1592.803559296288	155
8	760	1594.081854918045	156
8	761	1597.955978120918	157
8	764	1611.291208639064	158
8	767	1613.720705256446	159
8	768	1614.066413453807	160
8	769	1614.66819087164	161
8	779	1645.071436026991	162
8	794	1683.764192176694	163
8	795	1684.224099821585	164
8	796	1685.309767777654	165
8	797	1688.895403014648	166
8	798	1691.432714597093	167
8	812	1717.947635825414	168
8	817	1726.642056431885	169
8	820	1729.848459291082	170
8	824	1733.873980324951	171
8	844	1777.627952230644	172
8	845	1779.115838738606	173
8	846	1780.026546270344	174
8	859	1802.572519240589	175
8	864	1817.018373325986	176
8	867	1821.243702492818	177
8	870	1822.841915923462	178
8	873	1826.93298722509	179
8	882	1837.011104675301	180
8	887	1851.831307263896	181
8	895	1869.441824433629	182
8	902	1873.594277068526	183
8	903	1876.937742124821	184
8	906	1880.834646612131	185
8	907	1881.762411911451	186
8	908	1887.936646242195	187
8	909	1889.740382338017	188
8	916	1897.7673343046	189
8	917	1900.852718587146	190
8	920	1903.961736476112	191
8	921	1905.07743034548	192
8	925	1910.073386572308	193
8	928	1915.620342075152	194
8	929	1918.179985917051	195
8	930	1919.628814864232	196
8	931	1920.313661918481	197
8	932	1922.517770130044	198
8	935	1929.919830237408	199
8	936	1939.697049488973	200
8	937	1939.771919959931	201
8	938	1942.105433874157	202
8	939	1951.74675757821	203
8	956	1987.188801143959	204
8	957	1988.316859395157	205
8	958	1990.656650470494	206
8	959	1991.366811224424	207
8	960	1992.350615360539	208
8	961	1994.924881397538	209
8	962	1995.41708325429	210
8	963	1995.906782088156	211
8	964	1999.022450662271	212
8	965	1999.368412744004	213
8	968	2003.54231378098	214
8	978	2021.707509092189	215
8	979	2026.429964783298	216
8	989	2030.441397957777	217
8	992	2040.090334828903	218
8	993	2041.006650777614	219
8	994	2044.3356333513	220
8	995	2045.978028481969	221
8	998	2059.320578178418	222
8	1001	2062.926947666318	223
8	1004	2069.370958202131	224
8	1005	2073.291687368764	225
8	1006	2076.608776000809	226
8	1007	2078.168224307328	227
8	1008	2082.472322757579	228
8	1009	2083.150658586289	229
8	1010	2086.156517568739	230
8	1011	2094.217280199069	231
8	1028	2154.185979980046	232
8	1031	2161.557104856154	233
8	1041	2173.120810986732	234
8	1042	2174.244372176103	235
8	1043	2174.486790486235	236
8	1048	2180.434002135983	237
8	1049	2183.102034457716	238
8	1050	2184.411358016448	239
8	1056	2200.805592296526	240
8	1063	2211.298525352439	241
8	1064	2213.291789967751	242
8	1065	2218.298859251095	243
8	1078	2243.515122249749	244
8	1081	2251.013417297429	245
8	1089	2259.03282581837	246
8	1090	2266.023598524902	247
8	1091	2267.961257440548	248
8	1092	2269.964567389314	249
8	1101	2316.432119668767	250
8	1102	2316.838975664069	251
8	1105	2321.74375776485	252
8	1106	2323.052760293489	253
8	1107	2331.42639729332	254
8	1127	2384.074219145671	255
8	1128	2396.274213636445	256
8	1129	2398.557173033303	257
8	1130	2403.272900670313	258
8	1133	2409.628630788921	259
8	1136	2410.318594669158	260
8	1137	2416.268149268554	261
8	1146	2436.182711402377	262
8	1155	2466.797880332776	263
8	1163	2483.879507943403	264
8	1166	2492.488463938263	265
8	1167	2494.358693378598	266
9	162	400.831818165059	2.88192100215
9	168	411.563435355048	0.09186656094
9	171	422.574068046056	2.343544150741
9	214	498.989127741136	72.575330469604
9	217	502.2330404685	68.254019067439
9	218	504.094142040712	69.096682490116
9	221	505.186198674264	68.722840303189
9	224	514.399346329776	67.060333959376
9	225	516.220982627417	55.536421185626
9	226	516.334242509074	54.124981863566
9	231	525.676434699143	53.876207853583
9	232	530.026068586053	47.901526522313
9	243	545.532140377877	41.37926699394
9	285	604.016867653522	68.288999385865
9	286	605.240736208246	68.222332158703
9	298	621.257554587484	69.306578402426
9	306	631.574734284888	68.974876121163
9	330	708.543423160512	143.53486144175
9	333	718.621335739382	153.19060598442
9	336	723.332551653779	155.23661995099
9	342	732.040573885662	152.30474049549
9	345	735.413232490993	152.77338734245
9	346	736.270763423038	148.43390493787
9	374	809.230256768628	200.77113324911
9	375	809.350991616249	196.02062970783
9	378	813.65164572434	190.71513643728
9	379	816.642324683144	191.62225526422
9	382	820.386635389853	193.81742343217
9	395	864.794337790418	229.3005639273
9	398	873.836430005277	221.89734126161
9	403	881.079670198233	221.67176524191
9	404	884.298548800795	204.64075226045
9	405	885.54760437731	184.22041107844
9	416	904.832892267822	184.74604182622
9	424	937.401233014605	209.94333742791
9	430	952.477365530657	209.65991738217
9	431	953.162243274965	203.80750272688
9	432	955.540524932242	179.26401656883
9	433	958.090190254957	180.80262249081
9	436	960.364691259108	172.98629463346
9	437	965.563842851443	174.92019949129
9	455	981.975104560758	171.40505452074
9	456	982.724790760915	164.99976846756
9	468	999.126216337673	136.33500115159
9	476	1016.16654906076	139.66912123816
9	477	1017.866446234129	140.35314540184
9	480	1021.939168773579	135.66909767328
9	483	1024.725658317976	137.84974489045
9	495	1050.433585453281	144.26376726065
9	496	1052.76921753919	132.11763686149
9	497	1053.256487979463	117.13974283001
9	498	1053.316624962251	108.65227492486
9	499	1056.272945584527	111.06128836127
9	510	1083.96410188071	118.3986573744
9	513	1098.677895209329	132.93980496462
9	516	1109.613863964025	143.36086515149
9	519	1115.07451502065	146.01127809342
9	520	1116.926171657314	144.82374306344
9	525	1126.128326383523	152.42312998771
9	526	1126.61906199432	151.22420014255
9	527	1133.054323570974	151.96209562335
9	528	1134.790630778046	149.17768602401
9	529	1138.894038287916	146.45725196572
9	534	1160.502556875281	163.18216032362
9	535	1163.268326045241	165.08844236833
9	539	1175.411029544241	171.2798495385
9	540	1178.982385913507	169.1735263457
9	544	1185.920939856976	163.50116278387
9	545	1191.488915356715	166.18803282131
9	550	1207.181681036729	176.06057955836
9	551	1210.754673225683	172.81520015552
9	556	1211.68461499573	172.45518673927
9	560	1217.115271357803	157.29154110747
9	561	1218.660699383483	157.5909011565
9	562	1218.685344394932	146.76581566021
9	565	1228.863658690371	133.29974830966
9	568	1230.729118334272	126.96266338602
9	571	1231.566305979482	121.02390514693
9	572	1231.939510555615	108.44994153259
9	576	1237.703086438224	85.222055524493
9	581	1250.617100234722	92.580417305543
9	582	1252.969195824356	82.602113470324
9	585	1260.32320579681	80.213439553518
9	588	1264.862916958488	67.361279139364
9	589	1265.54753409027	65.446395664945
9	638	1342.051850629616	130.56470063726
9	641	1344.976571445193	132.31206467476
9	642	1349.862560721338	127.67552047807
9	643	1353.341336914844	124.20397703457
9	644	1355.824684442724	125.08226363266
9	651	1377.146954510285	133.66156771607
9	652	1380.557106352766	120.72134596406
9	659	1393.043827319249	131.82875017933
9	660	1396.423713672865	126.53855999523
9	665	1405.98258694159	124.83781539563
9	666	1407.674690276378	120.86117294745
9	669	1422.226871385644	131.63008169449
9	670	1430.972120566764	125.00966743472
9	671	1431.300242627969	118.30481417999
9	672	1432.174771099774	114.79808406867
9	697	1470.358626237934	135.08654673502
9	698	1473.790685461886	137.98408569669
9	699	1476.646737705499	140.13098850149
9	700	1477.00738795728	134.88847820518
9	705	1485.20129960302	126.0507439168
9	711	1500.892975240971	116.0462420102
9	712	1501.246467555324	114.35337419254
9	718	1519.392167152305	116.18932731808
9	719	1521.266425212486	117.34596838918
9	729	1529.734842604989	89.560870839446
9	732	1531.828610626322	87.108958236728
9	737	1544.995925808096	95.477665724902
9	738	1551.912117647697	101.46707655621
9	746	1557.278348797537	96.269829032318
9	752	1574.435642556854	105.3404120703
9	753	1575.561431301026	105.57546705789
9	758	1585.327666254896	105.27119113412
9	759	1592.803559296288	111.53546329071
9	760	1594.081854918045	107.54256151975
9	761	1597.955978120918	100.75193160329
9	764	1611.291208639064	99.726410207382
9	767	1613.720705256446	94.845623011238
9	768	1614.066413453807	91.154097494225
9	769	1614.66819087164	89.044225034781
9	779	1645.071436026991	115.47481362653
9	794	1683.764192176694	144.61141252204
9	795	1684.224099821585	143.32880212656
9	796	1685.309767777654	132.45648722851
9	797	1688.895403014648	134.53618954757
9	798	1691.432714597093	137.04920394978
9	812	1717.947635825414	144.39299982196
9	817	1726.642056431885	150.92758562567
9	820	1729.848459291082	146.01993083639
9	824	1733.873980324951	120.17757958767
9	844	1777.627952230644	155.72013512456
9	845	1779.115838738606	156.80580948576
9	846	1780.026546270344	155.66810168955
9	859	1802.572519240589	138.81470719552
9	864	1817.018373325986	150.6018183898
9	867	1821.243702492818	148.59945390037
9	870	1822.841915923462	142.3156914749
9	873	1826.93298722509	127.02942123122
9	882	1837.011104675301	126.69297183169
9	887	1851.831307263896	137.53796728606
9	895	1869.441824433629	143.95730672801
9	902	1873.594277068526	146.61860068741
9	903	1876.937742124821	144.23079379238
9	906	1880.834646612131	141.40349946773
9	907	1881.762411911451	138.46802198368
9	908	1887.936646242195	143.51498621279
9	909	1889.740382338017	133.79901022872
9	916	1897.7673343046	127.54542419176
9	917	1900.852718587146	119.43281639891
9	920	1903.961736476112	113.84830333783
9	921	1905.07743034548	113.49442903165
9	925	1910.073386572308	106.02149657288
9	928	1915.620342075152	98.626941120477
9	929	1918.179985917051	98.345150804398
9	930	1919.628814864232	98.28907723814
9	931	1920.313661918481	95.167556674091
9	932	1922.517770130044	93.976615460787
9	935	1929.919830237408	101.20252251453
9	936	1939.697049488973	110.27278510973
9	937	1939.771919959931	105.60203581604
9	938	1942.105433874157	102.4020302413
9	939	1951.74675757821	108.2777773814
9	956	1987.188801143959	125.38255132077
9	957	1988.316859395157	118.6009748662
9	958	1990.656650470494	119.2790902898
9	959	1991.366811224424	118.33838212153
9	960	1992.350615360539	114.35351369422
9	961	1994.924881397538	104.04287585488
9	962	1995.41708325429	91.56875405047
9	963	1995.906782088156	89.647435953609
9	964	1999.022450662271	88.783804006981
9	965	1999.368412744004	75.93632919997
9	968	2003.54231378098	51.571797048906
9	978	2021.707509092189	53.418550902198
9	979	2026.429964783298	53.617493897114
9	989	2030.441397957777	49.461307913652
9	992	2040.090334828903	57.406263829728
9	993	2041.006650777614	41.258722378219
9	994	2044.3356333513	34.202223245142
9	995	2045.978028481969	29.664275947838
9	998	2059.320578178418	42.799806748781
9	1001	2062.926947666318	46.173204179217
9	1004	2069.370958202131	42.736738097199
9	1005	2073.291687368764	45.649459778757
9	1006	2076.608776000809	48.642249500917
9	1007	2078.168224307328	49.39872623086
9	1008	2082.472322757579	48.612114224723
9	1009	2083.150658586289	33.662684716571
9	1010	2086.156517568739	26.059160127676
9	1011	2094.217280199069	25.058301572599
9	1028	2154.185979980046	19.70485018082
9	1031	2161.557104856154	19.483095940276
9	1041	2173.120810986732	14.620379420579
9	1042	2174.244372176103	12.22304994516
9	1043	2174.486790486235	8.596007204851
9	1048	2180.434002135983	7.68757339384
9	1049	2183.102034457716	5.969623018377
9	1050	2184.411358016448	6.611701537532
9	1056	2200.805592296526	6.851586177747
9	1063	2211.298525352439	4.352647014642
9	1064	2213.291789967751	4.850530256505
9	1065	2218.298859251095	8.444235848526
9	1078	2243.515122249749	4.247317885014
9	1081	2251.013417297429	9.605494876152
9	1089	2259.03282581837	14.895921608106
9	1090	2266.023598524902	13.407508223383
9	1091	2267.961257440548	9.515324442353
9	1092	2269.964567389314	11.299503383399
9	1101	2316.432119668767	18.754078784242
9	1102	2316.838975664069	17.868674990724
9	1105	2321.74375776485	19.636403865707
9	1106	2323.052760293489	13.802244700671
9	1107	2331.42639729332	12.208857679104
9	1127	2384.074219145671	27.80508098904
9	1128	2396.274213636445	38.849525096229
9	1129	2398.557173033303	39.656840800447
9	1130	2403.272900670313	32.554975488757
9	1133	2409.628630788921	37.794400729381
9	1136	2410.318594669158	5.058403410363
9	1137	2416.268149268554	6.395318515946
9	1146	2436.182711402377	0.923904912066
9	1155	2466.797880332776	1.7676278342
9	1163	2483.879507943403	3.710143429008
9	1166	2492.488463938263	12.191851747185
9	1167	2494.358693378598	7.769316302211
10	175	426.413797271532	10
10	234	532.267433263168	11
10	249	551.950976185058	12
10	254	562.599858163725	13
10	272	579.735833390176	14
10	277	587.83685848517	15
10	288	605.436577269174	16
10	293	613.330361908421	17
10	302	625.020069418922	18
10	310	635.493773863116	19
10	313	651.93908874367	20
10	338	724.440579512485	21
10	348	742.817448148488	22
10	384	836.22542674111	23
10	409	886.875913427531	24
10	418	906.16981819263	25
10	426	944.66435003739	26
10	447	972.102428593869	27
10	458	985.612944754038	28
10	461	992.436786322198	29
10	466	998.179883676915	30
10	470	1002.472414686305	31
10	487	1031.121101478372	32
10	501	1059.823730250331	33
10	537	1170.367082354032	34
10	542	1180.109766243292	35
10	558	1212.664506770435	36
10	574	1233.325160215043	37
10	591	1269.88515367764	38
10	646	1359.150555686224	39
10	649	1363.697256601952	40
10	676	1444.719652389594	41
10	681	1450.44504109149	42
10	689	1461.008519765219	43
10	707	1486.539293398296	44
10	714	1511.564798431682	45
10	721	1522.912315959582	46
10	742	1554.359213467081	47
10	750	1573.55463600345	48
10	771	1618.60610114374	49
10	781	1647.732977010864	50
10	800	1699.903565993872	51
10	822	1732.70694833244	52
10	826	1739.431147144398	53
10	848	1781.419902188234	54
10	889	1854.253817291772	55
10	911	1890.882005542659	56
10	923	1906.259346134547	57
10	941	1951.970516732074	58
10	948	1972.812470886184	59
10	972	2016.313752534131	60
10	981	2026.634220104932	61
10	1033	2162.021322230943	62
10	1036	2165.890783281384	63
10	1039	2172.746428742143	64
10	1072	2239.267804364735	65
10	1083	2252.616090301519	66
10	1113	2345.378507754397	67
10	1120	2358.900332232856	68
10	1123	2370.717925181556	69
10	1159	2480.169364514395	70
11	1170	2500	0.1064
12	1170	2500	0.0492

