version 2
run experiments_medium_game_mode1-283-20230311-09:40:55-10095
attr configname experiments_medium_game_mode1
attr datetime 20230311-09:40:55
attr experiment experiments_medium_game_mode1
attr inifile omnetpp.ini
attr iterationvars "$0=5, $1=7, $2=100"
attr iterationvarsf 5,7,100-
attr measurement "$0=5, $1=7, $2=100"
attr network Network
attr processid 10095
attr repetition 13
attr replication #13
attr resultdir results
attr runnumber 283
attr seedset 13
param *.boss.arrival_mean 20
param *.boss.service_mean 5
param *.minion.arrival_mean 10
param *.minion.service_mean 7
param *.player.recover_rate_x 100
param **.minion.arrival_distribution 0
param **.minion.service_distribution 0
param **.boss.arrival_distribution 0
param **.boss.service_distribution 0

vector 0 Network.player boss_jobs_number_stat:vector ETV
attr source signal_boss_jobs_number
vector 1 Network.player boss_jobs_queue_number_stat:vector ETV
attr source signal_boss_jobs_queue_number
vector 2 Network.player minion_jobs_number_stat:vector ETV
attr source signal_minion_jobs_number
vector 3 Network.player minion_jobs_queue_number_stat:vector ETV
attr source signal_minion_jobs_queue_number
vector 4 Network.player boss_defeated_stat:vector ETV
attr source signal_boss_defeated
vector 5 Network.player boss_response_time_stat:vector ETV
attr source signal_boss_response_time
vector 6 Network.player boss_waiting_time_stat:vector ETV
attr source signal_boss_waiting_time
vector 7 Network.player minion_waiting_time_stat:vector ETV
attr source signal_minion_waiting_time
vector 8 Network.player minion_recovered_stat:vector ETV
attr source signal_minion_recovered
vector 9 Network.player minion_defeated_stat:vector ETV
attr source signal_minion_defeated
vector 10 Network.player minion_response_time_stat:vector ETV
attr source signal_minion_response_time
vector 11 Network.player minion_throughput:vector ETV
attr source signal_minion_throughput
vector 12 Network.player boss_throughput:vector ETV
attr source signal_boss_throughput
0	159	350.881313172297	2
0	167	360.818519535049	1
0	170	361.531643308555	1
0	175	371.908598985871	1
0	177	376.931018151467	2
0	180	381.136330067117	2
0	206	429.073456309595	1
0	216	458.216863057689	1
0	224	485.039383383465	1
0	236	504.219337313665	1
0	241	513.42129579689	1
0	253	565.569280449517	1
0	270	626.472031129181	1
0	274	634.336558468053	1
0	278	638.192742303279	2
0	280	644.030677267764	3
0	282	644.144963208146	4
0	291	669.619848426002	2
0	301	693.409668976404	1
0	338	809.310921917985	1
0	350	827.380958355965	1
0	352	834.74067954906	2
0	369	858.166594785723	1
0	372	861.941115502046	1
0	380	883.655885421752	1
0	382	887.512647225875	2
0	391	903.905552536614	1
0	394	907.483937674146	1
0	422	990.413455002523	1
0	435	1008.003682923438	1
0	440	1020.417949707382	1
0	446	1033.249379298814	1
0	455	1053.470206707816	1
0	463	1065.821984533476	1
0	469	1072.614960455695	2
0	474	1077.976575989947	1
0	489	1104.858659015191	1
0	505	1143.647684051215	1
0	514	1159.235141044981	1
0	521	1171.966462265233	1
0	532	1196.686858693904	1
0	534	1197.809451509109	2
0	537	1201.314877016841	2
0	565	1301.300109462689	1
0	572	1316.697341954421	1
0	574	1321.049430127316	2
0	580	1327.240078304281	1
0	592	1352.172457290686	1
0	619	1419.760823824721	1
0	631	1453.65964639195	1
0	665	1539.073766767534	1
0	670	1551.811268998897	1
0	676	1574.680051997075	1
0	679	1580.731531549448	1
0	681	1583.786751798574	2
0	688	1595.405242588751	2
0	698	1614.424317239799	1
0	701	1619.123148538388	1
0	708	1628.846044176192	1
0	716	1641.653488925519	1
0	718	1646.228649184495	2
0	720	1651.491893488932	3
0	725	1656.443885829001	3
0	728	1659.95899571819	3
0	740	1686.518869704216	1
0	743	1691.412908866778	1
0	756	1722.827600274038	1
0	758	1726.331710433346	2
0	771	1767.39258822199	1
0	796	1826.132510283332	1
0	800	1837.232700665273	1
0	812	1856.676250964027	1
0	814	1857.37999332076	2
0	824	1883.476859197256	1
0	826	1885.403139532809	2
0	839	1927.167334289672	1
0	841	1928.858537845573	2
0	853	1985.692923559129	1
0	877	2035.12845233487	1
0	882	2037.706644485021	1
0	884	2043.472956852933	2
0	895	2086.337690370672	1
0	898	2097.545413534898	1
0	901	2099.566104157284	1
0	906	2115.320149594233	1
0	917	2145.854161296251	1
0	925	2165.681529415681	1
0	934	2187.109250616897	1
0	964	2221.454825515369	1
0	991	2264.236815591852	1
0	997	2271.874558676346	1
0	1006	2293.078236472355	1
0	1025	2336.495621840945	1
0	1029	2337.348088405461	2
0	1039	2352.254707627457	1
0	1047	2372.17973835098	1
0	1057	2414.535637886846	1
0	1073	2439.36645112858	1
0	1076	2440.572633583659	1
0	1085	2452.701691149425	1
0	1087	2455.773500652442	2
0	1091	2478.047714483756	1
0	1100	2490.461691942782	1
1	159	350.881313172297	1
1	162	354.914696827784	1
1	163	356.768685712741	0
1	167	360.818519535049	0
1	168	361.08251118407	0
1	170	361.531643308555	0
1	173	364.61598600882	0
1	175	371.908598985871	0
1	177	376.931018151467	1
1	178	379.382821872422	1
1	180	381.136330067117	1
1	181	381.844583472589	1
1	182	381.890488299405	0
1	206	429.073456309595	0
1	207	429.680704517624	0
1	216	458.216863057689	0
1	217	463.032623391974	0
1	224	485.039383383465	0
1	225	485.365034196959	0
1	236	504.219337313665	0
1	237	512.757605452187	0
1	241	513.42129579689	0
1	242	517.223630203244	0
1	253	565.569280449517	0
1	258	577.011987502229	0
1	270	626.472031129181	0
1	271	627.295323084533	0
1	274	634.336558468053	0
1	278	638.192742303279	1
1	280	644.030677267764	2
1	282	644.144963208146	3
1	285	655.543216955836	3
1	286	656.61949924454	2
1	287	660.05278986633	1
1	291	669.619848426002	1
1	292	670.866815798623	1
1	295	673.038600162842	0
1	301	693.409668976404	0
1	304	700.307313298062	0
1	338	809.310921917985	0
1	345	819.401148806733	0
1	350	827.380958355965	0
1	352	834.74067954906	1
1	357	841.526144448517	1
1	360	844.0543544464	0
1	369	858.166594785723	0
1	370	859.255624063701	0
1	372	861.941115502046	0
1	375	867.100426217674	0
1	380	883.655885421752	0
1	382	887.512647225875	1
1	383	887.860579145612	1
1	384	887.963906050081	0
1	391	903.905552536614	0
1	392	905.168145102293	0
1	394	907.483937674146	0
1	397	915.737439403631	0
1	422	990.413455002523	0
1	423	992.900990288895	0
1	435	1008.003682923438	0
1	436	1010.810886613296	0
1	440	1020.417949707382	0
1	441	1022.313935168628	0
1	446	1033.249379298814	0
1	449	1037.337792541498	0
1	455	1053.470206707816	0
1	456	1054.794373467972	0
1	463	1065.821984533476	0
1	469	1072.614960455695	1
1	470	1073.372465941488	1
1	471	1074.634907881995	0
1	474	1077.976575989947	0
1	475	1080.552059024792	0
1	489	1104.858659015191	0
1	490	1108.45954378507	0
1	505	1143.647684051215	0
1	510	1155.57724136344	0
1	514	1159.235141044981	0
1	519	1171.712622426318	0
1	521	1171.966462265233	0
1	522	1177.215138799157	0
1	532	1196.686858693904	0
1	534	1197.809451509109	1
1	535	1199.727819612329	1
1	537	1201.314877016841	1
1	538	1206.224225360237	1
1	541	1223.082517668966	0
1	565	1301.300109462689	0
1	566	1308.860781643485	0
1	572	1316.697341954421	0
1	574	1321.049430127316	1
1	575	1321.589172570606	1
1	576	1323.748686078	0
1	580	1327.240078304281	0
1	581	1328.197548757119	0
1	592	1352.172457290686	0
1	593	1352.271736011446	0
1	619	1419.760823824721	0
1	622	1428.779472507881	0
1	631	1453.65964639195	0
1	632	1455.879833392249	0
1	665	1539.073766767534	0
1	668	1543.146660104918	0
1	670	1551.811268998897	0
1	671	1553.617735913285	0
1	676	1574.680051997075	0
1	677	1575.503319128995	0
1	679	1580.731531549448	0
1	681	1583.786751798574	1
1	686	1593.301890480574	1
1	688	1595.405242588751	1
1	689	1596.588142025787	1
1	690	1598.049250045218	0
1	698	1614.424317239799	0
1	699	1615.644741197476	0
1	701	1619.123148538388	0
1	702	1620.50293573633	0
1	708	1628.846044176192	0
1	711	1632.214850704077	0
1	716	1641.653488925519	0
1	718	1646.228649184495	1
1	720	1651.491893488932	2
1	721	1653.688949124811	2
1	725	1656.443885829001	2
1	726	1656.983185944331	2
1	728	1659.95899571819	2
1	731	1664.481965152963	2
1	732	1667.174343164405	1
1	733	1669.982884485388	0
1	740	1686.518869704216	0
1	741	1690.843649322491	0
1	743	1691.412908866778	0
1	744	1704.154720634569	0
1	756	1722.827600274038	0
1	758	1726.331710433346	1
1	759	1726.400643545413	1
1	764	1732.550511054178	0
1	771	1767.39258822199	0
1	780	1788.113075240467	0
1	796	1826.132510283332	0
1	797	1826.504885808514	0
1	800	1837.232700665273	0
1	805	1846.026358471391	0
1	812	1856.676250964027	0
1	814	1857.37999332076	1
1	815	1858.619889068241	1
1	818	1868.467941276466	0
1	824	1883.476859197256	0
1	826	1885.403139532809	1
1	827	1892.802368312018	1
1	830	1896.916488497369	0
1	839	1927.167334289672	0
1	841	1928.858537845573	1
1	842	1932.216125425153	1
1	843	1934.25867959131	0
1	853	1985.692923559129	0
1	854	1990.470474553489	0
1	877	2035.12845233487	0
1	878	2036.691640894453	0
1	882	2037.706644485021	0
1	884	2043.472956852933	1
1	885	2045.9661383285	1
1	886	2049.497436974346	0
1	895	2086.337690370672	0
1	896	2091.39671880187	0
1	898	2097.545413534898	0
1	899	2099.543978055574	0
1	901	2099.566104157284	0
1	902	2101.122018289858	0
1	906	2115.320149594233	0
1	907	2115.967612004575	0
1	917	2145.854161296251	0
1	918	2148.289337324151	0
1	925	2165.681529415681	0
1	928	2172.524709664917	0
1	934	2187.109250616897	0
1	935	2189.224528382261	0
1	964	2221.454825515369	0
1	965	2227.6006675993	0
1	991	2264.236815591852	0
1	992	2265.354594683613	0
1	997	2271.874558676346	0
1	998	2276.261173550485	0
1	1006	2293.078236472355	0
1	1007	2294.58532892915	0
1	1025	2336.495621840945	0
1	1029	2337.348088405461	1
1	1034	2344.666750802482	1
1	1037	2350.251187617824	0
1	1039	2352.254707627457	0
1	1040	2353.273491477302	0
1	1047	2372.17973835098	0
1	1048	2381.611159023995	0
1	1057	2414.535637886846	0
1	1060	2415.853063542039	0
1	1073	2439.36645112858	0
1	1074	2440.499543198061	0
1	1076	2440.572633583659	0
1	1077	2440.688697488087	0
1	1085	2452.701691149425	0
1	1087	2455.773500652442	1
1	1088	2460.074774641072	1
1	1089	2475.936338943258	0
1	1091	2478.047714483756	0
1	1094	2486.93993547745	0
1	1100	2490.461691942782	0
2	161	354.220807892071	5
2	165	358.816678104859	6
2	172	362.918884947423	7
2	184	382.502447573653	8
2	187	386.691966251989	8
2	189	391.480322332022	9
2	193	402.91178608321	8
2	195	403.909484036199	9
2	198	412.173305584134	9
2	200	416.102112529242	10
2	202	421.769602253501	11
2	204	427.13295448405	12
2	209	433.849908919438	13
2	213	447.408489393891	12
2	222	481.918541865505	9
2	229	492.645323064696	8
2	232	498.41728786812	8
2	234	500.665197321305	9
2	239	513.078115747372	10
2	245	529.606159204226	10
2	248	547.383719825004	10
2	250	562.820335773616	11
2	255	571.42461516205	11
2	257	576.44888564805	12
2	263	599.143554045033	10
2	266	606.28963701956	10
2	276	634.448028384357	8
2	284	650.35220467007	9
2	289	665.766420488575	10
2	294	671.661096219755	11
2	298	680.844601077482	11
2	303	694.4339970116	11
2	306	700.985969889335	12
2	308	701.806198171285	13
2	311	713.958362007736	13
2	314	720.645742409063	13
2	316	729.832992657518	14
2	319	735.531473481411	14
2	328	776.789953050879	8
2	330	779.614350689329	9
2	332	785.140662753362	10
2	336	804.919677685226	9
2	340	813.104810438763	10
2	342	813.307067739144	11
2	344	818.30858984354	12
2	348	824.302002192307	12
2	354	836.864931136729	13
2	356	837.350773138421	14
2	359	843.326417154544	15
2	364	850.212541818324	14
2	374	862.256259261925	12
2	378	881.830197929819	12
2	386	893.854051650568	13
2	388	897.930962325278	14
2	396	910.066976022594	14
2	403	933.253107534893	11
2	405	941.657077362681	12
2	407	942.968278161708	13
2	409	946.440734773634	14
2	411	948.153764576261	15
2	415	965.521339741348	14
2	418	981.004076053121	14
2	432	1004.449375652978	6
2	438	1015.38380414706	6
2	443	1024.553756365915	7
2	448	1037.290707556304	7
2	452	1049.858783622759	7
2	458	1057.607896085531	7
2	460	1061.401959982533	8
2	465	1067.787554912875	8
2	467	1068.252939213793	9
2	479	1091.347777855667	7
2	482	1096.268931160359	7
2	484	1100.961170677705	8
2	487	1104.564690809039	8
2	492	1112.067930347438	9
2	494	1119.099637767066	10
2	497	1130.957477577577	10
2	503	1138.78013148916	7
2	507	1144.323871654139	8
2	509	1148.450157988024	9
2	512	1158.627211880175	10
2	516	1159.331674425107	11
2	518	1168.353695857964	12
2	527	1188.190898806865	10
2	530	1194.247409209763	10
2	540	1215.289413414158	11
2	545	1240.032217313543	10
2	547	1240.082505664293	11
2	551	1253.710917304745	10
2	554	1257.293697563909	10
2	559	1283.813109435883	8
2	561	1291.389407764327	9
2	570	1313.569823988025	6
2	586	1346.167197587479	2
2	588	1350.028723703293	3
2	590	1351.512135146458	4
2	595	1363.224814850181	5
2	602	1377.772949826415	1
2	605	1378.379669330629	1
2	608	1391.432326235966	1
2	611	1393.686084915507	1
2	614	1405.629567179376	1
2	617	1418.469175043072	1
2	621	1425.893199456538	2
2	624	1439.836864833386	3
2	627	1444.7624137905	3
2	629	1448.263396076285	4
2	634	1465.369118310634	5
2	640	1497.176956300586	2
2	642	1497.962016172964	3
2	644	1498.005744378918	4
2	647	1508.777151633738	4
2	650	1513.081014510385	4
2	652	1519.02434727888	5
2	655	1521.224361848015	5
2	657	1521.4211177398	6
2	661	1527.176332775919	5
2	667	1542.095215944384	4
2	674	1568.633061524487	4
2	683	1586.257204412821	5
2	685	1589.545655119811	6
2	693	1603.92385839718	6
2	695	1609.50799170604	7
2	706	1625.662992635075	5
2	710	1631.920961920185	6
2	713	1635.677345328082	7
2	723	1654.996103444303	7
2	730	1663.090675980942	8
2	746	1704.68708707631	4
2	748	1709.770363652536	5
2	751	1716.266022827696	5
2	754	1720.94382496743	5
2	761	1728.637724047396	6
2	763	1731.636747604201	7
2	767	1746.878738555797	7
2	773	1767.685687162037	6
2	775	1784.550241260931	7
2	777	1784.841039858382	8
2	779	1786.41524331182	9
2	782	1789.616137908949	10
2	784	1793.820346761653	11
2	787	1800.426775317516	11
2	790	1812.321555644909	11
2	802	1840.504910789092	7
2	804	1842.590162227535	8
2	807	1847.99445252932	9
2	810	1854.07194290293	9
2	817	1858.808527574329	10
2	829	1894.016135839259	7
2	835	1915.429774557667	5
2	848	1967.183320475023	1
2	851	1979.625919561273	1
2	856	1993.509219006814	2
2	859	1999.044872113969	2
2	861	2006.225192601021	3
2	864	2011.405938186384	3
2	868	2018.637309074694	2
2	872	2030.325865854542	1
2	874	2031.042674949367	2
2	880	2037.599694128195	2
2	889	2073.067371242433	2
2	892	2078.372861477825	2
2	904	2109.343958797616	2
2	910	2123.437687074001	2
2	913	2138.579705603058	2
2	915	2143.511469465731	3
2	921	2162.382812115029	3
2	923	2163.089283698397	4
2	927	2168.186973905235	5
2	931	2173.869921520784	5
2	937	2189.811664414536	5
2	939	2196.082281053651	6
2	941	2196.260568128432	7
2	943	2197.06684740145	8
2	945	2198.899392425671	9
2	949	2203.672221669975	8
2	951	2205.91081637071	9
2	953	2209.528222924243	10
2	955	2212.282576392703	11
2	958	2215.738187667887	11
2	960	2216.540206352545	12
2	962	2219.790560216916	13
2	967	2232.952055811601	14
2	969	2233.289927255512	15
2	972	2234.378659968128	15
2	977	2246.891927868613	13
2	982	2252.24765871453	11
2	985	2256.212029238043	11
2	987	2258.711853867551	12
2	989	2263.520418659047	13
2	1002	2291.641604036185	9
2	1004	2292.288336125078	10
2	1009	2299.337709247451	11
2	1011	2301.157408505392	12
2	1013	2310.542912566416	13
2	1016	2316.096112479992	13
2	1020	2324.857901397619	12
2	1023	2329.828241345159	12
2	1027	2336.636636448296	13
2	1031	2342.58296503385	14
2	1033	2344.407946736265	15
2	1036	2347.851559815224	16
2	1042	2363.887143678592	17
2	1044	2368.453322025333	18
2	1050	2384.92887531202	18
2	1053	2392.242113020186	18
2	1055	2402.905379266026	19
2	1059	2414.704580193717	20
2	1062	2416.079366247579	21
2	1065	2418.726709731	21
2	1068	2427.294030763727	21
2	1071	2438.424958185678	21
2	1079	2441.73512436978	22
2	1081	2445.627055548079	23
2	1083	2448.642151641041	24
2	1093	2479.805499485109	25
2	1098	2489.270064040171	24
2	1102	2494.009934103584	25
3	161	354.220807892071	4
3	165	358.816678104859	5
3	172	362.918884947423	6
3	184	382.502447573653	7
3	185	383.172446949157	7
3	187	386.691966251989	7
3	189	391.480322332022	8
3	190	392.714364191659	8
3	191	396.374727429581	7
3	193	402.91178608321	7
3	195	403.909484036199	8
3	196	411.290986885403	8
3	198	412.173305584134	8
3	200	416.102112529242	9
3	202	421.769602253501	10
3	204	427.13295448405	11
3	209	433.849908919438	12
3	210	434.48492693257	12
3	211	444.482019141624	11
3	213	447.408489393891	11
3	214	451.877999663338	11
3	218	468.903866540449	10
3	219	475.547629978217	9
3	220	481.398978813578	8
3	222	481.918541865505	8
3	226	490.566620253272	8
3	227	491.574921500042	7
3	229	492.645323064696	7
3	230	498.122880051614	7
3	232	498.41728786812	7
3	234	500.665197321305	8
3	239	513.078115747372	9
3	243	518.184220687338	9
3	245	529.606159204226	9
3	246	545.787437958549	9
3	248	547.383719825004	9
3	250	562.820335773616	10
3	251	563.266237664447	10
3	255	571.42461516205	10
3	257	576.44888564805	11
3	259	578.481209198631	11
3	260	587.617188737002	10
3	261	591.690779202138	9
3	263	599.143554045033	9
3	264	604.94124945517	9
3	266	606.28963701956	9
3	267	622.485747227857	9
3	268	626.400092501498	8
3	272	633.301939800177	7
3	276	634.448028384357	7
3	284	650.35220467007	8
3	289	665.766420488575	9
3	294	671.661096219755	10
3	296	679.859890255052	10
3	298	680.844601077482	10
3	299	693.407176322499	10
3	303	694.4339970116	10
3	306	700.985969889335	11
3	308	701.806198171285	12
3	309	712.050266201757	12
3	311	713.958362007736	12
3	312	716.445464910038	12
3	314	720.645742409063	12
3	316	729.832992657518	13
3	317	730.310332666007	13
3	319	735.531473481411	13
3	320	746.153206416943	13
3	321	747.217170662003	12
3	322	751.668736468505	11
3	323	762.756696851221	10
3	324	766.639336037343	9
3	325	774.665806906799	8
3	326	776.485631533385	7
3	328	776.789953050879	7
3	330	779.614350689329	8
3	332	785.140662753362	9
3	333	801.032498410381	9
3	334	803.448063198763	8
3	336	804.919677685226	8
3	340	813.104810438763	9
3	342	813.307067739144	10
3	344	818.30858984354	11
3	346	820.480143826829	11
3	348	824.302002192307	11
3	354	836.864931136729	12
3	356	837.350773138421	13
3	359	843.326417154544	14
3	361	844.464953258616	14
3	362	847.004566715457	13
3	364	850.212541818324	13
3	365	851.662723271319	13
3	366	852.792955607624	12
3	367	855.346986868317	11
3	374	862.256259261925	11
3	376	875.60020370663	11
3	378	881.830197929819	11
3	386	893.854051650568	12
3	388	897.930962325278	13
3	389	902.154268731993	13
3	396	910.066976022594	13
3	398	918.6352753624	13
3	399	927.326505044883	12
3	400	929.674016240791	11
3	401	931.854826988186	10
3	403	933.253107534893	10
3	405	941.657077362681	11
3	407	942.968278161708	12
3	409	946.440734773634	13
3	411	948.153764576261	14
3	412	951.306834393346	14
3	413	959.969575964154	13
3	415	965.521339741348	13
3	416	968.610293503556	13
3	418	981.004076053121	13
3	419	982.716133022528	13
3	420	987.051210739336	12
3	424	994.756002776781	11
3	425	995.176159222424	10
3	426	996.33959601398	9
3	427	999.722683809149	8
3	428	1001.469515198314	7
3	429	1002.346029088101	6
3	430	1002.547381463596	5
3	432	1004.449375652978	5
3	433	1005.121902722545	5
3	438	1015.38380414706	5
3	443	1024.553756365915	6
3	444	1031.370770337025	6
3	448	1037.290707556304	6
3	450	1047.51076891772	6
3	452	1049.858783622759	6
3	453	1050.573362588729	6
3	458	1057.607896085531	6
3	460	1061.401959982533	7
3	461	1064.410949569099	7
3	465	1067.787554912875	7
3	467	1068.252939213793	8
3	472	1077.823492036048	8
3	476	1083.990265721773	7
3	477	1084.199759706774	6
3	479	1091.347777855667	6
3	480	1096.166492413508	6
3	482	1096.268931160359	6
3	484	1100.961170677705	7
3	485	1102.342966368386	7
3	487	1104.564690809039	7
3	492	1112.067930347438	8
3	494	1119.099637767066	9
3	495	1120.732431671481	9
3	497	1130.957477577577	9
3	498	1132.13909605332	9
3	499	1134.173415284326	8
3	500	1134.532937298182	7
3	501	1137.033948741327	6
3	503	1138.78013148916	6
3	507	1144.323871654139	7
3	509	1148.450157988024	8
3	512	1158.627211880175	9
3	516	1159.331674425107	10
3	518	1168.353695857964	11
3	523	1185.588860520522	11
3	524	1187.691929047768	10
3	525	1188.128182900938	9
3	527	1188.190898806865	9
3	528	1189.328848701819	9
3	530	1194.247409209763	9
3	540	1215.289413414158	10
3	542	1226.592031707881	10
3	543	1238.150209590601	9
3	545	1240.032217313543	9
3	547	1240.082505664293	10
3	548	1243.502194872983	10
3	549	1249.492201328288	9
3	551	1253.710917304745	9
3	552	1256.257670890528	9
3	554	1257.293697563909	9
3	555	1257.480350066864	9
3	556	1270.635468104136	8
3	557	1276.438096706886	7
3	559	1283.813109435883	7
3	561	1291.389407764327	8
3	562	1296.261854115754	8
3	563	1301.183346444417	7
3	567	1309.08050898216	6
3	568	1309.649006237226	5
3	570	1313.569823988025	5
3	577	1325.428671148738	5
3	578	1326.399993716119	4
3	582	1330.278922659494	3
3	583	1333.410221494555	2
3	584	1337.219477400009	1
3	586	1346.167197587479	1
3	588	1350.028723703293	2
3	590	1351.512135146458	3
3	595	1363.224814850181	4
3	596	1364.203786533796	4
3	597	1364.509543922184	3
3	598	1364.990541725167	2
3	599	1365.520432023447	1
3	600	1372.548216146949	0
3	602	1377.772949826415	0
3	603	1378.376718296126	0
3	605	1378.379669330629	0
3	606	1387.482724279233	0
3	608	1391.432326235966	0
3	609	1391.975278676661	0
3	611	1393.686084915507	0
3	612	1401.913212581502	0
3	614	1405.629567179376	0
3	615	1406.302513426441	0
3	617	1418.469175043072	0
3	621	1425.893199456538	1
3	624	1439.836864833386	2
3	625	1441.278495228325	2
3	627	1444.7624137905	2
3	629	1448.263396076285	3
3	634	1465.369118310634	4
3	635	1475.665392502178	4
3	636	1478.853120527434	3
3	637	1491.154136183571	2
3	638	1493.953066460256	1
3	640	1497.176956300586	1
3	642	1497.962016172964	2
3	644	1498.005744378918	3
3	645	1502.634988827625	3
3	647	1508.777151633738	3
3	648	1511.251205682116	3
3	650	1513.081014510385	3
3	652	1519.02434727888	4
3	653	1519.910164466623	4
3	655	1521.224361848015	4
3	657	1521.4211177398	5
3	658	1525.447947026868	5
3	659	1525.933630651941	4
3	661	1527.176332775919	4
3	662	1532.973130422313	4
3	663	1535.065157511617	3
3	667	1542.095215944384	3
3	672	1568.008033668778	3
3	674	1568.633061524487	3
3	683	1586.257204412821	4
3	685	1589.545655119811	5
3	691	1603.431618318634	5
3	693	1603.92385839718	5
3	695	1609.50799170604	6
3	696	1610.517514089122	6
3	703	1622.167276600267	5
3	704	1622.607912775189	4
3	706	1625.662992635075	4
3	710	1631.920961920185	5
3	713	1635.677345328082	6
3	714	1640.29743950872	6
3	723	1654.996103444303	6
3	730	1663.090675980942	7
3	734	1671.984686938086	7
3	735	1678.529571491748	6
3	736	1678.626654691717	5
3	737	1683.172738469637	4
3	738	1684.49153860146	3
3	746	1704.68708707631	3
3	748	1709.770363652536	4
3	749	1710.682950046139	4
3	751	1716.266022827696	4
3	752	1720.619601463824	4
3	754	1720.94382496743	4
3	761	1728.637724047396	5
3	763	1731.636747604201	6
3	765	1734.21302859966	6
3	767	1746.878738555797	6
3	768	1749.974287372111	6
3	769	1758.433566700531	5
3	773	1767.685687162037	5
3	775	1784.550241260931	6
3	777	1784.841039858382	7
3	779	1786.41524331182	8
3	782	1789.616137908949	9
3	784	1793.820346761653	10
3	785	1796.19987774513	10
3	787	1800.426775317516	10
3	788	1812.163348411381	10
3	790	1812.321555644909	10
3	791	1813.046366081064	10
3	792	1821.010366072956	9
3	793	1821.014297450735	8
3	794	1825.670595245555	7
3	798	1833.774196863362	6
3	802	1840.504910789092	6
3	804	1842.590162227535	7
3	807	1847.99445252932	8
3	808	1849.452644269648	8
3	810	1854.07194290293	8
3	817	1858.808527574329	9
3	819	1868.962419890891	9
3	820	1874.9914284574	8
3	821	1876.3508403796	7
3	822	1879.600858366921	6
3	829	1894.016135839259	6
3	831	1899.711507438241	6
3	832	1907.567151260563	5
3	833	1913.275605620488	4
3	835	1915.429774557667	4
3	836	1924.232669574818	4
3	837	1925.37006500598	3
3	844	1935.621243650849	2
3	845	1942.925595949896	1
3	846	1952.668602895364	0
3	848	1967.183320475023	0
3	849	1974.961584975314	0
3	851	1979.625919561273	0
3	856	1993.509219006814	1
3	857	1994.931962804235	1
3	859	1999.044872113969	1
3	861	2006.225192601021	2
3	862	2009.120582417824	2
3	864	2011.405938186384	2
3	865	2012.729809809026	2
3	866	2017.311673049823	1
3	868	2018.637309074694	1
3	869	2021.105192559865	1
3	870	2024.227125172537	0
3	872	2030.325865854542	0
3	874	2031.042674949367	1
3	875	2033.58379800202	1
3	880	2037.599694128195	1
3	887	2053.161069135317	1
3	889	2073.067371242433	1
3	890	2073.818265521201	1
3	892	2078.372861477825	1
3	893	2082.729745002639	1
3	904	2109.343958797616	1
3	908	2118.475729509212	1
3	910	2123.437687074001	1
3	911	2130.806686959982	1
3	913	2138.579705603058	1
3	915	2143.511469465731	2
3	919	2150.464867815248	2
3	921	2162.382812115029	2
3	923	2163.089283698397	3
3	927	2168.186973905235	4
3	929	2173.482134525707	4
3	931	2173.869921520784	4
3	932	2179.783424371112	4
3	937	2189.811664414536	4
3	939	2196.082281053651	5
3	941	2196.260568128432	6
3	943	2197.06684740145	7
3	945	2198.899392425671	8
3	946	2200.712514627693	8
3	947	2202.837255623013	7
3	949	2203.672221669975	7
3	951	2205.91081637071	8
3	953	2209.528222924243	9
3	955	2212.282576392703	10
3	956	2213.030086309738	10
3	958	2215.738187667887	10
3	960	2216.540206352545	11
3	962	2219.790560216916	12
3	967	2232.952055811601	13
3	969	2233.289927255512	14
3	970	2233.596492341036	14
3	972	2234.378659968128	14
3	973	2236.295890212643	14
3	974	2241.696619283926	13
3	975	2244.80400925182	12
3	977	2246.891927868613	12
3	978	2248.055645000054	12
3	979	2249.045677030053	11
3	980	2251.183352926422	10
3	982	2252.24765871453	10
3	983	2254.173735756593	10
3	985	2256.212029238043	10
3	987	2258.711853867551	11
3	989	2263.520418659047	12
3	993	2266.53171272884	12
3	994	2269.488091154273	11
3	995	2271.149925126322	10
3	999	2277.795335408943	9
3	1000	2278.403713408183	8
3	1002	2291.641604036185	8
3	1004	2292.288336125078	9
3	1009	2299.337709247451	10
3	1011	2301.157408505392	11
3	1013	2310.542912566416	12
3	1014	2313.586469123741	12
3	1016	2316.096112479992	12
3	1017	2319.095416346611	12
3	1018	2322.188186567893	11
3	1020	2324.857901397619	11
3	1021	2328.291325950253	11
3	1023	2329.828241345159	11
3	1027	2336.636636448296	12
3	1031	2342.58296503385	13
3	1033	2344.407946736265	14
3	1036	2347.851559815224	15
3	1042	2363.887143678592	16
3	1044	2368.453322025333	17
3	1045	2370.964720202257	17
3	1050	2384.92887531202	17
3	1051	2388.795899160124	17
3	1053	2392.242113020186	17
3	1055	2402.905379266026	18
3	1059	2414.704580193717	19
3	1062	2416.079366247579	20
3	1063	2416.789053031064	20
3	1065	2418.726709731	20
3	1066	2422.592992239355	20
3	1068	2427.294030763727	20
3	1069	2436.652199390217	20
3	1071	2438.424958185678	20
3	1079	2441.73512436978	21
3	1081	2445.627055548079	22
3	1083	2448.642151641041	23
3	1093	2479.805499485109	24
3	1095	2487.304960627519	24
3	1096	2487.607155345651	23
3	1098	2489.270064040171	23
3	1102	2494.009934103584	24
4	162	354.914696827784	19
4	163	356.768685712741	20
4	168	361.08251118407	21
4	173	364.61598600882	22
4	178	379.382821872422	23
4	181	381.844583472589	24
4	182	381.890488299405	25
4	207	429.680704517624	26
4	217	463.032623391974	27
4	225	485.365034196959	28
4	237	512.757605452187	29
4	242	517.223630203244	30
4	258	577.011987502229	31
4	271	627.295323084533	32
4	285	655.543216955836	33
4	286	656.61949924454	34
4	287	660.05278986633	35
4	292	670.866815798623	36
4	295	673.038600162842	37
4	304	700.307313298062	38
4	345	819.401148806733	39
4	357	841.526144448517	40
4	360	844.0543544464	41
4	370	859.255624063701	42
4	375	867.100426217674	43
4	383	887.860579145612	44
4	384	887.963906050081	45
4	392	905.168145102293	46
4	397	915.737439403631	47
4	423	992.900990288895	48
4	436	1010.810886613296	49
4	441	1022.313935168628	50
4	449	1037.337792541498	51
4	456	1054.794373467972	52
4	470	1073.372465941488	53
4	471	1074.634907881995	54
4	475	1080.552059024792	55
4	490	1108.45954378507	56
4	510	1155.57724136344	57
4	519	1171.712622426318	58
4	522	1177.215138799157	59
4	535	1199.727819612329	60
4	538	1206.224225360237	61
4	541	1223.082517668966	62
4	566	1308.860781643485	63
4	575	1321.589172570606	64
4	576	1323.748686078	65
4	581	1328.197548757119	66
4	593	1352.271736011446	67
4	622	1428.779472507881	68
4	632	1455.879833392249	69
4	668	1543.146660104918	70
4	671	1553.617735913285	71
4	677	1575.503319128995	72
4	686	1593.301890480574	73
4	689	1596.588142025787	74
4	690	1598.049250045218	75
4	699	1615.644741197476	76
4	702	1620.50293573633	77
4	711	1632.214850704077	78
4	721	1653.688949124811	79
4	726	1656.983185944331	80
4	731	1664.481965152963	81
4	732	1667.174343164405	82
4	733	1669.982884485388	83
4	741	1690.843649322491	84
4	744	1704.154720634569	85
4	759	1726.400643545413	86
4	764	1732.550511054178	87
4	780	1788.113075240467	88
4	797	1826.504885808514	89
4	805	1846.026358471391	90
4	815	1858.619889068241	91
4	818	1868.467941276466	92
4	827	1892.802368312018	93
4	830	1896.916488497369	94
4	842	1932.216125425153	95
4	843	1934.25867959131	96
4	854	1990.470474553489	97
4	878	2036.691640894453	98
4	885	2045.9661383285	99
4	886	2049.497436974346	100
4	896	2091.39671880187	101
4	899	2099.543978055574	102
4	902	2101.122018289858	103
4	907	2115.967612004575	104
4	918	2148.289337324151	105
4	928	2172.524709664917	106
4	935	2189.224528382261	107
4	965	2227.6006675993	108
4	992	2265.354594683613	109
4	998	2276.261173550485	110
4	1007	2294.58532892915	111
4	1034	2344.666750802482	112
4	1037	2350.251187617824	113
4	1040	2353.273491477302	114
4	1048	2381.611159023995	115
4	1060	2415.853063542039	116
4	1074	2440.499543198061	117
4	1077	2440.688697488087	118
4	1088	2460.074774641072	119
4	1089	2475.936338943258	120
4	1094	2486.93993547745	121
5	162	354.914696827784	12.457870642875
5	163	356.768685712741	5.887372540444
5	168	361.08251118407	0.263991649021
5	173	364.61598600882	3.084342700265
5	178	379.382821872422	7.474222886551
5	181	381.844583472589	4.913565321122
5	182	381.890488299405	0.754158232288
5	207	429.680704517624	0.607248208029
5	217	463.032623391974	4.815760334285
5	225	485.365034196959	0.325650813494
5	237	512.757605452187	8.538268138522
5	242	517.223630203244	3.802334406354
5	258	577.011987502229	11.442707052712
5	271	627.295323084533	0.823291955352
5	285	655.543216955836	21.206658487783
5	286	656.61949924454	18.426756941261
5	287	660.05278986633	16.022112598566
5	292	670.866815798623	26.721852590477
5	295	673.038600162842	3.41875173684
5	304	700.307313298062	6.897644321658
5	345	819.401148806733	10.090226888748
5	357	841.526144448517	14.145186092552
5	360	844.0543544464	9.31367489734
5	370	859.255624063701	1.089029277978
5	375	867.100426217674	5.159310715628
5	383	887.860579145612	4.20469372386
5	384	887.963906050081	0.451258824206
5	392	905.168145102293	1.262592565679
5	397	915.737439403631	8.253501729485
5	423	992.900990288895	2.487535286372
5	436	1010.810886613296	2.807203689858
5	441	1022.313935168628	1.895985461246
5	449	1037.337792541498	4.088413242684
5	456	1054.794373467972	1.324166760156
5	470	1073.372465941488	7.550481408012
5	471	1074.634907881995	2.0199474263
5	475	1080.552059024792	2.575483034845
5	490	1108.45954378507	3.600884769879
5	510	1155.57724136344	11.929557312225
5	519	1171.712622426318	12.477481381337
5	522	1177.215138799157	5.248676533924
5	535	1199.727819612329	3.040960918425
5	538	1206.224225360237	8.414773851128
5	541	1223.082517668966	21.767640652125
5	566	1308.860781643485	7.560672180796
5	575	1321.589172570606	4.891830616185
5	576	1323.748686078	2.699255950684
5	581	1328.197548757119	0.957470452838
5	593	1352.271736011446	0.09927872076
5	622	1428.779472507881	9.01864868316
5	632	1455.879833392249	2.220187000299
5	668	1543.146660104918	4.072893337384
5	671	1553.617735913285	1.806466914388
5	677	1575.503319128995	0.82326713192
5	686	1593.301890480574	12.570358931126
5	689	1596.588142025787	12.801390227213
5	690	1598.049250045218	2.644007456467
5	699	1615.644741197476	1.220423957677
5	702	1620.50293573633	1.379787197942
5	711	1632.214850704077	3.368806527885
5	721	1653.688949124811	12.035460199292
5	726	1656.983185944331	10.754536759836
5	731	1664.481965152963	12.990071664031
5	732	1667.174343164405	10.730457335404
5	733	1669.982884485388	10.023888767198
5	741	1690.843649322491	4.324779618275
5	744	1704.154720634569	12.741811767791
5	759	1726.400643545413	3.573043271375
5	764	1732.550511054178	6.218800620832
5	780	1788.113075240467	20.720487018477
5	797	1826.504885808514	0.372375525182
5	805	1846.026358471391	8.793657806118
5	815	1858.619889068241	1.943638104214
5	818	1868.467941276466	11.087947955706
5	827	1892.802368312018	9.325509114762
5	830	1896.916488497369	11.51334896456
5	842	1932.216125425153	5.048791135481
5	843	1934.25867959131	5.400141745737
5	854	1990.470474553489	4.77755099436
5	878	2036.691640894453	1.563188559583
5	885	2045.9661383285	8.259493843479
5	886	2049.497436974346	6.024480121413
5	896	2091.39671880187	5.059028431198
5	899	2099.543978055574	1.998564520676
5	902	2101.122018289858	1.555914132574
5	907	2115.967612004575	0.647462410342
5	918	2148.289337324151	2.4351760279
5	928	2172.524709664917	6.843180249236
5	935	2189.224528382261	2.115277765364
5	965	2227.6006675993	6.145842083931
5	992	2265.354594683613	1.117779091761
5	998	2276.261173550485	4.386614874139
5	1007	2294.58532892915	1.507092456795
5	1034	2344.666750802482	8.171128961537
5	1037	2350.251187617824	12.903099212363
5	1040	2353.273491477302	1.018783849845
5	1048	2381.611159023995	9.431420673015
5	1060	2415.853063542039	1.317425655193
5	1074	2440.499543198061	1.133092069481
5	1077	2440.688697488087	0.116063904428
5	1088	2460.074774641072	7.373083491647
5	1089	2475.936338943258	20.162838290816
5	1094	2486.93993547745	8.892220993694
6	162	354.914696827784	4.033383655487
6	167	360.818519535049	0
6	170	361.531643308555	0
6	175	371.908598985871	0
6	178	379.382821872422	2.451803720955
6	181	381.844583472589	0.708253405472
6	206	429.073456309595	0
6	216	458.216863057689	0
6	224	485.039383383465	0
6	236	504.219337313665	0
6	241	513.42129579689	0
6	253	565.569280449517	0
6	270	626.472031129181	0
6	274	634.336558468053	0
6	285	655.543216955836	17.350474652557
6	286	656.61949924454	12.588821976776
6	287	660.05278986633	15.907826658184
6	292	670.866815798623	1.246967372621
6	301	693.409668976404	0
6	338	809.310921917985	0
6	350	827.380958355965	0
6	357	841.526144448517	6.785464899457
6	369	858.166594785723	0
6	372	861.941115502046	0
6	380	883.655885421752	0
6	383	887.860579145612	0.347931919737
6	391	903.905552536614	0
6	394	907.483937674146	0
6	422	990.413455002523	0
6	435	1008.003682923438	0
6	440	1020.417949707382	0
6	446	1033.249379298814	0
6	455	1053.470206707816	0
6	463	1065.821984533476	0
6	470	1073.372465941488	0.757505485793
6	474	1077.976575989947	0
6	489	1104.858659015191	0
6	505	1143.647684051215	0
6	514	1159.235141044981	0
6	521	1171.966462265233	0
6	532	1196.686858693904	0
6	535	1199.727819612329	1.91836810322
6	538	1206.224225360237	4.909348343396
6	565	1301.300109462689	0
6	572	1316.697341954421	0
6	575	1321.589172570606	0.53974244329
6	580	1327.240078304281	0
6	592	1352.172457290686	0
6	619	1419.760823824721	0
6	631	1453.65964639195	0
6	665	1539.073766767534	0
6	670	1551.811268998897	0
6	676	1574.680051997075	0
6	679	1580.731531549448	0
6	686	1593.301890480574	9.515138682
6	689	1596.588142025787	1.182899437036
6	698	1614.424317239799	0
6	701	1619.123148538388	0
6	708	1628.846044176192	0
6	716	1641.653488925519	0
6	721	1653.688949124811	7.460299940316
6	726	1656.983185944331	5.491292455399
6	731	1664.481965152963	8.038079323962
6	732	1667.174343164405	7.215347446215
6	740	1686.518869704216	0
6	743	1691.412908866778	0
6	756	1722.827600274038	0
6	759	1726.400643545413	0.068933112067
6	771	1767.39258822199	0
6	796	1826.132510283332	0
6	800	1837.232700665273	0
6	812	1856.676250964027	0
6	815	1858.619889068241	1.239895747481
6	824	1883.476859197256	0
6	827	1892.802368312018	7.399228779209
6	839	1927.167334289672	0
6	842	1932.216125425153	3.35758757958
6	853	1985.692923559129	0
6	877	2035.12845233487	0
6	882	2037.706644485021	0
6	885	2045.9661383285	2.493181475567
6	895	2086.337690370672	0
6	898	2097.545413534898	0
6	901	2099.566104157284	0
6	906	2115.320149594233	0
6	917	2145.854161296251	0
6	925	2165.681529415681	0
6	934	2187.109250616897	0
6	964	2221.454825515369	0
6	991	2264.236815591852	0
6	997	2271.874558676346	0
6	1006	2293.078236472355	0
6	1025	2336.495621840945	0
6	1034	2344.666750802482	7.318662397021
6	1039	2352.254707627457	0
6	1047	2372.17973835098	0
6	1057	2414.535637886846	0
6	1073	2439.36645112858	0
6	1076	2440.572633583659	0
6	1085	2452.701691149425	0
6	1088	2460.074774641072	4.30127398863
6	1091	2478.047714483756	0
6	1100	2490.461691942782	0
7	163	356.768685712741	23.264627569863
7	168	361.08251118407	24.526550825551
7	173	364.61598600882	22.761273331821
7	182	381.890488299405	33.879800433512
7	185	383.172446949157	28.951639057086
7	190	392.714364191659	33.8976860868
7	191	396.374727429581	35.556207894532
7	196	411.290986885403	49.759343576848
7	207	429.680704517624	66.761819570201
7	210	434.48492693257	62.576327946699
7	211	444.482019141624	61.979571567971
7	214	451.877999663338	65.186033411349
7	217	463.032623391974	71.552301059952
7	218	468.903866540449	65.992080457239
7	219	475.547629978217	71.638145942018
7	220	481.398978813578	69.225673229444
7	225	485.365034196959	69.262921667717
7	226	490.566620253272	68.797017999771
7	227	491.574921500042	64.441967015992
7	230	498.122880051614	69.049423742019
7	237	512.757605452187	78.907696532749
7	242	517.223630203244	69.815140809353
7	243	518.184220687338	59.967357629649
7	246	545.787437958549	63.868896093044
7	251	563.266237664447	78.226854280982
7	258	577.011987502229	84.366664437533
7	259	578.481209198631	80.063921330511
7	260	587.617188737002	86.951991415697
7	261	591.690779202138	87.471441888473
7	264	604.94124945517	91.863133707798
7	267	622.485747227857	109.06445143097
7	268	626.400092501498	96.793933297272
7	271	627.295323084533	79.911603259529
7	272	633.301939800177	70.481604026561
7	295	673.038600162842	107.46931971332
7	296	679.859890255052	108.435275093
7	299	693.407176322499	116.95829067445
7	304	700.307313298062	101.16375925303
7	309	712.050266201757	105.7606291822
7	312	716.445464910038	89.973433780857
7	317	730.310332666007	95.973774197954
7	320	746.153206416943	111.70517803259
7	321	747.217170662003	96.864965991933
7	322	751.668736468505	85.90231597993
7	323	762.756696851221	91.095600631466
7	324	766.639336037343	85.794734959861
7	325	774.665806906799	81.256137930395
7	326	776.485631533385	82.051634521785
7	333	801.032498410381	100.04652852105
7	334	803.448063198763	101.64186502748
7	345	819.401148806733	105.442786799
7	346	820.480143826829	99.834401417766
7	360	844.0543544464	114.22136178888
7	361	844.464953258616	108.9334797772
7	362	847.004566715457	70.214613664578
7	365	851.662723271319	72.04837258199
7	366	852.792955607624	67.652292854262
7	367	855.346986868317	50.427309183091
7	370	859.255624063701	49.944702145716
7	375	867.100426217674	53.995615778911
7	376	875.60020370663	62.293135967486
7	384	887.963906050081	69.655316206541
7	389	902.154268731993	77.852266539686
7	392	905.168145102293	77.787186746328
7	397	915.737439403631	78.872508266902
7	398	918.6352753624	81.284502223979
7	399	927.326505044883	84.000087890339
7	400	929.674016240791	79.461474422467
7	401	931.854826988186	73.688232202463
7	412	951.306834393346	89.3657188913
7	413	959.969575964154	97.713316702229
7	416	968.610293503556	86.780095573737
7	419	982.716133022528	99.060247600776
7	420	987.051210739336	93.197159088768
7	423	992.900990288895	94.970027963617
7	424	994.756002776781	90.850450240167
7	425	995.176159222424	87.692221548278
7	426	996.33959601398	86.272619991386
7	427	999.722683809149	66.469576274256
7	428	1001.469515198314	59.812437835633
7	429	1002.346029088101	59.377750926393
7	430	1002.547381463596	56.106646689962
7	433	1005.121902722545	56.968138146284
7	436	1010.810886613296	45.289546871948
7	441	1022.313935168628	41.309859115507
7	444	1031.370770337025	40.957315334502
7	449	1037.337792541498	32.88841688852
7	450	1047.51076891772	39.507085994282
7	453	1050.573362588729	35.189558441669
7	456	1054.794373467972	34.37642376059
7	461	1064.410949569099	39.857193203184
7	471	1074.634907881995	41.385528583181
7	472	1077.823492036048	40.532784479744
7	475	1080.552059024792	30.693275402033
7	476	1083.990265721773	30.520059013957
7	477	1084.199759706774	26.591863621243
7	480	1096.166492413508	34.764532430975
7	485	1102.342966368386	36.52098183491
7	490	1108.45954378507	40.671988872195
7	495	1120.732431671481	52.479492457688
7	498	1132.13909605332	54.162520063373
7	499	1134.173415284326	42.825637428659
7	500	1134.532937298182	38.264006137823
7	501	1137.033948741327	36.072778063622
7	510	1155.57724136344	51.012550554401
7	519	1171.712622426318	66.853963411127
7	522	1177.215138799157	65.147208451719
7	523	1185.588860520522	66.489222753456
7	524	1187.691929047768	56.734451470191
7	525	1188.128182900938	49.348051411778
7	528	1189.328848701819	45.681164650604
7	541	1223.082517668966	78.758646014827
7	542	1226.592031707881	78.141873719857
7	543	1238.150209590601	79.522997710426
7	548	1243.502194872983	84.267053828002
7	549	1249.492201328288	90.160526903181
7	552	1256.257670890528	87.903975032564
7	555	1257.480350066864	85.513887801631
7	556	1270.635468104136	82.444569297271
7	557	1276.438096706886	82.190687497123
7	562	1296.261854115754	99.57499542185
7	563	1301.183346444417	85.893933030259
7	566	1308.860781643485	68.828564329942
7	567	1309.08050898216	68.998003317867
7	568	1309.649006237226	55.938088932481
7	576	1323.748686078	66.454988514091
7	577	1325.428671148738	41.615561712855
7	578	1326.399993716119	35.010585951792
7	581	1328.197548757119	26.89743929443
7	582	1330.278922659494	16.709098671469
7	583	1333.410221494555	16.712879540134
7	584	1337.219477400009	9.979399095728
7	593	1352.271736011446	6.104538423967
7	596	1364.203786533796	14.175062830503
7	597	1364.509543922184	12.997408775726
7	598	1364.990541725167	12.818084434481
7	599	1365.520432023447	2.295617173266
7	602	1377.772949826415	0
7	605	1378.379669330629	0
7	608	1391.432326235966	0
7	611	1393.686084915507	0
7	614	1405.629567179376	0
7	617	1418.469175043072	0
7	622	1428.779472507881	9.01864868316
7	625	1441.278495228325	15.385295771787
7	632	1455.879833392249	16.042968558863
7	635	1475.665392502178	30.902978711678
7	636	1478.853120527434	30.589724451149
7	637	1491.154136183571	37.494489791621
7	638	1493.953066460256	28.583948149622
7	645	1502.634988827625	5.458032527039
7	648	1511.251205682116	13.289189509152
7	653	1519.910164466623	21.904420087705
7	658	1525.447947026868	16.67079539313
7	659	1525.933630651941	12.852616141556
7	662	1532.973130422313	13.948783143433
7	663	1535.065157511617	13.840795663602
7	668	1543.146660104918	21.725542365118
7	671	1553.617735913285	26.441403137366
7	672	1568.008033668778	28.934266901244
7	677	1575.503319128995	33.408103184611
7	690	1598.049250045218	46.237981046321
7	691	1603.431618318634	34.798556794147
7	696	1610.517514089122	35.837462092047
7	699	1615.644741197476	34.913209648028
7	702	1620.50293573633	34.245731323509
7	703	1622.167276600267	32.621621480456
7	704	1622.607912775189	18.684054378009
7	711	1632.214850704077	22.706858998037
7	714	1640.29743950872	25.873122268921
7	733	1669.982884485388	50.859735947
7	734	1671.984686938086	46.321694303011
7	735	1678.529571491748	49.683527315556
7	736	1678.626654691717	46.705692771532
7	737	1683.172738469637	47.495393141555
7	738	1684.49153860146	42.838049675941
7	741	1690.843649322491	35.847545878188
7	744	1704.154720634569	41.064044653627
7	749	1710.682950046139	24.164080341923
7	752	1720.619601463824	29.206692597046
7	764	1732.550511054178	27.863423977868
7	765	1734.21302859966	24.442664947124
7	768	1749.974287372111	33.708264544415
7	769	1758.433566700531	37.489741733101
7	780	1788.113075240467	65.285474966429
7	785	1796.19987774513	67.562153697734
7	788	1812.163348411381	80.52660080718
7	791	1813.046366081064	66.167627525267
7	792	1821.010366072956	53.617777850966
7	793	1821.014297450735	53.328610288698
7	794	1825.670595245555	41.120353984624
7	797	1826.504885808514	41.663845950132
7	798	1833.774196863362	47.358953551542
7	805	1846.026358471391	56.410220562442
7	808	1849.452644269648	55.632297507995
7	818	1868.467941276466	68.04116595895
7	819	1868.962419890891	56.640864245982
7	820	1874.9914284574	48.858918174068
7	821	1876.3508403796	39.118139714327
7	822	1879.600858366921	39.095947577829
7	830	1896.916488497369	54.326326269834
7	831	1899.711507438241	51.717054908921
7	832	1907.567151260563	53.495208357633
7	833	1913.275605620488	56.599354656461
7	836	1924.232669574818	65.424142000489
7	837	1925.37006500598	41.893205808724
7	843	1934.25867959131	40.242543752051
7	844	1935.621243650849	20.191469093182
7	845	1942.925595949896	15.758261660224
7	848	1967.183320475023	0
7	851	1979.625919561273	0
7	854	1990.470474553489	4.77755099436
7	857	1994.931962804235	1.422743797421
7	862	2009.120582417824	10.075710303855
7	865	2012.729809809026	6.504617208005
7	866	2017.311673049823	5.905734863439
7	869	2021.105192559865	2.467883485171
7	872	2030.325865854542	0
7	875	2033.58379800202	2.541123052653
7	878	2036.691640894453	1.563188559583
7	886	2049.497436974346	11.897742846151
7	887	2053.161069135317	15.454424650296
7	890	2073.818265521201	0.750894278768
7	893	2082.729745002639	4.356883524814
7	896	2091.39671880187	5.059028431198
7	899	2099.543978055574	1.998564520676
7	902	2101.122018289858	1.555914132574
7	907	2115.967612004575	6.623653206959
7	908	2118.475729509212	3.155579914979
7	911	2130.806686959982	7.368999885981
7	918	2148.289337324151	9.709631721093
7	919	2150.464867815248	6.953398349517
7	928	2172.524709664917	26.670548368666
7	929	2173.482134525707	11.099322410678
7	932	2179.783424371112	16.694140672715
7	935	2189.224528382261	23.54299896658
7	946	2200.712514627693	32.525540722458
7	947	2202.837255623013	28.967334102229
7	956	2213.030086309738	25.920835692841
7	965	2227.6006675993	37.789003184764
7	970	2233.596492341036	37.514211287385
7	973	2236.295890212643	40.035322084211
7	974	2241.696619283926	44.629771882476
7	975	2244.80400925182	45.904616826149
7	978	2248.055645000054	44.383423330079
7	979	2249.045677030053	43.134860659343
7	980	2251.183352926422	41.655130002179
7	983	2254.173735756593	41.89115936389
7	992	2265.354594683613	49.616407015726
7	993	2266.53171272884	49.991506376295
7	994	2269.488091154273	49.697530937357
7	995	2271.149925126322	49.695099610953
7	998	2276.261173550485	43.309117738884
7	999	2277.795335408943	44.505408153431
7	1000	2278.403713408183	44.025053440055
7	1007	2294.58532892915	47.693401060537
7	1014	2313.586469123741	61.338810409211
7	1017	2319.095416346611	62.883387108568
7	1018	2322.188186567893	63.476332700342
7	1021	2328.291325950253	64.770907291206
7	1037	2350.251187617824	86.014372025972
7	1040	2353.273491477302	81.398932800956
7	1045	2370.964720202257	79.323116166072
7	1048	2381.611159023995	89.322822898917
7	1051	2388.795899160124	95.717662687769
7	1060	2415.853063542039	116.51535429459
7	1063	2416.789053031064	115.63164452567
7	1066	2422.592992239355	112.05007967294
7	1069	2436.652199390217	120.55608691022
7	1074	2440.499543198061	115.64164180044
7	1077	2440.688697488087	110.86045614293
7	1089	2475.936338943258	139.44071710231
7	1094	2486.93993547745	150.30329902915
7	1095	2487.304960627519	144.72199559367
7	1096	2487.607155345651	143.19920860939
8	167	360.818519535049	12
8	170	361.531643308555	13
8	175	371.908598985871	14
8	206	429.073456309595	15
8	216	458.216863057689	16
8	224	485.039383383465	17
8	236	504.219337313665	18
8	241	513.42129579689	19
8	253	565.569280449517	20
8	270	626.472031129181	21
8	274	634.336558468053	22
8	301	693.409668976404	23
8	338	809.310921917985	24
8	350	827.380958355965	25
8	369	858.166594785723	26
8	372	861.941115502046	27
8	380	883.655885421752	28
8	391	903.905552536614	29
8	394	907.483937674146	30
8	422	990.413455002523	31
8	435	1008.003682923438	32
8	440	1020.417949707382	33
8	446	1033.249379298814	34
8	455	1053.470206707816	35
8	463	1065.821984533476	36
8	474	1077.976575989947	37
8	489	1104.858659015191	38
8	505	1143.647684051215	39
8	514	1159.235141044981	40
8	521	1171.966462265233	41
8	532	1196.686858693904	42
8	565	1301.300109462689	43
8	572	1316.697341954421	44
8	580	1327.240078304281	45
8	592	1352.172457290686	46
8	619	1419.760823824721	47
8	631	1453.65964639195	48
8	665	1539.073766767534	49
8	670	1551.811268998897	50
8	676	1574.680051997075	51
8	679	1580.731531549448	52
8	698	1614.424317239799	53
8	701	1619.123148538388	54
8	708	1628.846044176192	55
8	716	1641.653488925519	56
8	740	1686.518869704216	57
8	743	1691.412908866778	58
8	756	1722.827600274038	59
8	771	1767.39258822199	60
8	796	1826.132510283332	61
8	800	1837.232700665273	62
8	812	1856.676250964027	63
8	824	1883.476859197256	64
8	839	1927.167334289672	65
8	853	1985.692923559129	66
8	877	2035.12845233487	67
8	882	2037.706644485021	68
8	895	2086.337690370672	69
8	898	2097.545413534898	70
8	901	2099.566104157284	71
8	906	2115.320149594233	72
8	917	2145.854161296251	73
8	925	2165.681529415681	74
8	934	2187.109250616897	75
8	964	2221.454825515369	76
8	991	2264.236815591852	77
8	997	2271.874558676346	78
8	1006	2293.078236472355	79
8	1025	2336.495621840945	80
8	1039	2352.254707627457	81
8	1047	2372.17973835098	82
8	1057	2414.535637886846	83
8	1073	2439.36645112858	84
8	1076	2440.572633583659	85
8	1085	2452.701691149425	86
8	1091	2478.047714483756	87
8	1100	2490.461691942782	88
9	185	383.172446949157	32
9	190	392.714364191659	33
9	191	396.374727429581	34
9	196	411.290986885403	35
9	210	434.48492693257	36
9	211	444.482019141624	37
9	214	451.877999663338	38
9	218	468.903866540449	39
9	219	475.547629978217	40
9	220	481.398978813578	41
9	226	490.566620253272	42
9	227	491.574921500042	43
9	230	498.122880051614	44
9	243	518.184220687338	45
9	246	545.787437958549	46
9	251	563.266237664447	47
9	259	578.481209198631	48
9	260	587.617188737002	49
9	261	591.690779202138	50
9	264	604.94124945517	51
9	267	622.485747227857	52
9	268	626.400092501498	53
9	272	633.301939800177	54
9	296	679.859890255052	55
9	299	693.407176322499	56
9	309	712.050266201757	57
9	312	716.445464910038	58
9	317	730.310332666007	59
9	320	746.153206416943	60
9	321	747.217170662003	61
9	322	751.668736468505	62
9	323	762.756696851221	63
9	324	766.639336037343	64
9	325	774.665806906799	65
9	326	776.485631533385	66
9	333	801.032498410381	67
9	334	803.448063198763	68
9	346	820.480143826829	69
9	361	844.464953258616	70
9	362	847.004566715457	71
9	365	851.662723271319	72
9	366	852.792955607624	73
9	367	855.346986868317	74
9	376	875.60020370663	75
9	389	902.154268731993	76
9	398	918.6352753624	77
9	399	927.326505044883	78
9	400	929.674016240791	79
9	401	931.854826988186	80
9	412	951.306834393346	81
9	413	959.969575964154	82
9	416	968.610293503556	83
9	419	982.716133022528	84
9	420	987.051210739336	85
9	424	994.756002776781	86
9	425	995.176159222424	87
9	426	996.33959601398	88
9	427	999.722683809149	89
9	428	1001.469515198314	90
9	429	1002.346029088101	91
9	430	1002.547381463596	92
9	433	1005.121902722545	93
9	444	1031.370770337025	94
9	450	1047.51076891772	95
9	453	1050.573362588729	96
9	461	1064.410949569099	97
9	472	1077.823492036048	98
9	476	1083.990265721773	99
9	477	1084.199759706774	100
9	480	1096.166492413508	101
9	485	1102.342966368386	102
9	495	1120.732431671481	103
9	498	1132.13909605332	104
9	499	1134.173415284326	105
9	500	1134.532937298182	106
9	501	1137.033948741327	107
9	523	1185.588860520522	108
9	524	1187.691929047768	109
9	525	1188.128182900938	110
9	528	1189.328848701819	111
9	542	1226.592031707881	112
9	543	1238.150209590601	113
9	548	1243.502194872983	114
9	549	1249.492201328288	115
9	552	1256.257670890528	116
9	555	1257.480350066864	117
9	556	1270.635468104136	118
9	557	1276.438096706886	119
9	562	1296.261854115754	120
9	563	1301.183346444417	121
9	567	1309.08050898216	122
9	568	1309.649006237226	123
9	577	1325.428671148738	124
9	578	1326.399993716119	125
9	582	1330.278922659494	126
9	583	1333.410221494555	127
9	584	1337.219477400009	128
9	596	1364.203786533796	129
9	597	1364.509543922184	130
9	598	1364.990541725167	131
9	599	1365.520432023447	132
9	600	1372.548216146949	133
9	603	1378.376718296126	134
9	606	1387.482724279233	135
9	609	1391.975278676661	136
9	612	1401.913212581502	137
9	615	1406.302513426441	138
9	625	1441.278495228325	139
9	635	1475.665392502178	140
9	636	1478.853120527434	141
9	637	1491.154136183571	142
9	638	1493.953066460256	143
9	645	1502.634988827625	144
9	648	1511.251205682116	145
9	653	1519.910164466623	146
9	658	1525.447947026868	147
9	659	1525.933630651941	148
9	662	1532.973130422313	149
9	663	1535.065157511617	150
9	672	1568.008033668778	151
9	691	1603.431618318634	152
9	696	1610.517514089122	153
9	703	1622.167276600267	154
9	704	1622.607912775189	155
9	714	1640.29743950872	156
9	734	1671.984686938086	157
9	735	1678.529571491748	158
9	736	1678.626654691717	159
9	737	1683.172738469637	160
9	738	1684.49153860146	161
9	749	1710.682950046139	162
9	752	1720.619601463824	163
9	765	1734.21302859966	164
9	768	1749.974287372111	165
9	769	1758.433566700531	166
9	785	1796.19987774513	167
9	788	1812.163348411381	168
9	791	1813.046366081064	169
9	792	1821.010366072956	170
9	793	1821.014297450735	171
9	794	1825.670595245555	172
9	798	1833.774196863362	173
9	808	1849.452644269648	174
9	819	1868.962419890891	175
9	820	1874.9914284574	176
9	821	1876.3508403796	177
9	822	1879.600858366921	178
9	831	1899.711507438241	179
9	832	1907.567151260563	180
9	833	1913.275605620488	181
9	836	1924.232669574818	182
9	837	1925.37006500598	183
9	844	1935.621243650849	184
9	845	1942.925595949896	185
9	846	1952.668602895364	186
9	849	1974.961584975314	187
9	857	1994.931962804235	188
9	862	2009.120582417824	189
9	865	2012.729809809026	190
9	866	2017.311673049823	191
9	869	2021.105192559865	192
9	870	2024.227125172537	193
9	875	2033.58379800202	194
9	887	2053.161069135317	195
9	890	2073.818265521201	196
9	893	2082.729745002639	197
9	908	2118.475729509212	198
9	911	2130.806686959982	199
9	919	2150.464867815248	200
9	929	2173.482134525707	201
9	932	2179.783424371112	202
9	946	2200.712514627693	203
9	947	2202.837255623013	204
9	956	2213.030086309738	205
9	970	2233.596492341036	206
9	973	2236.295890212643	207
9	974	2241.696619283926	208
9	975	2244.80400925182	209
9	978	2248.055645000054	210
9	979	2249.045677030053	211
9	980	2251.183352926422	212
9	983	2254.173735756593	213
9	993	2266.53171272884	214
9	994	2269.488091154273	215
9	995	2271.149925126322	216
9	999	2277.795335408943	217
9	1000	2278.403713408183	218
9	1014	2313.586469123741	219
9	1017	2319.095416346611	220
9	1018	2322.188186567893	221
9	1021	2328.291325950253	222
9	1045	2370.964720202257	223
9	1051	2388.795899160124	224
9	1063	2416.789053031064	225
9	1066	2422.592992239355	226
9	1069	2436.652199390217	227
9	1095	2487.304960627519	228
9	1096	2487.607155345651	229
10	185	383.172446949157	35.161759083264
10	190	392.714364191659	38.493556299588
10	191	396.374727429581	37.558049324722
10	196	411.290986885403	50.472467350354
10	210	434.48492693257	71.566041985147
10	211	444.482019141624	72.573420155753
10	214	451.877999663338	69.375552089685
10	218	468.903866540449	77.423544208427
10	219	475.547629978217	72.635843895007
10	220	481.398978813578	77.489494777379
10	226	490.566620253272	74.46450772403
10	227	491.574921500042	69.805319246541
10	230	498.122880051614	70.989925567564
10	243	518.184220687338	70.775731293447
10	246	545.787437958549	87.57057490086
10	251	563.266237664447	81.347695798942
10	259	578.481209198631	85.835886133935
10	260	587.617188737002	89.199900868882
10	261	591.690779202138	91.025581880833
10	264	604.94124945517	100.72191214151
10	267	622.485747227857	109.40763148048
10	268	626.400092501498	112.97879670461
10	272	633.301939800177	85.918219975173
10	296	679.859890255052	114.29060980553
10	299	693.407176322499	121.98256116045
10	309	712.050266201757	112.90671215672
10	312	716.445464910038	110.15582789048
10	317	730.310332666007	103.83830153683
10	320	746.153206416943	111.81664794889
10	321	747.217170662003	112.76914227765
10	322	751.668736468505	101.31653179843
10	323	762.756696851221	96.990276362646
10	324	766.639336037343	94.978239817588
10	325	774.665806906799	93.821205829317
10	326	776.485631533385	83.075962556981
10	333	801.032498410381	106.59850139878
10	334	803.448063198763	102.46209330943
10	346	820.480143826829	106.52178181909
10	361	844.464953258616	114.6319606011
10	362	847.004566715457	111.47309323405
10	365	851.662723271319	74.87277022044
10	366	852.792955607624	73.178604918295
10	367	855.346986868317	70.206324114955
10	376	875.60020370663	62.495393267867
10	389	902.154268731993	83.845678888453
10	398	918.6352753624	81.770344225671
10	399	927.326505044883	89.975731906462
10	400	929.674016240791	86.347599086247
10	401	931.854826988186	81.642285169862
10	412	951.306834393346	93.140239607623
10	413	959.969575964154	98.028460462108
10	416	968.610293503556	106.35403424163
10	419	982.716133022528	100.88593509271
10	420	987.051210739336	103.39532531758
10	424	994.756002776781	96.825040451503
10	425	995.176159222424	91.27060668581
10	426	996.33959601398	88.855658339834
10	427	999.722683809149	89.655707786555
10	428	1001.469515198314	68.216407663421
10	429	1002.346029088101	60.68895172542
10	430	1002.547381463596	59.579103301888
10	433	1005.121902722545	58.681167948911
10	444	1031.370770337025	50.366694283904
10	450	1047.51076891772	43.061393264742
10	453	1050.573362588729	42.569679665291
10	461	1064.410949569099	43.992999861717
10	472	1077.823492036048	44.574112737234
10	476	1083.990265721773	34.131482099014
10	477	1084.199759706774	30.729552998958
10	480	1096.166492413508	38.558596327977
10	485	1102.342966368386	40.941006385853
10	495	1120.732431671481	52.944876758606
10	498	1132.13909605332	63.886156839527
10	499	1134.173415284326	56.196839294379
10	500	1134.532937298182	43.185159442515
10	501	1137.033948741327	40.765017580968
10	523	1185.588860520522	73.520930173084
10	524	1187.691929047768	68.592291280702
10	525	1188.128182900938	57.170705323361
10	528	1189.328848701819	50.548717212659
10	542	1226.592031707881	82.268160053742
10	543	1238.150209590601	89.700051602577
10	548	1243.502194872983	84.874982992808
10	549	1249.492201328288	90.257060283307
10	552	1256.257670890528	96.925996465421
10	555	1257.480350066864	89.1266542089
10	556	1270.635468104136	98.669005838903
10	557	1276.438096706886	88.247197900021
10	562	1296.261854115754	102.01444490599
10	563	1301.183346444417	104.49648775051
10	567	1309.08050898216	69.048291668617
10	568	1309.649006237226	69.566500572933
10	577	1325.428671148738	68.134973584829
10	578	1326.399993716119	42.586884280236
10	582	1330.278922659494	28.978813196805
10	583	1333.410221494555	19.84039750653
10	584	1337.219477400009	20.522135445588
10	596	1364.203786533796	18.036588946317
10	597	1364.509543922184	14.480820218891
10	598	1364.990541725167	13.478406578709
10	599	1365.520432023447	13.347974732761
10	600	1372.548216146949	9.323401296768
10	603	1378.376718296126	0.603768469711
10	606	1387.482724279233	9.103054948604
10	609	1391.975278676661	0.542952440695
10	612	1401.913212581502	8.227127665995
10	615	1406.302513426441	0.672946247065
10	625	1441.278495228325	21.517671403604
10	635	1475.665392502178	35.828527668792
10	636	1478.853120527434	34.090706736934
10	637	1491.154136183571	42.890740107286
10	638	1493.953066460256	40.293420068306
10	645	1502.634988827625	37.265870516991
10	648	1511.251205682116	14.07424938153
10	653	1519.910164466623	21.948148293659
10	658	1525.447947026868	27.44220264795
10	659	1525.933630651941	17.156479018203
10	662	1532.973130422313	19.892115911928
10	663	1535.065157511617	16.040810232737
10	672	1568.008033668778	40.831700892859
10	691	1603.431618318634	51.620349319737
10	696	1610.517514089122	41.884452564635
10	703	1622.167276600267	35.910072187446
10	704	1622.607912775189	33.062257655378
10	714	1640.29743950872	30.78944780268
10	734	1671.984686938086	52.861538399698
10	735	1678.529571491748	52.866578856673
10	736	1678.626654691717	49.780610515525
10	737	1683.172738469637	51.251776549452
10	738	1684.49153860146	48.814193273378
10	749	1710.682950046139	47.592274065197
10	752	1720.619601463824	34.100731759608
10	765	1734.21302859966	29.52594152335
10	768	1749.974287372111	40.203923719575
10	769	1758.433566700531	42.167543872835
10	785	1796.19987774513	73.372277471092
10	788	1812.163348411381	83.525624363985
10	791	1813.046366081064	81.409618476863
10	792	1821.010366072956	74.131627517159
10	793	1821.014297450735	53.621709228745
10	794	1825.670595245555	57.984908083518
10	798	1833.774196863362	48.93315700498
10	808	1849.452644269648	59.836506360699
10	819	1868.962419890891	68.535644573375
10	820	1874.9914284574	62.669872812491
10	821	1876.3508403796	50.218330096268
10	822	1879.600858366921	42.368157701648
10	831	1899.711507438241	57.121345210706
10	832	1907.567151260563	59.572698731243
10	833	1913.275605620488	59.203662717558
10	836	1924.232669574818	67.556418610791
10	837	1925.37006500598	66.561537431651
10	844	1935.621243650849	41.60510781159
10	845	1942.925595949896	27.495821392229
10	846	1952.668602895364	25.501268605692
10	849	1974.961584975314	7.778264500291
10	857	1994.931962804235	9.239039245106
10	862	2009.120582417824	15.61136341101
10	865	2012.729809809026	13.684937695057
10	866	2017.311673049823	11.086480448802
10	869	2021.105192559865	9.699254373481
10	870	2024.227125172537	5.589816097843
10	875	2033.58379800202	3.257932147478
10	887	2053.161069135317	15.561375007122
10	890	2073.818265521201	36.11162103618
10	893	2082.729745002639	9.662373760206
10	908	2118.475729509212	9.131770711596
10	911	2130.806686959982	15.486537365749
10	919	2150.464867815248	11.88516221219
10	929	2173.482134525707	27.627973229456
10	932	2179.783424371112	17.400612256083
10	946	2200.712514627693	35.030985212012
10	947	2202.837255623013	34.650281717778
10	956	2213.030086309738	39.160164788954
10	970	2233.596492341036	43.7848279265
10	973	2236.295890212643	40.213609158992
10	974	2241.696619283926	45.436051155494
10	975	2244.80400925182	47.73716185037
10	978	2248.055645000054	49.156252574383
10	979	2249.045677030053	45.373455360078
10	980	2251.183352926422	45.272536555712
10	983	2254.173735756593	44.64551283235
10	993	2266.53171272884	50.793525060953
10	994	2269.488091154273	52.947884801728
10	995	2271.149925126322	51.359364909406
10	999	2277.795335408943	44.843279597342
10	1000	2278.403713408183	45.113786152671
10	1014	2313.586469123741	66.694541255128
10	1017	2319.095416346611	66.847757632081
10	1018	2322.188186567893	65.97615732985
10	1021	2328.291325950253	69.579472082702
10	1045	2370.964720202257	99.090161525911
10	1051	2388.795899160124	96.507563035046
10	1063	2416.789053031064	117.45134378361
10	1066	2422.592992239355	121.43558373396
10	1069	2436.652199390217	126.1092868238
10	1095	2487.304960627519	150.66832417922
10	1096	2487.607155345651	145.0241903118
11	1103	2500	0.0916
12	1103	2500	0.0484

