file 57128 1678524116                                           
version 2
run experiments_medium_game_mode1-576-20230311-09:41:56-11568
attr configname experiments_medium_game_mode1
attr datetime 20230311-09:41:56
attr experiment experiments_medium_game_mode1
attr inifile omnetpp.ini
attr iterationvars "$0=5.5, $1=7, $2=100"
attr iterationvarsf 5.5,7,100-
attr measurement "$0=5.5, $1=7, $2=100"
attr network Network
attr processid 11568
attr repetition 6
attr replication #6
attr resultdir results
attr runnumber 576
attr seedset 6
param *.boss.arrival_mean 20
param *.boss.service_mean 5.5
param *.minion.arrival_mean 10
param *.minion.service_mean 7
param *.player.recover_rate_x 100
param **.minion.arrival_distribution 0
param **.minion.service_distribution 0
param **.boss.arrival_distribution 0
param **.boss.service_distribution 0

vector 0 Network.player boss_jobs_number_stat:vector ETV
attr source signal_boss_jobs_number
vector 1 Network.player boss_jobs_queue_number_stat:vector ETV
attr source signal_boss_jobs_queue_number
vector 2 Network.player minion_recovered_stat:vector ETV
attr source signal_minion_recovered
vector 3 Network.player boss_waiting_time_stat:vector ETV
attr source signal_boss_waiting_time
vector 4 Network.player minion_jobs_number_stat:vector ETV
attr source signal_minion_jobs_number
vector 5 Network.player minion_jobs_queue_number_stat:vector ETV
attr source signal_minion_jobs_queue_number
vector 6 Network.player boss_defeated_stat:vector ETV
attr source signal_boss_defeated
vector 7 Network.player boss_response_time_stat:vector ETV
attr source signal_boss_response_time
vector 8 Network.player minion_waiting_time_stat:vector ETV
attr source signal_minion_waiting_time
vector 9 Network.player minion_defeated_stat:vector ETV
attr source signal_minion_defeated
vector 10 Network.player minion_response_time_stat:vector ETV
attr source signal_minion_response_time
vector 11 Network.player minion_throughput:vector ETV
attr source signal_minion_throughput
vector 12 Network.player boss_throughput:vector ETV
attr source signal_boss_throughput
0	2024 2407 131 995 350.911095348185 2499.404620087199 94 1 3 120 178
1	4431 4784 131 995 350.911095348185 2499.404620087199 187 0 2 52 64
2	9215 1545 131 995 350.911095348185 2499.404620087199 58 9 66 2175 97817
3	10760 2707 131 995 350.911095348185 2499.404620087199 94 0 16.746172853672 130.24145165095 1347.7750967885
4	13467 5038 133 981 351.627033189598 2473.954007465772 196 1 11 891 5673
5	18505 9973 133 993 351.627033189598 2490.900388201207 389 0 10 1369 8025
6	28478 2485 134 991 353.267954132663 2488.693849291767 93 22 114 6324 497054
7	30963 3600 134 991 353.267954132663 2488.693849291767 93 0.002989731127 26.418192190465 623.85930072013 7904.1317476852
8	34563 9494 134 993 353.267954132663 2490.900388201207 250 0 79.890169926889 6493.543192034 287299.56630447
9	44057 5250 137 993 356.871388160563 2490.900388201207 193 19 211 22195 3151497
10	49307 7782 137 993 356.871388160563 2490.900388201207 193 0.23984192067 83.013436881041 5963.1304450484 278028.54831098
11	57089 19 996 996 2500 2500 1 0.0844 0.0844 0.0844 0.00712336
12	57108 19 996 996 2500 2500 1 0.0456 0.0456 0.0456 0.00207936

