version 2
run experiments_medium_game_mode1-427-20230311-09:41:25-10821
attr configname experiments_medium_game_mode1
attr datetime 20230311-09:41:25
attr experiment experiments_medium_game_mode1
attr inifile omnetpp.ini
attr iterationvars "$0=5.5, $1=5, $2=0"
attr iterationvarsf 5.5,5,0-
attr measurement "$0=5.5, $1=5, $2=0"
attr network Network
attr processid 10821
attr repetition 7
attr replication #7
attr resultdir results
attr runnumber 427
attr seedset 7
param *.boss.arrival_mean 20
param *.boss.service_mean 5.5
param *.minion.arrival_mean 10
param *.minion.service_mean 5
param *.player.recover_rate_x 0
param **.minion.arrival_distribution 0
param **.minion.service_distribution 0
param **.boss.arrival_distribution 0
param **.boss.service_distribution 0

vector 0 Network.player boss_jobs_number_stat:vector ETV
attr source signal_boss_jobs_number
vector 1 Network.player boss_jobs_queue_number_stat:vector ETV
attr source signal_boss_jobs_queue_number
vector 2 Network.player boss_waiting_time_stat:vector ETV
attr source signal_boss_waiting_time
vector 3 Network.player minion_jobs_number_stat:vector ETV
attr source signal_minion_jobs_number
vector 4 Network.player minion_jobs_queue_number_stat:vector ETV
attr source signal_minion_jobs_queue_number
vector 5 Network.player boss_defeated_stat:vector ETV
attr source signal_boss_defeated
vector 6 Network.player boss_response_time_stat:vector ETV
attr source signal_boss_response_time
vector 7 Network.player minion_waiting_time_stat:vector ETV
attr source signal_minion_waiting_time
vector 8 Network.player minion_defeated_stat:vector ETV
attr source signal_minion_defeated
vector 9 Network.player minion_response_time_stat:vector ETV
attr source signal_minion_response_time
vector 10 Network.player minion_recovered_stat:vector ETV
attr source signal_minion_recovered
vector 11 Network.player minion_throughput:vector ETV
attr source signal_minion_throughput
vector 12 Network.player boss_throughput:vector ETV
attr source signal_boss_throughput
0	122	354.444077836132	1
0	134	406.898104172744	1
0	138	412.257206650644	2
0	154	436.114629776888	1
0	163	453.737651697012	1
0	166	454.215286568968	1
0	173	464.656055005741	1
0	176	476.260410756314	1
0	179	479.189485801982	1
0	182	483.085877055807	1
0	191	498.797104969028	1
0	195	504.528118920206	1
0	202	519.131660745384	1
0	225	592.360836225431	1
0	230	621.482739564962	1
0	232	622.989798236534	2
0	251	677.30644856781	1
0	256	692.35140995363	1
0	258	694.23110564586	2
0	261	699.495877799079	2
0	266	703.853308695614	2
0	268	710.741952008659	3
0	304	813.718144071485	1
0	311	827.514843339431	1
0	314	832.877151770902	1
0	316	834.115971989249	2
0	327	839.578052108125	1
0	340	879.643308591697	1
0	346	899.479755191889	1
0	376	976.565614317659	1
0	386	1003.12254496667	1
0	388	1003.62455407805	2
0	392	1026.941684101135	1
0	395	1030.833821058568	1
0	397	1031.466333288233	2
0	402	1039.284372261193	2
0	420	1085.845270508107	1
0	426	1100.918783639256	1
0	430	1107.668427627462	2
0	451	1161.237628372735	1
0	460	1177.458798046421	1
0	484	1243.026575003035	1
0	488	1252.472146928695	1
0	525	1354.658220514177	1
0	527	1355.197924768725	2
0	534	1382.867144682827	1
0	542	1396.497411846483	1
0	546	1406.293757776049	1
0	554	1442.295449873716	1
0	561	1451.72734647732	1
0	569	1460.872643203582	1
0	577	1481.237026826022	1
0	581	1495.724918166403	1
0	584	1499.13631228092	1
0	591	1511.92385810321	1
0	610	1581.533932958997	1
0	614	1591.294094495414	1
0	638	1665.178439283615	1
0	650	1692.44070236867	1
0	652	1693.608171517466	2
0	658	1701.774818324175	1
0	665	1707.872550576227	1
0	681	1725.971570480458	1
0	684	1730.598897677657	1
0	689	1738.198745412658	1
0	697	1744.347793922827	1
0	703	1752.848412235259	1
0	708	1757.78363004108	1
0	712	1763.399925835698	1
0	714	1764.921157897889	2
0	723	1788.864423319195	1
0	729	1799.117948212139	2
0	732	1803.885143658398	2
0	737	1812.247238961048	2
0	739	1818.46743115362	3
0	755	1847.235945382245	1
0	760	1856.600659787436	1
0	778	1884.986909974073	1
0	781	1902.010481329994	1
0	785	1909.821559344625	2
0	808	1959.686324650859	1
0	811	1961.530443557048	1
0	824	1995.712949519735	1
0	830	2010.305708730489	1
0	834	2013.868655704263	2
0	839	2033.511827931655	1
0	843	2034.000853631123	2
0	847	2042.018879043449	1
0	869	2072.729029228804	1
0	872	2074.942192120614	1
0	875	2081.096007312855	1
0	884	2101.959760183306	1
0	887	2110.250898302535	1
0	890	2116.31426357427	1
0	901	2149.994215450844	1
0	909	2162.535855115292	1
0	920	2195.484333627378	1
0	923	2206.573676180957	1
0	932	2220.180729233857	1
0	941	2234.82324390748	1
0	958	2272.150202713364	1
0	969	2294.213482175366	1
0	980	2303.302072368365	1
0	1016	2403.073108456165	1
0	1018	2404.053361099046	2
0	1028	2423.00394114612	1
0	1031	2429.138406406712	1
0	1034	2436.588983293494	1
0	1043	2449.056449732793	1
0	1050	2456.915004370078	1
0	1063	2480.556299264915	1
1	122	354.444077836132	0
1	125	367.589287047365	0
1	134	406.898104172744	0
1	138	412.257206650644	1
1	141	420.658607393874	1
1	142	421.04970029511	0
1	154	436.114629776888	0
1	161	451.248593528469	0
1	163	453.737651697012	0
1	164	454.168418867891	0
1	166	454.215286568968	0
1	171	464.174918570116	0
1	173	464.656055005741	0
1	174	468.969389225553	0
1	176	476.260410756314	0
1	177	476.914789398102	0
1	179	479.189485801982	0
1	180	479.704567634542	0
1	182	483.085877055807	0
1	185	492.992470765119	0
1	191	498.797104969028	0
1	192	501.447573540202	0
1	195	504.528118920206	0
1	196	509.168393536932	0
1	202	519.131660745384	0
1	203	525.205364723672	0
1	225	592.360836225431	0
1	226	593.904217791738	0
1	230	621.482739564962	0
1	232	622.989798236534	1
1	233	624.566381278828	1
1	234	625.371858012532	0
1	251	677.30644856781	0
1	252	677.553682720984	0
1	256	692.35140995363	0
1	258	694.23110564586	1
1	259	699.394016927253	1
1	261	699.495877799079	1
1	262	700.582162259116	1
1	266	703.853308695614	1
1	268	710.741952008659	2
1	273	727.225976336811	2
1	274	730.480775759075	1
1	275	731.237101902422	0
1	304	813.718144071485	0
1	305	814.073535847207	0
1	311	827.514843339431	0
1	312	828.883948141734	0
1	314	832.877151770902	0
1	316	834.115971989249	1
1	317	834.819782900459	1
1	324	838.847582414567	0
1	327	839.578052108125	0
1	330	855.395139894492	0
1	340	879.643308591697	0
1	341	883.007174196405	0
1	346	899.479755191889	0
1	347	901.308043137203	0
1	376	976.565614317659	0
1	377	976.800976198524	0
1	386	1003.12254496667	0
1	388	1003.62455407805	1
1	389	1004.836104051638	1
1	390	1010.137372633974	0
1	392	1026.941684101135	0
1	393	1029.817800558209	0
1	395	1030.833821058568	0
1	397	1031.466333288233	1
1	398	1035.025672401204	1
1	402	1039.284372261193	1
1	403	1044.643218998603	1
1	404	1046.110457952669	0
1	420	1085.845270508107	0
1	421	1089.731785627706	0
1	426	1100.918783639256	0
1	430	1107.668427627462	1
1	431	1109.495559126735	1
1	432	1111.22251704199	0
1	451	1161.237628372735	0
1	452	1164.009867477781	0
1	460	1177.458798046421	0
1	461	1179.745702273995	0
1	484	1243.026575003035	0
1	485	1243.191918911777	0
1	488	1252.472146928695	0
1	495	1272.646000573017	0
1	525	1354.658220514177	0
1	527	1355.197924768725	1
1	530	1367.71867987731	1
1	531	1368.839108243929	0
1	534	1382.867144682827	0
1	539	1394.068559903232	0
1	542	1396.497411846483	0
1	543	1398.023282471421	0
1	546	1406.293757776049	0
1	547	1410.902703795888	0
1	554	1442.295449873716	0
1	557	1448.745111480544	0
1	561	1451.72734647732	0
1	562	1454.192738376458	0
1	569	1460.872643203582	0
1	570	1463.536861059004	0
1	577	1481.237026826022	0
1	578	1485.042355344717	0
1	581	1495.724918166403	0
1	582	1499.128653192378	0
1	584	1499.13631228092	0
1	587	1504.611472014621	0
1	591	1511.92385810321	0
1	592	1518.109282446874	0
1	610	1581.533932958997	0
1	611	1587.307159902028	0
1	614	1591.294094495414	0
1	615	1591.787059512136	0
1	638	1665.178439283615	0
1	641	1676.36398412631	0
1	650	1692.44070236867	0
1	652	1693.608171517466	1
1	653	1693.906973964452	1
1	656	1700.7701803878	0
1	658	1701.774818324175	0
1	663	1705.839895836118	0
1	665	1707.872550576227	0
1	668	1713.031966377001	0
1	681	1725.971570480458	0
1	682	1726.365487812563	0
1	684	1730.598897677657	0
1	685	1731.5392351812	0
1	689	1738.198745412658	0
1	692	1738.718884915744	0
1	697	1744.347793922827	0
1	698	1749.764230225524	0
1	703	1752.848412235259	0
1	704	1753.330783304303	0
1	708	1757.78363004108	0
1	709	1758.50894560849	0
1	712	1763.399925835698	0
1	714	1764.921157897889	1
1	715	1765.543767784462	1
1	716	1773.884266555126	0
1	723	1788.864423319195	0
1	729	1799.117948212139	1
1	730	1802.163610882805	1
1	732	1803.885143658398	1
1	733	1809.94067507016	1
1	737	1812.247238961048	1
1	739	1818.46743115362	2
1	742	1819.751200352741	2
1	745	1821.425120176643	1
1	750	1829.051505319629	0
1	755	1847.235945382245	0
1	756	1852.492695145654	0
1	760	1856.600659787436	0
1	761	1860.084752244669	0
1	778	1884.986909974073	0
1	779	1896.237408717963	0
1	781	1902.010481329994	0
1	785	1909.821559344625	1
1	786	1913.119645502485	1
1	789	1916.283321970244	0
1	808	1959.686324650859	0
1	809	1961.487660096095	0
1	811	1961.530443557048	0
1	812	1961.668750258031	0
1	824	1995.712949519735	0
1	825	1996.181338103857	0
1	830	2010.305708730489	0
1	834	2013.868655704263	1
1	835	2014.127875720192	1
1	836	2015.016629984039	0
1	839	2033.511827931655	0
1	843	2034.000853631123	1
1	844	2036.556442633551	1
1	845	2040.311494183836	0
1	847	2042.018879043449	0
1	854	2049.548299660416	0
1	869	2072.729029228804	0
1	870	2074.719984207785	0
1	872	2074.942192120614	0
1	873	2077.314086131812	0
1	875	2081.096007312855	0
1	876	2083.071619652825	0
1	884	2101.959760183306	0
1	885	2102.486001062386	0
1	887	2110.250898302535	0
1	888	2110.291677142049	0
1	890	2116.31426357427	0
1	897	2132.548603489825	0
1	901	2149.994215450844	0
1	902	2154.758445668627	0
1	909	2162.535855115292	0
1	910	2166.904153197524	0
1	920	2195.484333627378	0
1	921	2202.452705621187	0
1	923	2206.573676180957	0
1	926	2210.717876392581	0
1	932	2220.180729233857	0
1	935	2223.057258422176	0
1	941	2234.82324390748	0
1	942	2236.357805780532	0
1	958	2272.150202713364	0
1	961	2273.128589114952	0
1	969	2294.213482175366	0
1	976	2300.985685739398	0
1	980	2303.302072368365	0
1	981	2304.600680739736	0
1	1016	2403.073108456165	0
1	1018	2404.053361099046	1
1	1019	2407.987076176298	1
1	1024	2415.839036256494	0
1	1028	2423.00394114612	0
1	1029	2427.529125225918	0
1	1031	2429.138406406712	0
1	1032	2431.574010129656	0
1	1034	2436.588983293494	0
1	1039	2440.484204541177	0
1	1043	2449.056449732793	0
1	1044	2451.748555480073	0
1	1050	2456.915004370078	0
1	1051	2457.832529986843	0
1	1063	2480.556299264915	0
1	1064	2488.267921119391	0
2	122	354.444077836132	0
2	134	406.898104172744	0
2	141	420.658607393874	8.40140074323
2	154	436.114629776888	0
2	163	453.737651697012	0
2	166	454.215286568968	0
2	173	464.656055005741	0
2	176	476.260410756314	0
2	179	479.189485801982	0
2	182	483.085877055807	0
2	191	498.797104969028	0
2	195	504.528118920206	0
2	202	519.131660745384	0
2	225	592.360836225431	0
2	230	621.482739564962	0
2	233	624.566381278828	1.576583042294
2	251	677.30644856781	0
2	256	692.35140995363	0
2	259	699.394016927253	5.162911281393
2	262	700.582162259116	1.086284460037
2	273	727.225976336811	23.372667641197
2	274	730.480775759075	19.738823750416
2	304	813.718144071485	0
2	311	827.514843339431	0
2	314	832.877151770902	0
2	317	834.819782900459	0.70381091121
2	327	839.578052108125	0
2	340	879.643308591697	0
2	346	899.479755191889	0
2	376	976.565614317659	0
2	386	1003.12254496667	0
2	389	1004.836104051638	1.211549973588
2	392	1026.941684101135	0
2	395	1030.833821058568	0
2	398	1035.025672401204	3.559339112971
2	403	1044.643218998603	5.35884673741
2	420	1085.845270508107	0
2	426	1100.918783639256	0
2	431	1109.495559126735	1.827131499273
2	451	1161.237628372735	0
2	460	1177.458798046421	0
2	484	1243.026575003035	0
2	488	1252.472146928695	0
2	525	1354.658220514177	0
2	530	1367.71867987731	12.520755108585
2	534	1382.867144682827	0
2	542	1396.497411846483	0
2	546	1406.293757776049	0
2	554	1442.295449873716	0
2	561	1451.72734647732	0
2	569	1460.872643203582	0
2	577	1481.237026826022	0
2	581	1495.724918166403	0
2	584	1499.13631228092	0
2	591	1511.92385810321	0
2	610	1581.533932958997	0
2	614	1591.294094495414	0
2	638	1665.178439283615	0
2	650	1692.44070236867	0
2	653	1693.906973964452	0.298802446986
2	658	1701.774818324175	0
2	665	1707.872550576227	0
2	681	1725.971570480458	0
2	684	1730.598897677657	0
2	689	1738.198745412658	0
2	697	1744.347793922827	0
2	703	1752.848412235259	0
2	708	1757.78363004108	0
2	712	1763.399925835698	0
2	715	1765.543767784462	0.622609886573
2	723	1788.864423319195	0
2	730	1802.163610882805	3.045662670666
2	733	1809.94067507016	6.055531411762
2	742	1819.751200352741	7.503961391693
2	745	1821.425120176643	2.957689023023
2	755	1847.235945382245	0
2	760	1856.600659787436	0
2	778	1884.986909974073	0
2	781	1902.010481329994	0
2	786	1913.119645502485	3.29808615786
2	808	1959.686324650859	0
2	811	1961.530443557048	0
2	824	1995.712949519735	0
2	830	2010.305708730489	0
2	835	2014.127875720192	0.259220015929
2	839	2033.511827931655	0
2	844	2036.556442633551	2.555589002428
2	847	2042.018879043449	0
2	869	2072.729029228804	0
2	872	2074.942192120614	0
2	875	2081.096007312855	0
2	884	2101.959760183306	0
2	887	2110.250898302535	0
2	890	2116.31426357427	0
2	901	2149.994215450844	0
2	909	2162.535855115292	0
2	920	2195.484333627378	0
2	923	2206.573676180957	0
2	932	2220.180729233857	0
2	941	2234.82324390748	0
2	958	2272.150202713364	0
2	969	2294.213482175366	0
2	980	2303.302072368365	0
2	1016	2403.073108456165	0
2	1019	2407.987076176298	3.933715077252
2	1028	2423.00394114612	0
2	1031	2429.138406406712	0
2	1034	2436.588983293494	0
2	1043	2449.056449732793	0
2	1050	2456.915004370078	0
2	1063	2480.556299264915	0
3	124	362.779012560417	1
3	128	378.94232276728	1
3	131	404.417573523671	1
3	136	410.945070117655	1
3	140	414.426127238478	2
3	146	424.720149536488	1
3	149	426.538650611217	1
3	152	434.202318365371	1
3	156	439.234578117422	2
3	158	440.99737043903	3
3	160	448.144546700357	4
3	168	456.290829722043	5
3	170	459.9730609396	6
3	184	489.431553173651	7
3	187	495.045180807425	8
3	199	515.019738422812	5
3	206	532.743390214778	4
3	209	545.080840038026	4
3	212	553.345193350048	4
3	215	558.53515728906	4
3	219	576.30711615312	3
3	221	578.772894273072	4
3	236	636.631361304735	1
3	239	642.183143198286	1
3	242	646.226482758435	1
3	245	655.747145422117	1
3	247	656.701336655666	2
3	254	687.32047340833	1
3	264	702.185225875771	2
3	270	712.640532632296	3
3	272	714.2584742481	4
3	278	738.109972685136	4
3	284	751.032734217623	1
3	287	752.077991711549	1
3	290	783.121513972541	1
3	292	786.99886226362	2
3	294	787.757912559629	3
3	299	804.658261068389	1
3	302	810.585177372074	1
3	308	817.045913734827	1
3	319	835.441852948545	1
3	321	835.817226806073	2
3	323	837.390078834879	3
3	329	844.859932121541	3
3	332	859.353191058201	4
3	338	879.526058134851	1
3	344	894.748798914436	1
3	349	901.429111008363	2
3	353	912.670828928672	1
3	356	921.083001103788	1
3	359	922.495206296778	1
3	361	924.426246535187	2
3	364	924.827210553039	2
3	368	941.643193032314	1
3	371	952.314999984398	1
3	374	976.309122619328	1
3	379	979.201723983299	2
3	383	993.234354209163	1
3	400	1037.817714041834	1
3	406	1054.86377306729	2
3	408	1062.486238876957	3
3	411	1067.586314668505	3
3	413	1068.196298550826	4
3	417	1081.781918852097	3
3	424	1093.780243235995	2
3	428	1105.299906099446	3
3	434	1115.166361282277	4
3	436	1117.585575416514	5
3	440	1140.197947428563	4
3	442	1143.245327056085	5
3	444	1145.011799952512	6
3	446	1150.608804235597	7
3	449	1160.034678423633	7
3	456	1171.021977446639	6
3	458	1174.834363420373	7
3	463	1184.835546820342	8
3	467	1199.243714448613	7
3	469	1200.03451206652	8
3	471	1201.733882664147	9
3	480	1226.655835093917	3
3	490	1253.232387214677	1
3	492	1263.300329930188	2
3	494	1270.188107608062	3
3	500	1301.695075724682	1
3	503	1319.606710615869	1
3	506	1323.221393193487	1
3	508	1325.834643875292	2
3	510	1326.375745945546	3
3	512	1327.505305647438	4
3	514	1327.930719510784	5
3	517	1339.130112043044	5
3	520	1345.566230223337	5
3	523	1354.217056812716	5
3	529	1364.753652170588	6
3	536	1385.61624942652	6
3	538	1385.873721217589	7
3	556	1444.399947274309	1
3	559	1451.077245172219	2
3	564	1454.297307664281	3
3	572	1466.369209094997	1
3	575	1479.941857648679	1
3	586	1502.106389304741	1
3	589	1505.457368391863	2
3	594	1519.645900163428	3
3	598	1532.601251588089	2
3	601	1539.939842688134	2
3	603	1546.694297322603	3
3	608	1579.360818638479	1
3	617	1599.611571199337	1
3	620	1615.238231094837	1
3	623	1617.008726374054	1
3	625	1618.803667111087	2
3	629	1654.320999339294	1
3	631	1654.530132778208	2
3	633	1655.031343022317	3
3	640	1668.119471991487	1
3	644	1680.17741353523	1
3	646	1685.45785398811	2
3	655	1696.0117990378	1
3	660	1704.068347513425	2
3	662	1704.544076971741	3
3	667	1711.975374516738	4
3	670	1714.173127754168	5
3	672	1718.559366824822	6
3	676	1722.573206414053	5
3	679	1724.64832324279	5
3	691	1738.617628260856	4
3	701	1752.532885940149	1
3	706	1757.074418285213	2
3	718	1775.650069026053	2
3	721	1783.216712739424	2
3	725	1791.646316524924	3
3	727	1796.018681398212	4
3	735	1811.394057054295	5
3	741	1818.623402905251	6
3	744	1820.470659874128	7
3	747	1823.504701725267	8
3	749	1824.776611398249	9
3	753	1843.864454562918	9
3	758	1853.020426018164	10
3	763	1862.781928549067	11
3	765	1862.910194214946	12
3	768	1866.541002019037	12
3	770	1868.111340479915	13
3	774	1883.049181367715	12
3	776	1884.18179652135	13
3	783	1906.77245399804	14
3	788	1913.148113594738	15
3	791	1926.519640148576	16
3	793	1930.890122130338	17
3	800	1950.238507299322	13
3	814	1965.645265703979	8
3	817	1982.800215019916	8
3	832	2013.535855516251	1
3	841	2033.577040077019	1
3	849	2042.019035780318	2
3	851	2046.833801616255	3
3	853	2048.471088520238	4
3	858	2057.923317528761	3
3	860	2063.518800961812	4
3	866	2068.888887785074	1
3	878	2093.375820763635	1
3	880	2096.148318178671	2
3	892	2126.611538650229	1
3	894	2127.243610642487	2
3	896	2131.285105288694	3
3	899	2148.296038955969	4
3	904	2155.411754794041	5
3	907	2160.25086735818	5
3	913	2171.715046139006	5
3	925	2210.271698978259	1
3	928	2215.909237306194	2
3	934	2220.719843061578	1
3	937	2224.656285819337	2
3	939	2234.602854882523	3
3	946	2256.889795796327	2
3	948	2262.748014258532	3
3	950	2264.790023649927	4
3	952	2265.048559352724	5
3	955	2269.762694224587	5
3	960	2272.418185729447	5
3	963	2276.902444097247	6
3	966	2292.009618507136	6
3	971	2294.720392956889	6
3	973	2296.583318064366	7
3	975	2297.701144502198	8
3	978	2303.055250043694	9
3	983	2305.874375309216	10
3	987	2314.908121836742	9
3	997	2340.920934181234	2
3	1001	2365.097535760258	1
3	1004	2369.544204619743	1
3	1007	2376.604331874898	1
3	1010	2393.123895236844	1
3	1013	2398.897702729902	1
3	1021	2411.913131361185	1
3	1023	2412.241381802257	2
3	1036	2437.405041906015	1
3	1038	2439.998051360079	2
3	1046	2452.886610574733	1
3	1048	2454.890705118865	2
3	1055	2466.209201325361	1
3	1057	2468.987260939911	2
3	1060	2476.660273799729	2
3	1067	2493.238974334309	1
4	124	362.779012560417	0
4	126	372.305956085953	0
4	128	378.94232276728	0
4	129	379.753558428126	0
4	131	404.417573523671	0
4	132	405.895572737005	0
4	136	410.945070117655	0
4	140	414.426127238478	1
4	143	421.176810631331	1
4	144	422.858875312473	0
4	146	424.720149536488	0
4	147	425.075746390529	0
4	149	426.538650611217	0
4	150	432.306059016816	0
4	152	434.202318365371	0
4	156	439.234578117422	1
4	158	440.99737043903	2
4	160	448.144546700357	3
4	168	456.290829722043	4
4	170	459.9730609396	5
4	184	489.431553173651	6
4	187	495.045180807425	7
4	188	498.232472220622	7
4	189	498.23278971624	6
4	193	502.437979069646	5
4	197	514.931948339253	4
4	199	515.019738422812	4
4	200	516.410007581336	4
4	204	526.045858404025	3
4	206	532.743390214778	3
4	207	543.997547324542	3
4	209	545.080840038026	3
4	210	547.185591628465	3
4	212	553.345193350048	3
4	213	557.323462039664	3
4	215	558.53515728906	3
4	216	565.547884991621	3
4	217	572.95220165975	2
4	219	576.30711615312	2
4	221	578.772894273072	3
4	222	588.571439768178	3
4	223	591.091535687537	2
4	227	600.293650379457	1
4	228	602.339661274913	0
4	236	636.631361304735	0
4	237	642.063406574313	0
4	239	642.183143198286	0
4	240	644.665848420463	0
4	242	646.226482758435	0
4	243	652.844144691525	0
4	245	655.747145422117	0
4	247	656.701336655666	1
4	248	658.081232562018	1
4	249	661.219079746864	0
4	254	687.32047340833	0
4	264	702.185225875771	1
4	270	712.640532632296	2
4	272	714.2584742481	3
4	276	731.857397127689	3
4	278	738.109972685136	3
4	279	740.042681231418	3
4	280	741.418045580403	2
4	281	744.299201828746	1
4	282	744.383326066527	0
4	284	751.032734217623	0
4	285	751.723529028896	0
4	287	752.077991711549	0
4	288	759.945300972186	0
4	290	783.121513972541	0
4	292	786.99886226362	1
4	294	787.757912559629	2
4	295	788.259728809927	2
4	296	797.433564636137	1
4	297	800.690172672301	0
4	299	804.658261068389	0
4	300	806.774811411294	0
4	302	810.585177372074	0
4	306	816.30705782622	0
4	308	817.045913734827	0
4	309	824.473592586999	0
4	319	835.441852948545	0
4	321	835.817226806073	1
4	323	837.390078834879	2
4	325	839.28274621141	2
4	329	844.859932121541	2
4	332	859.353191058201	3
4	333	860.844242187069	3
4	334	860.855493711641	2
4	335	866.006115967	1
4	336	869.382063699784	0
4	338	879.526058134851	0
4	342	891.014452329574	0
4	344	894.748798914436	0
4	349	901.429111008363	1
4	350	903.615995564479	1
4	351	909.451812905918	0
4	353	912.670828928672	0
4	354	915.462800391065	0
4	356	921.083001103788	0
4	357	921.118397500429	0
4	359	922.495206296778	0
4	361	924.426246535187	1
4	362	924.496180879518	1
4	364	924.827210553039	1
4	365	929.794636601675	1
4	366	933.042202528224	0
4	368	941.643193032314	0
4	369	942.041166092144	0
4	371	952.314999984398	0
4	372	964.914781157961	0
4	374	976.309122619328	0
4	379	979.201723983299	1
4	380	988.272527988102	1
4	381	990.110033526443	0
4	383	993.234354209163	0
4	384	995.02619450806	0
4	400	1037.817714041834	0
4	406	1054.86377306729	1
4	408	1062.486238876957	2
4	409	1067.082154850237	2
4	411	1067.586314668505	2
4	413	1068.196298550826	3
4	414	1070.696163194199	3
4	415	1071.299894559029	2
4	417	1081.781918852097	2
4	418	1083.033022421825	2
4	422	1090.473544626103	1
4	424	1093.780243235995	1
4	428	1105.299906099446	2
4	434	1115.166361282277	3
4	436	1117.585575416514	4
4	437	1121.554616814269	4
4	438	1125.916529348462	3
4	440	1140.197947428563	3
4	442	1143.245327056085	4
4	444	1145.011799952512	5
4	446	1150.608804235597	6
4	447	1151.173885039932	6
4	449	1160.034678423633	6
4	453	1168.076748529383	6
4	454	1169.426415600499	5
4	456	1171.021977446639	5
4	458	1174.834363420373	6
4	463	1184.835546820342	7
4	464	1189.489032387081	7
4	465	1195.056310711872	6
4	467	1199.243714448613	6
4	469	1200.03451206652	7
4	471	1201.733882664147	8
4	472	1203.192563476879	8
4	473	1207.840919049799	7
4	474	1208.358820724661	6
4	475	1209.248505392235	5
4	476	1214.812057565686	4
4	477	1215.169954347899	3
4	478	1216.925024041637	2
4	480	1226.655835093917	2
4	481	1235.45783761817	2
4	482	1239.644001529854	1
4	486	1243.789589878064	0
4	490	1253.232387214677	0
4	492	1263.300329930188	1
4	494	1270.188107608062	2
4	496	1283.179560088052	2
4	497	1283.399356696351	1
4	498	1283.59255987629	0
4	500	1301.695075724682	0
4	501	1305.032499526023	0
4	503	1319.606710615869	0
4	504	1321.835192412482	0
4	506	1323.221393193487	0
4	508	1325.834643875292	1
4	510	1326.375745945546	2
4	512	1327.505305647438	3
4	514	1327.930719510784	4
4	515	1336.785715574344	4
4	517	1339.130112043044	4
4	518	1342.086506316597	4
4	520	1345.566230223337	4
4	521	1350.307576397436	4
4	523	1354.217056812716	4
4	529	1364.753652170588	5
4	532	1376.699854388337	5
4	536	1385.61624942652	5
4	538	1385.873721217589	6
4	540	1395.84761517111	6
4	544	1400.475552708598	5
4	548	1421.024878620254	4
4	549	1423.578308328141	3
4	550	1432.07027211259	2
4	551	1432.081619434941	1
4	552	1432.962897637444	0
4	556	1444.399947274309	0
4	559	1451.077245172219	1
4	564	1454.297307664281	2
4	565	1454.442402873303	2
4	566	1455.490265765221	1
4	567	1458.720330986916	0
4	572	1466.369209094997	0
4	573	1469.201905371535	0
4	575	1479.941857648679	0
4	579	1487.244890915385	0
4	586	1502.106389304741	0
4	589	1505.457368391863	1
4	594	1519.645900163428	2
4	595	1520.593541947922	2
4	596	1525.713381889575	1
4	598	1532.601251588089	1
4	599	1535.409405510981	1
4	601	1539.939842688134	1
4	603	1546.694297322603	2
4	604	1554.049891729299	2
4	605	1560.047629581231	1
4	606	1560.236746165763	0
4	608	1579.360818638479	0
4	612	1589.686251206037	0
4	617	1599.611571199337	0
4	618	1600.569920679216	0
4	620	1615.238231094837	0
4	621	1616.991263369049	0
4	623	1617.008726374054	0
4	625	1618.803667111087	1
4	626	1619.432127219974	1
4	627	1623.574777703256	0
4	629	1654.320999339294	0
4	631	1654.530132778208	1
4	633	1655.031343022317	2
4	634	1657.83396076265	2
4	635	1660.500402456807	1
4	636	1662.815675782623	0
4	640	1668.119471991487	0
4	642	1676.574365748073	0
4	644	1680.17741353523	0
4	646	1685.45785398811	1
4	647	1687.786284807494	1
4	648	1692.088134518385	0
4	655	1696.0117990378	0
4	660	1704.068347513425	1
4	662	1704.544076971741	2
4	667	1711.975374516738	3
4	670	1714.173127754168	4
4	672	1718.559366824822	5
4	673	1719.285380679613	5
4	674	1719.309638128091	4
4	676	1722.573206414053	4
4	677	1723.04372348906	4
4	679	1724.64832324279	4
4	686	1734.560821273481	4
4	687	1737.323284785613	3
4	691	1738.617628260856	3
4	693	1741.393696904968	3
4	694	1742.269181699687	2
4	695	1743.643072946234	1
4	699	1750.586664431074	0
4	701	1752.532885940149	0
4	706	1757.074418285213	1
4	710	1760.077155976392	1
4	718	1775.650069026053	1
4	719	1782.144166411853	1
4	721	1783.216712739424	1
4	725	1791.646316524924	2
4	727	1796.018681398212	3
4	735	1811.394057054295	4
4	741	1818.623402905251	5
4	744	1820.470659874128	6
4	747	1823.504701725267	7
4	749	1824.776611398249	8
4	751	1829.0675328169	8
4	753	1843.864454562918	8
4	758	1853.020426018164	9
4	763	1862.781928549067	10
4	765	1862.910194214946	11
4	766	1863.291170874478	11
4	768	1866.541002019037	11
4	770	1868.111340479915	12
4	771	1875.88272139507	12
4	772	1879.768348330029	11
4	774	1883.049181367715	11
4	776	1884.18179652135	12
4	783	1906.77245399804	13
4	788	1913.148113594738	14
4	791	1926.519640148576	15
4	793	1930.890122130338	16
4	794	1932.587104373515	16
4	795	1934.934336497677	15
4	796	1935.546969280815	14
4	797	1937.950555135302	13
4	798	1939.40394713168	12
4	800	1950.238507299322	12
4	801	1950.522081443028	12
4	802	1951.081351626772	11
4	803	1954.51950320167	10
4	804	1954.532004065714	9
4	805	1956.821187260922	8
4	806	1959.647939771517	7
4	814	1965.645265703979	7
4	815	1980.176173482643	7
4	817	1982.800215019916	7
4	818	1983.318808657827	7
4	819	1985.846133301824	6
4	820	1990.810426439062	5
4	821	1991.57086122353	4
4	822	1994.309360797452	3
4	826	1997.264775108337	2
4	827	2007.425950634194	1
4	828	2008.484598818499	0
4	832	2013.535855516251	0
4	837	2019.632639169842	0
4	841	2033.577040077019	0
4	849	2042.019035780318	1
4	851	2046.833801616255	2
4	853	2048.471088520238	3
4	855	2053.278307021828	3
4	856	2057.049477678873	2
4	858	2057.923317528761	2
4	860	2063.518800961812	3
4	861	2066.356955703688	3
4	862	2066.454853022728	2
4	863	2066.624165925485	1
4	864	2067.755624567261	0
4	866	2068.888887785074	0
4	867	2071.237639005112	0
4	878	2093.375820763635	0
4	880	2096.148318178671	1
4	881	2097.146421532014	1
4	882	2098.064955963155	0
4	892	2126.611538650229	0
4	894	2127.243610642487	1
4	896	2131.285105288694	2
4	899	2148.296038955969	3
4	904	2155.411754794041	4
4	905	2160.249708208873	4
4	907	2160.25086735818	4
4	911	2168.537761414549	4
4	913	2171.715046139006	4
4	914	2176.000013661102	4
4	915	2185.224969056042	3
4	916	2185.651701262689	2
4	917	2187.8893898905	1
4	918	2191.021700277935	0
4	925	2210.271698978259	0
4	928	2215.909237306194	1
4	929	2215.978923243091	1
4	930	2216.93961760825	0
4	934	2220.719843061578	0
4	937	2224.656285819337	1
4	939	2234.602854882523	2
4	943	2239.689629102892	2
4	944	2246.301803441793	1
4	946	2256.889795796327	1
4	948	2262.748014258532	2
4	950	2264.790023649927	3
4	952	2265.048559352724	4
4	953	2269.659486142679	4
4	955	2269.762694224587	4
4	956	2270.123031789967	4
4	960	2272.418185729447	4
4	963	2276.902444097247	5
4	964	2288.729318425252	5
4	966	2292.009618507136	5
4	967	2292.761719986051	5
4	971	2294.720392956889	5
4	973	2296.583318064366	6
4	975	2297.701144502198	7
4	978	2303.055250043694	8
4	983	2305.874375309216	9
4	984	2308.923654819044	9
4	985	2311.662699707374	8
4	987	2314.908121836742	8
4	988	2318.740876828697	8
4	989	2319.937801529189	7
4	990	2319.961319662571	6
4	991	2323.438730157921	5
4	992	2324.908156320387	4
4	993	2328.149478731463	3
4	994	2330.839838314087	2
4	995	2336.761504776292	1
4	997	2340.920934181234	1
4	998	2349.396439934797	1
4	999	2349.863974450381	0
4	1001	2365.097535760258	0
4	1002	2368.375646531127	0
4	1004	2369.544204619743	0
4	1005	2374.587923958443	0
4	1007	2376.604331874898	0
4	1008	2377.764267290654	0
4	1010	2393.123895236844	0
4	1011	2396.427063802537	0
4	1013	2398.897702729902	0
4	1014	2401.262067934452	0
4	1021	2411.913131361185	0
4	1023	2412.241381802257	1
4	1025	2416.317637574842	1
4	1026	2417.07395049649	0
4	1036	2437.405041906015	0
4	1038	2439.998051360079	1
4	1040	2444.550891952018	1
4	1041	2448.860756708339	0
4	1046	2452.886610574733	0
4	1048	2454.890705118865	1
4	1052	2457.987979178106	1
4	1053	2464.998082762355	0
4	1055	2466.209201325361	0
4	1057	2468.987260939911	1
4	1058	2469.538623146754	1
4	1060	2476.660273799729	1
4	1061	2479.829334905049	1
4	1065	2489.939927403423	0
4	1067	2493.238974334309	0
5	125	367.589287047365	13
5	141	420.658607393874	14
5	142	421.04970029511	15
5	161	451.248593528469	16
5	164	454.168418867891	17
5	171	464.174918570116	18
5	174	468.969389225553	19
5	177	476.914789398102	20
5	180	479.704567634542	21
5	185	492.992470765119	22
5	192	501.447573540202	23
5	196	509.168393536932	24
5	203	525.205364723672	25
5	226	593.904217791738	26
5	233	624.566381278828	27
5	234	625.371858012532	28
5	252	677.553682720984	29
5	259	699.394016927253	30
5	262	700.582162259116	31
5	273	727.225976336811	32
5	274	730.480775759075	33
5	275	731.237101902422	34
5	305	814.073535847207	35
5	312	828.883948141734	36
5	317	834.819782900459	37
5	324	838.847582414567	38
5	330	855.395139894492	39
5	341	883.007174196405	40
5	347	901.308043137203	41
5	377	976.800976198524	42
5	389	1004.836104051638	43
5	390	1010.137372633974	44
5	393	1029.817800558209	45
5	398	1035.025672401204	46
5	403	1044.643218998603	47
5	404	1046.110457952669	48
5	421	1089.731785627706	49
5	431	1109.495559126735	50
5	432	1111.22251704199	51
5	452	1164.009867477781	52
5	461	1179.745702273995	53
5	485	1243.191918911777	54
5	495	1272.646000573017	55
5	530	1367.71867987731	56
5	531	1368.839108243929	57
5	539	1394.068559903232	58
5	543	1398.023282471421	59
5	547	1410.902703795888	60
5	557	1448.745111480544	61
5	562	1454.192738376458	62
5	570	1463.536861059004	63
5	578	1485.042355344717	64
5	582	1499.128653192378	65
5	587	1504.611472014621	66
5	592	1518.109282446874	67
5	611	1587.307159902028	68
5	615	1591.787059512136	69
5	641	1676.36398412631	70
5	653	1693.906973964452	71
5	656	1700.7701803878	72
5	663	1705.839895836118	73
5	668	1713.031966377001	74
5	682	1726.365487812563	75
5	685	1731.5392351812	76
5	692	1738.718884915744	77
5	698	1749.764230225524	78
5	704	1753.330783304303	79
5	709	1758.50894560849	80
5	715	1765.543767784462	81
5	716	1773.884266555126	82
5	730	1802.163610882805	83
5	733	1809.94067507016	84
5	742	1819.751200352741	85
5	745	1821.425120176643	86
5	750	1829.051505319629	87
5	756	1852.492695145654	88
5	761	1860.084752244669	89
5	779	1896.237408717963	90
5	786	1913.119645502485	91
5	789	1916.283321970244	92
5	809	1961.487660096095	93
5	812	1961.668750258031	94
5	825	1996.181338103857	95
5	835	2014.127875720192	96
5	836	2015.016629984039	97
5	844	2036.556442633551	98
5	845	2040.311494183836	99
5	854	2049.548299660416	100
5	870	2074.719984207785	101
5	873	2077.314086131812	102
5	876	2083.071619652825	103
5	885	2102.486001062386	104
5	888	2110.291677142049	105
5	897	2132.548603489825	106
5	902	2154.758445668627	107
5	910	2166.904153197524	108
5	921	2202.452705621187	109
5	926	2210.717876392581	110
5	935	2223.057258422176	111
5	942	2236.357805780532	112
5	961	2273.128589114952	113
5	976	2300.985685739398	114
5	981	2304.600680739736	115
5	1019	2407.987076176298	116
5	1024	2415.839036256494	117
5	1029	2427.529125225918	118
5	1032	2431.574010129656	119
5	1039	2440.484204541177	120
5	1044	2451.748555480073	121
5	1051	2457.832529986843	122
5	1064	2488.267921119391	123
6	125	367.589287047365	13.145209211233
6	141	420.658607393874	13.76050322113
6	142	421.04970029511	8.792493644466
6	161	451.248593528469	15.133963751581
6	164	454.168418867891	0.430767170879
6	171	464.174918570116	9.959632001148
6	174	468.969389225553	4.313334219812
6	177	476.914789398102	0.654378641788
6	180	479.704567634542	0.51508183256
6	185	492.992470765119	9.906593709312
6	192	501.447573540202	2.650468571174
6	196	509.168393536932	4.640274616726
6	203	525.205364723672	6.073703978288
6	226	593.904217791738	1.543381566307
6	233	624.566381278828	3.083641713866
6	234	625.371858012532	2.382059775998
6	252	677.553682720984	0.247234153174
6	259	699.394016927253	7.042606973623
6	262	700.582162259116	6.351056613256
6	273	727.225976336811	27.730098537732
6	274	730.480775759075	26.627467063461
6	275	731.237101902422	20.495149893763
6	305	814.073535847207	0.355391775722
6	312	828.883948141734	1.369104802303
6	317	834.819782900459	1.942631129557
6	324	838.847582414567	4.731610425318
6	330	855.395139894492	15.817087786367
6	341	883.007174196405	3.363865604708
6	347	901.308043137203	1.828287945314
6	377	976.800976198524	0.235361880865
6	389	1004.836104051638	1.713559084968
6	390	1010.137372633974	6.512818555924
6	393	1029.817800558209	2.876116457074
6	398	1035.025672401204	4.191851342636
6	403	1044.643218998603	13.17688571037
6	404	1046.110457952669	6.826085691476
6	421	1089.731785627706	3.886515119599
6	431	1109.495559126735	8.576775487479
6	432	1111.22251704199	3.554089414528
6	452	1164.009867477781	2.772239105046
6	461	1179.745702273995	2.286904227574
6	485	1243.191918911777	0.165343908742
6	495	1272.646000573017	20.173853644322
6	530	1367.71867987731	13.060459363133
6	531	1368.839108243929	13.641183475204
6	539	1394.068559903232	11.201415220405
6	543	1398.023282471421	1.525870624938
6	547	1410.902703795888	4.608946019839
6	557	1448.745111480544	6.449661606828
6	562	1454.192738376458	2.465391899138
6	570	1463.536861059004	2.664217855422
6	578	1485.042355344717	3.805328518695
6	582	1499.128653192378	3.403735025975
6	587	1504.611472014621	5.475159733701
6	592	1518.109282446874	6.185424343664
6	611	1587.307159902028	5.773226943031
6	615	1591.787059512136	0.492965016722
6	641	1676.36398412631	11.185544842695
6	653	1693.906973964452	1.466271595782
6	656	1700.7701803878	7.162008870334
6	663	1705.839895836118	4.065077511943
6	668	1713.031966377001	5.159415800774
6	682	1726.365487812563	0.393917332105
6	685	1731.5392351812	0.940337503543
6	692	1738.718884915744	0.520139503086
6	698	1749.764230225524	5.416436302697
6	704	1753.330783304303	0.482371069044
6	709	1758.50894560849	0.72531556741
6	715	1765.543767784462	2.143841948764
6	716	1773.884266555126	8.963108657237
6	730	1802.163610882805	13.29918756361
6	733	1809.94067507016	10.822726858021
6	742	1819.751200352741	15.866056694343
6	745	1821.425120176643	9.177881215595
6	750	1829.051505319629	10.584074166009
6	756	1852.492695145654	5.256749763409
6	761	1860.084752244669	3.484092457233
6	779	1896.237408717963	11.25049874389
6	786	1913.119645502485	11.109164172491
6	789	1916.283321970244	6.461762625619
6	809	1961.487660096095	1.801335445236
6	812	1961.668750258031	0.138306700983
6	825	1996.181338103857	0.468388584122
6	835	2014.127875720192	3.822166989703
6	836	2015.016629984039	1.147974279776
6	844	2036.556442633551	3.044614701896
6	845	2040.311494183836	6.310640552713
6	854	2049.548299660416	7.529420616967
6	870	2074.719984207785	1.990954978981
6	873	2077.314086131812	2.371894011198
6	876	2083.071619652825	1.97561233997
6	885	2102.486001062386	0.52624087908
6	888	2110.291677142049	0.040778839514
6	897	2132.548603489825	16.234339915555
6	902	2154.758445668627	4.764230217783
6	910	2166.904153197524	4.368298082232
6	921	2202.452705621187	6.968371993809
6	926	2210.717876392581	4.144200211624
6	935	2223.057258422176	2.876529188319
6	942	2236.357805780532	1.534561873052
6	961	2273.128589114952	0.978386401588
6	976	2300.985685739398	6.772203564032
6	981	2304.600680739736	1.298608371371
6	1019	2407.987076176298	4.913967720133
6	1024	2415.839036256494	11.785675157448
6	1029	2427.529125225918	4.525184079798
6	1032	2431.574010129656	2.435603722944
6	1039	2440.484204541177	3.895221247683
6	1044	2451.748555480073	2.69210574728
6	1051	2457.832529986843	0.917525616765
6	1064	2488.267921119391	7.711621854476
7	125	367.589287047365	4.810274486948
7	128	378.94232276728	0
7	131	404.417573523671	0
7	142	421.04970029511	10.104630177455
7	143	421.176810631331	6.750683392853
7	146	424.720149536488	0
7	149	426.538650611217	0
7	152	434.202318365371	0
7	161	451.248593528469	15.133963751581
7	164	454.168418867891	14.933840750469
7	171	464.174918570116	23.177548131086
7	174	468.969389225553	20.824842525196
7	177	476.914789398102	23.17713770109
7	180	479.704567634542	25.489281065574
7	185	492.992470765119	36.701641043076
7	188	498.232472220622	38.259411281022
7	189	498.23278971624	33.576734710499
7	192	501.447573540202	25.187162783888
7	193	502.437979069646	23.248493267664
7	196	509.168393536932	26.082516481125
7	197	514.931948339253	25.500395165602
7	200	516.410007581336	21.364826773911
7	203	525.205364723672	26.408259754644
7	204	526.045858404025	21.517739483819
7	207	543.997547324542	28.97780890173
7	210	547.185591628465	28.053930883081
7	213	557.323462039664	24.580071824886
7	216	565.547884991621	20.467044953595
7	217	572.95220165975	19.607008309702
7	222	588.571439768178	30.036282479118
7	223	591.091535687537	14.784419534417
7	226	593.904217791738	15.131323518666
7	227	600.293650379457	7.932814154026
7	236	636.631361304735	0
7	239	642.183143198286	0
7	242	646.226482758435	0
7	245	655.747145422117	0
7	248	658.081232562018	1.379895906352
7	254	687.32047340833	0
7	275	731.237101902422	38.885691948792
7	276	731.857397127689	29.672171251918
7	279	740.042681231418	27.402148599122
7	280	741.418045580403	27.159571332303
7	281	744.299201828746	6.18922914361
7	284	751.032734217623	0
7	287	752.077991711549	0
7	290	783.121513972541	0
7	295	788.259728809927	1.260866546307
7	296	797.433564636137	9.675652076508
7	299	804.658261068389	0
7	302	810.585177372074	0
7	305	814.073535847207	0.355391775722
7	308	817.045913734827	0
7	324	838.847582414567	3.405729466022
7	325	839.28274621141	3.465519405337
7	330	855.395139894492	18.005061059613
7	333	860.844242187069	21.266190078944
7	334	860.855493711641	15.9955615901
7	335	866.006115967	6.652924908799
7	338	879.526058134851	0
7	341	883.007174196405	3.363865604708
7	344	894.748798914436	0
7	347	901.308043137203	1.828287945314
7	350	903.615995564479	2.186884556116
7	353	912.670828928672	0
7	356	921.083001103788	0
7	359	922.495206296778	0
7	362	924.496180879518	0.069934344331
7	365	929.794636601675	4.967426048636
7	368	941.643193032314	0
7	371	952.314999984398	0
7	374	976.309122619328	0
7	377	976.800976198524	0.235361880865
7	380	988.272527988102	9.070804004803
7	383	993.234354209163	0
7	404	1046.110457952669	8.292743910835
7	409	1067.082154850237	12.218381782947
7	414	1070.696163194199	8.209924317242
7	415	1071.299894559029	3.713579890524
7	418	1083.033022421825	14.836723870999
7	421	1089.731785627706	7.949866775609
7	422	1090.473544626103	4.628274117996
7	432	1111.22251704199	17.442273805995
7	437	1121.554616814269	20.635833175013
7	438	1125.916529348462	20.616623249016
7	447	1151.173885039932	36.007523757655
7	452	1164.009867477781	46.424292061267
7	453	1168.076748529383	27.87880110082
7	454	1169.426415600499	26.181088544414
7	461	1179.745702273995	34.733902321483
7	464	1189.489032387081	38.880228151484
7	465	1195.056310711872	35.021632288239
7	472	1203.192563476879	41.954935104144
7	473	1207.840919049799	36.81894160316
7	474	1208.358820724661	33.524457304288
7	475	1209.248505392235	31.789707345814
7	476	1214.812057565686	29.976510745344
7	477	1215.169954347899	15.926239899286
7	478	1216.925024041637	16.890511975117
7	481	1235.45783761817	33.723954954023
7	482	1239.644001529854	12.988166435937
7	485	1243.191918911777	0.165343908742
7	495	1272.646000573017	19.41361335834
7	496	1283.179560088052	19.879230157864
7	497	1283.399356696351	13.211249088289
7	500	1301.695075724682	0
7	503	1319.606710615869	0
7	506	1323.221393193487	0
7	515	1336.785715574344	10.951071699052
7	518	1342.086506316597	15.710760371051
7	521	1350.307576397436	22.802270749998
7	531	1368.839108243929	40.908388733145
7	532	1376.699854388337	37.569742345293
7	539	1394.068559903232	48.502329679895
7	540	1395.84761517111	41.630558358394
7	543	1398.023282471421	43.365061957244
7	544	1400.475552708598	35.72190053801
7	547	1410.902703795888	28.035559113061
7	548	1421.024878620254	35.408629193734
7	549	1423.578308328141	37.704587110552
7	550	1432.07027211259	35.572860266107
7	551	1432.081619434941	25.787861658892
7	557	1448.745111480544	4.345164206235
7	562	1454.192738376458	3.115493204239
7	565	1454.442402873303	2.715056395983
7	566	1455.490265765221	1.19295810094
7	572	1466.369209094997	0
7	575	1479.941857648679	0
7	578	1485.042355344717	3.805328518695
7	587	1504.611472014621	2.50508270988
7	592	1518.109282446874	12.651914055011
7	595	1520.593541947922	8.669683844712
7	596	1525.713381889575	6.067481726147
7	599	1535.409405510981	2.808153922892
7	604	1554.049891729299	14.110049041165
7	605	1560.047629581231	13.353332258628
7	608	1579.360818638479	0
7	611	1587.307159902028	5.773226943031
7	617	1599.611571199337	0
7	620	1615.238231094837	0
7	623	1617.008726374054	0
7	626	1619.432127219974	0.628460108887
7	629	1654.320999339294	0
7	634	1657.83396076265	3.303827984442
7	635	1660.500402456807	5.46905943449
7	641	1676.36398412631	8.244512134823
7	644	1680.17741353523	0
7	647	1687.786284807494	2.328430819384
7	656	1700.7701803878	4.75838135
7	663	1705.839895836118	4.065077511943
7	668	1713.031966377001	8.963618863576
7	673	1719.285380679613	14.741303707872
7	674	1719.309638128091	11.437087551864
7	677	1723.04372348906	11.068348972322
7	682	1726.365487812563	12.192360058395
7	685	1731.5392351812	12.979868356378
7	686	1734.560821273481	11.987614859428
7	687	1737.323284785613	12.674961542823
7	692	1738.718884915744	12.747314435286
7	693	1741.393696904968	10.794799227311
7	694	1742.269181699687	4.070436287029
7	695	1743.643072946234	5.025444685378
7	698	1749.764230225524	5.416436302697
7	701	1752.532885940149	0
7	704	1753.330783304303	0.482371069044
7	709	1758.50894560849	1.434527323277
7	710	1760.077155976392	2.293525935312
7	716	1773.884266555126	10.484340719428
7	719	1782.144166411853	6.4940973858
7	750	1829.051505319629	45.834792580205
7	751	1829.0675328169	40.203109497705
7	756	1852.492695145654	60.84637862073
7	761	1860.084752244669	64.066070846457
7	766	1863.291170874478	51.897113820183
7	771	1875.88272139507	57.259318489819
7	772	1879.768348330029	59.297688455901
7	779	1896.237408717963	72.732706992696
7	789	1916.283321970244	91.506710571995
7	794	1932.587104373515	88.722649810597
7	795	1934.934336497677	87.698391115432
7	796	1935.546969280815	82.526543262651
7	797	1937.950555135302	81.349895347866
7	798	1939.40394713168	76.622018582613
7	801	1950.522081443028	87.611887228082
7	802	1951.081351626772	84.540349607735
7	803	1954.51950320167	86.408162721755
7	804	1954.532004065714	71.482822697999
7	805	1956.821187260922	72.639390739572
7	806	1959.647939771517	74.661029797444
7	809	1961.487660096095	59.477178766101
7	812	1961.668750258031	54.896296259991
7	815	1980.176173482643	67.028059887905
7	818	1983.318808657827	56.799168509251
7	819	1985.846133301824	54.956011171486
7	820	1990.810426439062	40.57191913974
7	821	1991.57086122353	31.884536572671
7	822	1994.309360797452	32.778917240404
7	825	1996.181338103857	30.536072399878
7	826	1997.264775108337	14.464560088421
7	827	2007.425950634194	11.713001114459
7	836	2015.016629984039	1.480774467788
7	845	2040.311494183836	6.734454106817
7	854	2049.548299660416	7.529420616967
7	855	2053.278307021828	11.25927124151
7	856	2057.049477678873	10.215676062618
7	861	2066.356955703688	17.88586718345
7	862	2066.454853022728	8.531535493967
7	863	2066.624165925485	3.105364963673
7	866	2068.888887785074	0
7	878	2093.375820763635	0
7	881	2097.146421532014	0.998103353343
7	897	2132.548603489825	5.937064839596
7	902	2154.758445668627	27.51483502614
7	905	2160.249708208873	28.964602920179
7	910	2166.904153197524	18.608114241555
7	911	2168.537761414549	18.543545963705
7	914	2176.000013661102	20.588258867061
7	915	2185.224969056042	24.974101697862
7	916	2185.651701262689	23.115846147397
7	917	2187.8893898905	16.174343751494
7	926	2210.717876392581	0.446177414322
7	929	2215.978923243091	0.069685936897
7	935	2223.057258422176	2.337415360598
7	942	2236.357805780532	11.701519961195
7	943	2239.689629102892	5.086774220369
7	944	2246.301803441793	11.478559534313
7	953	2269.659486142679	12.769690346352
7	956	2270.123031789967	7.375017531435
7	961	2273.128589114952	8.338565465025
7	964	2288.729318425252	23.680759072528
7	967	2292.761719986051	22.999025761464
7	976	2300.985685739398	28.835483026034
7	981	2304.600680739736	32.182495010289
7	984	2308.923654819044	32.021210721797
7	985	2311.662699707374	19.653081200238
7	988	2318.740876828697	24.527394653331
7	989	2319.937801529189	25.2174085723
7	990	2319.961319662571	23.378001598205
7	991	2323.438730157921	25.737585655723
7	992	2324.908156320387	21.852906276693
7	993	2328.149478731463	24.847406363098
7	994	2330.839838314087	24.965463004871
7	995	2336.761504776292	21.85338293955
7	998	2349.396439934797	8.475505753563
7	1001	2365.097535760258	0
7	1004	2369.544204619743	0
7	1007	2376.604331874898	0
7	1010	2393.123895236844	0
7	1013	2398.897702729902	0
7	1024	2415.839036256494	3.925904895309
7	1025	2416.317637574842	4.076255772585
7	1039	2440.484204541177	3.079162635162
7	1040	2444.550891952018	4.552840591939
7	1046	2452.886610574733	0
7	1051	2457.832529986843	2.941824867978
7	1052	2457.987979178106	1.072974808028
7	1055	2466.209201325361	0
7	1058	2469.538623146754	0.551362206843
7	1061	2479.829334905049	3.16906110532
7	1064	2488.267921119391	7.711621854476
7	1067	2493.238974334309	0
8	126	372.305956085953	29
8	129	379.753558428126	30
8	132	405.895572737005	31
8	143	421.176810631331	32
8	144	422.858875312473	33
8	147	425.075746390529	34
8	150	432.306059016816	35
8	188	498.232472220622	36
8	189	498.23278971624	37
8	193	502.437979069646	38
8	197	514.931948339253	39
8	200	516.410007581336	40
8	204	526.045858404025	41
8	207	543.997547324542	42
8	210	547.185591628465	43
8	213	557.323462039664	44
8	216	565.547884991621	45
8	217	572.95220165975	46
8	222	588.571439768178	47
8	223	591.091535687537	48
8	227	600.293650379457	49
8	228	602.339661274913	50
8	237	642.063406574313	51
8	240	644.665848420463	52
8	243	652.844144691525	53
8	248	658.081232562018	54
8	249	661.219079746864	55
8	276	731.857397127689	56
8	279	740.042681231418	57
8	280	741.418045580403	58
8	281	744.299201828746	59
8	282	744.383326066527	60
8	285	751.723529028896	61
8	288	759.945300972186	62
8	295	788.259728809927	63
8	296	797.433564636137	64
8	297	800.690172672301	65
8	300	806.774811411294	66
8	306	816.30705782622	67
8	309	824.473592586999	68
8	325	839.28274621141	69
8	333	860.844242187069	70
8	334	860.855493711641	71
8	335	866.006115967	72
8	336	869.382063699784	73
8	342	891.014452329574	74
8	350	903.615995564479	75
8	351	909.451812905918	76
8	354	915.462800391065	77
8	357	921.118397500429	78
8	362	924.496180879518	79
8	365	929.794636601675	80
8	366	933.042202528224	81
8	369	942.041166092144	82
8	372	964.914781157961	83
8	380	988.272527988102	84
8	381	990.110033526443	85
8	384	995.02619450806	86
8	409	1067.082154850237	87
8	414	1070.696163194199	88
8	415	1071.299894559029	89
8	418	1083.033022421825	90
8	422	1090.473544626103	91
8	437	1121.554616814269	92
8	438	1125.916529348462	93
8	447	1151.173885039932	94
8	453	1168.076748529383	95
8	454	1169.426415600499	96
8	464	1189.489032387081	97
8	465	1195.056310711872	98
8	472	1203.192563476879	99
8	473	1207.840919049799	100
8	474	1208.358820724661	101
8	475	1209.248505392235	102
8	476	1214.812057565686	103
8	477	1215.169954347899	104
8	478	1216.925024041637	105
8	481	1235.45783761817	106
8	482	1239.644001529854	107
8	486	1243.789589878064	108
8	496	1283.179560088052	109
8	497	1283.399356696351	110
8	498	1283.59255987629	111
8	501	1305.032499526023	112
8	504	1321.835192412482	113
8	515	1336.785715574344	114
8	518	1342.086506316597	115
8	521	1350.307576397436	116
8	532	1376.699854388337	117
8	540	1395.84761517111	118
8	544	1400.475552708598	119
8	548	1421.024878620254	120
8	549	1423.578308328141	121
8	550	1432.07027211259	122
8	551	1432.081619434941	123
8	552	1432.962897637444	124
8	565	1454.442402873303	125
8	566	1455.490265765221	126
8	567	1458.720330986916	127
8	573	1469.201905371535	128
8	579	1487.244890915385	129
8	595	1520.593541947922	130
8	596	1525.713381889575	131
8	599	1535.409405510981	132
8	604	1554.049891729299	133
8	605	1560.047629581231	134
8	606	1560.236746165763	135
8	612	1589.686251206037	136
8	618	1600.569920679216	137
8	621	1616.991263369049	138
8	626	1619.432127219974	139
8	627	1623.574777703256	140
8	634	1657.83396076265	141
8	635	1660.500402456807	142
8	636	1662.815675782623	143
8	642	1676.574365748073	144
8	647	1687.786284807494	145
8	648	1692.088134518385	146
8	673	1719.285380679613	147
8	674	1719.309638128091	148
8	677	1723.04372348906	149
8	686	1734.560821273481	150
8	687	1737.323284785613	151
8	693	1741.393696904968	152
8	694	1742.269181699687	153
8	695	1743.643072946234	154
8	699	1750.586664431074	155
8	710	1760.077155976392	156
8	719	1782.144166411853	157
8	751	1829.0675328169	158
8	766	1863.291170874478	159
8	771	1875.88272139507	160
8	772	1879.768348330029	161
8	794	1932.587104373515	162
8	795	1934.934336497677	163
8	796	1935.546969280815	164
8	797	1937.950555135302	165
8	798	1939.40394713168	166
8	801	1950.522081443028	167
8	802	1951.081351626772	168
8	803	1954.51950320167	169
8	804	1954.532004065714	170
8	805	1956.821187260922	171
8	806	1959.647939771517	172
8	815	1980.176173482643	173
8	818	1983.318808657827	174
8	819	1985.846133301824	175
8	820	1990.810426439062	176
8	821	1991.57086122353	177
8	822	1994.309360797452	178
8	826	1997.264775108337	179
8	827	2007.425950634194	180
8	828	2008.484598818499	181
8	837	2019.632639169842	182
8	855	2053.278307021828	183
8	856	2057.049477678873	184
8	861	2066.356955703688	185
8	862	2066.454853022728	186
8	863	2066.624165925485	187
8	864	2067.755624567261	188
8	867	2071.237639005112	189
8	881	2097.146421532014	190
8	882	2098.064955963155	191
8	905	2160.249708208873	192
8	911	2168.537761414549	193
8	914	2176.000013661102	194
8	915	2185.224969056042	195
8	916	2185.651701262689	196
8	917	2187.8893898905	197
8	918	2191.021700277935	198
8	929	2215.978923243091	199
8	930	2216.93961760825	200
8	943	2239.689629102892	201
8	944	2246.301803441793	202
8	953	2269.659486142679	203
8	956	2270.123031789967	204
8	964	2288.729318425252	205
8	967	2292.761719986051	206
8	984	2308.923654819044	207
8	985	2311.662699707374	208
8	988	2318.740876828697	209
8	989	2319.937801529189	210
8	990	2319.961319662571	211
8	991	2323.438730157921	212
8	992	2324.908156320387	213
8	993	2328.149478731463	214
8	994	2330.839838314087	215
8	995	2336.761504776292	216
8	998	2349.396439934797	217
8	999	2349.863974450381	218
8	1002	2368.375646531127	219
8	1005	2374.587923958443	220
8	1008	2377.764267290654	221
8	1011	2396.427063802537	222
8	1014	2401.262067934452	223
8	1025	2416.317637574842	224
8	1026	2417.07395049649	225
8	1040	2444.550891952018	226
8	1041	2448.860756708339	227
8	1052	2457.987979178106	228
8	1053	2464.998082762355	229
8	1058	2469.538623146754	230
8	1061	2479.829334905049	231
8	1065	2489.939927403423	232
9	126	372.305956085953	9.526943525536
9	129	379.753558428126	0.811235660846
9	132	405.895572737005	1.477999213334
9	143	421.176810631331	10.231740513676
9	144	422.858875312473	8.432748073995
9	147	425.075746390529	0.355596854041
9	150	432.306059016816	5.767408405599
9	188	498.232472220622	41.941642498579
9	189	498.23278971624	38.25972877664
9	193	502.437979069646	26.177568313332
9	197	514.931948339253	31.846071283446
9	200	516.410007581336	26.978454407685
9	204	526.045858404025	27.248753434997
9	207	543.997547324542	39.469428404336
9	210	547.185591628465	32.165853205653
9	213	557.323462039664	38.19180129428
9	216	565.547884991621	32.804494776843
9	217	572.95220165975	27.871361621724
9	222	588.571439768178	35.22624641813
9	223	591.091535687537	32.556378398477
9	227	600.293650379457	21.520756106385
9	228	602.339661274913	9.978825049482
9	237	642.063406574313	5.432045269578
9	240	644.665848420463	2.482705222177
9	243	652.844144691525	6.61766193309
9	248	658.081232562018	2.334087139901
9	249	661.219079746864	4.517743091198
9	276	731.857397127689	39.505987174059
9	279	740.042681231418	37.857455355647
9	280	741.418045580403	28.777512948107
9	281	744.299201828746	30.040727580646
9	282	744.383326066527	6.273353381391
9	285	751.723529028896	0.690794811273
9	288	759.945300972186	7.867309260637
9	295	788.259728809927	5.138214837386
9	296	797.433564636137	10.434702372517
9	297	800.690172672301	12.932260112672
9	300	806.774811411294	2.116550342905
9	306	816.30705782622	2.588913754735
9	309	824.473592586999	7.427678852172
9	325	839.28274621141	3.840893262865
9	333	860.844242187069	23.45416335219
9	334	860.855493711641	21.277441603516
9	335	866.006115967	21.146183845459
9	336	869.382063699784	10.028872641583
9	342	891.014452329574	11.371143737877
9	350	903.615995564479	4.13624037259
9	351	909.451812905918	8.022701897555
9	354	915.462800391065	2.791971462393
9	357	921.118397500429	0.035396396641
9	362	924.496180879518	2.00097458274
9	365	929.794636601675	5.368390066488
9	366	933.042202528224	8.214991975185
9	369	942.041166092144	0.39797305983
9	372	964.914781157961	12.599781173563
9	380	988.272527988102	11.706913670443
9	381	990.110033526443	10.908309543144
9	384	995.02619450806	1.791840298897
9	409	1067.082154850237	29.264440808403
9	414	1070.696163194199	15.832390126909
9	415	1071.299894559029	8.813655682072
9	418	1083.033022421825	15.44670775332
9	422	1090.473544626103	8.691625774006
9	437	1121.554616814269	27.774373578274
9	438	1125.916529348462	24.997745709206
9	447	1151.173885039932	45.873978940486
9	453	1168.076748529383	50.491173112869
9	454	1169.426415600499	29.228468171936
9	464	1189.489032387081	44.477232434569
9	465	1195.056310711872	44.447506476275
9	472	1203.192563476879	43.157885053246
9	473	1207.840919049799	46.603290677064
9	474	1208.358820724661	37.336843278022
9	475	1209.248505392235	34.414141971862
9	476	1214.812057565686	37.353259519265
9	477	1215.169954347899	30.334407527557
9	478	1216.925024041637	17.681309593024
9	481	1235.45783761817	35.42332555165
9	482	1239.644001529854	37.910118865707
9	486	1243.789589878064	0.763014875029
9	496	1283.179560088052	29.947172873375
9	497	1283.399356696351	20.099026766163
9	498	1283.59255987629	13.404452268228
9	501	1305.032499526023	3.337423801341
9	504	1321.835192412482	2.228481796613
9	515	1336.785715574344	13.564322380857
9	518	1342.086506316597	16.251862441305
9	521	1350.307576397436	23.93183045189
9	532	1376.699854388337	48.769134877553
9	540	1395.84761517111	50.281384947773
9	544	1400.475552708598	45.817332194421
9	548	1421.024878620254	38.157733937427
9	549	1423.578308328141	37.962058901621
9	550	1432.07027211259	46.196550895001
9	551	1432.081619434941	35.584207588458
9	552	1432.962897637444	26.669139861395
9	565	1454.442402873303	3.365157701084
9	566	1455.490265765221	3.762919287901
9	567	1458.720330986916	4.423023322635
9	573	1469.201905371535	2.832696276538
9	579	1487.244890915385	6.007864089363
9	595	1520.593541947922	15.136173556059
9	596	1525.713381889575	13.789523786365
9	599	1535.409405510981	15.763505347553
9	604	1554.049891729299	21.44864014121
9	605	1560.047629581231	20.107786893097
9	606	1560.236746165763	13.54244884316
9	612	1589.686251206037	8.15231824704
9	618	1600.569920679216	0.958349479879
9	621	1616.991263369049	1.753032274212
9	626	1619.432127219974	2.42340084592
9	627	1623.574777703256	4.771110592169
9	634	1657.83396076265	3.512961423356
9	635	1660.500402456807	5.970269678599
9	636	1662.815675782623	7.784332760306
9	642	1676.574365748073	8.454893756586
9	647	1687.786284807494	7.608871272264
9	648	1692.088134518385	6.630280530275
9	673	1719.285380679613	15.217033166188
9	674	1719.309638128091	14.76556115635
9	677	1723.04372348906	15.171172912833
9	686	1734.560821273481	16.001454448659
9	687	1737.323284785613	14.75007837156
9	693	1741.393696904968	15.42212642451
9	694	1742.269181699687	11.67028402203
9	695	1743.643072946234	5.444327533576
9	699	1750.586664431074	6.238870508247
9	710	1760.077155976392	3.002737691179
9	719	1782.144166411853	18.744240576155
9	751	1829.0675328169	45.850820077476
9	766	1863.291170874478	67.272489476266
9	771	1875.88272139507	64.488664340775
9	772	1879.768348330029	61.144945424778
9	794	1932.587104373515	107.81049297527
9	795	1934.934336497677	91.069881934759
9	796	1935.546969280815	88.31102389857
9	797	1937.950555135302	84.930129117138
9	798	1939.40394713168	82.803287344244
9	801	1950.522081443028	87.740152893961
9	802	1951.081351626772	88.171157411826
9	803	1954.51950320167	87.978501182633
9	804	1954.532004065714	86.420663585799
9	805	1956.821187260922	73.772005893207
9	806	1959.647939771517	75.466143250167
9	815	1980.176173482643	73.403719484603
9	818	1983.318808657827	70.170695063089
9	819	1985.846133301824	59.326493153248
9	820	1990.810426439062	59.920304308724
9	821	1991.57086122353	41.332353924208
9	822	1994.309360797452	34.623036146593
9	826	1997.264775108337	31.619509404358
9	827	2007.425950634194	24.625735614278
9	828	2008.484598818499	12.771649298764
9	837	2019.632639169842	6.096783653591
9	855	2053.278307021828	11.259427978379
9	856	2057.049477678873	15.030441898555
9	861	2066.356955703688	19.523154087433
9	862	2066.454853022728	17.98376450249
9	863	2066.624165925485	8.700848396724
9	864	2067.755624567261	4.236823605449
9	867	2071.237639005112	2.348751220038
9	881	2097.146421532014	3.770600768379
9	882	2098.064955963155	1.916637784484
9	905	2160.249708208873	33.006097566386
9	911	2168.537761414549	20.24172245858
9	914	2176.000013661102	26.005798210258
9	915	2185.224969056042	29.813214262001
9	916	2185.651701262689	25.400833904509
9	917	2187.8893898905	25.353534775208
9	918	2191.021700277935	19.306654138929
9	929	2215.978923243091	5.707224264832
9	930	2216.93961760825	1.030380302056
9	943	2239.689629102892	15.033343283555
9	944	2246.301803441793	11.69894855927
9	953	2269.659486142679	34.836242235199
9	956	2270.123031789967	13.23323599364
9	964	2288.729318425252	23.939294775325
9	967	2292.761719986051	27.713160633327
9	984	2308.923654819044	36.505469089597
9	985	2311.662699707374	34.760255610127
9	988	2318.740876828697	26.731258321561
9	989	2319.937801529189	25.724319353823
9	990	2319.961319662571	25.240926705682
9	991	2323.438730157921	26.855412093555
9	992	2324.908156320387	27.207011818189
9	993	2328.149478731463	25.094228687769
9	994	2330.839838314087	27.537765945722
9	995	2336.761504776292	30.887129467076
9	998	2349.396439934797	34.488318098055
9	999	2349.863974450381	8.943040269147
9	1002	2368.375646531127	3.278110770869
9	1005	2374.587923958443	5.0437193387
9	1008	2377.764267290654	1.159935415756
9	1011	2396.427063802537	3.303168565693
9	1014	2401.262067934452	2.36436520455
9	1025	2416.317637574842	4.404506213657
9	1026	2417.07395049649	4.832568694233
9	1040	2444.550891952018	7.145850046003
9	1041	2448.860756708339	8.86270534826
9	1052	2457.987979178106	3.097274059241
9	1053	2464.998082762355	8.083078392277
9	1058	2469.538623146754	3.329421821393
9	1061	2479.829334905049	10.842073965138
9	1065	2489.939927403423	9.383628138508
10	154	436.114629776888	6
10	163	453.737651697012	7
10	166	454.215286568968	8
10	173	464.656055005741	9
10	176	476.260410756314	10
10	179	479.189485801982	11
10	182	483.085877055807	12
10	191	498.797104969028	13
10	195	504.528118920206	14
10	202	519.131660745384	15
10	225	592.360836225431	16
10	256	692.35140995363	17
10	304	813.718144071485	18
10	327	839.578052108125	19
10	340	879.643308591697	20
10	346	899.479755191889	21
10	376	976.565614317659	22
10	420	1085.845270508107	23
10	426	1100.918783639256	24
10	451	1161.237628372735	25
10	460	1177.458798046421	26
10	484	1243.026575003035	27
10	525	1354.658220514177	28
10	534	1382.867144682827	29
10	542	1396.497411846483	30
10	546	1406.293757776049	31
10	561	1451.72734647732	32
10	577	1481.237026826022	33
10	591	1511.92385810321	34
10	610	1581.533932958997	35
10	658	1701.774818324175	36
10	665	1707.872550576227	37
10	681	1725.971570480458	38
10	684	1730.598897677657	39
10	689	1738.198745412658	40
10	697	1744.347793922827	41
10	703	1752.848412235259	42
10	708	1757.78363004108	43
10	712	1763.399925835698	44
10	723	1788.864423319195	45
10	755	1847.235945382245	46
10	760	1856.600659787436	47
10	778	1884.986909974073	48
10	781	1902.010481329994	49
10	808	1959.686324650859	50
10	811	1961.530443557048	51
10	824	1995.712949519735	52
10	847	2042.018879043449	53
10	901	2149.994215450844	54
10	909	2162.535855115292	55
10	941	2234.82324390748	56
10	958	2272.150202713364	57
10	969	2294.213482175366	58
10	980	2303.302072368365	59
10	1050	2456.915004370078	60
10	1063	2480.556299264915	61
11	1068	2500	0.0928
12	1068	2500	0.0492

