file 56618 1678524035                                           
version 2
run experiments_medium_game_mode1-186-20230311-09:40:35-9604
attr configname experiments_medium_game_mode1
attr datetime 20230311-09:40:35
attr experiment experiments_medium_game_mode1
attr inifile omnetpp.ini
attr iterationvars "$0=5, $1=6, $2=0"
attr iterationvarsf 5,6,0-
attr measurement "$0=5, $1=6, $2=0"
attr network Network
attr processid 9604
attr repetition 6
attr replication #6
attr resultdir results
attr runnumber 186
attr seedset 6
param *.boss.arrival_mean 20
param *.boss.service_mean 5
param *.minion.arrival_mean 10
param *.minion.service_mean 6
param *.player.recover_rate_x 0
param **.minion.arrival_distribution 0
param **.minion.service_distribution 0
param **.boss.arrival_distribution 0
param **.boss.service_distribution 0

vector 0 Network.player boss_jobs_number_stat:vector ETV
attr source signal_boss_jobs_number
vector 1 Network.player boss_jobs_queue_number_stat:vector ETV
attr source signal_boss_jobs_queue_number
vector 2 Network.player minion_recovered_stat:vector ETV
attr source signal_minion_recovered
vector 3 Network.player boss_waiting_time_stat:vector ETV
attr source signal_boss_waiting_time
vector 4 Network.player minion_jobs_number_stat:vector ETV
attr source signal_minion_jobs_number
vector 5 Network.player minion_jobs_queue_number_stat:vector ETV
attr source signal_minion_jobs_queue_number
vector 6 Network.player boss_defeated_stat:vector ETV
attr source signal_boss_defeated
vector 7 Network.player boss_response_time_stat:vector ETV
attr source signal_boss_response_time
vector 8 Network.player minion_waiting_time_stat:vector ETV
attr source signal_minion_waiting_time
vector 9 Network.player minion_defeated_stat:vector ETV
attr source signal_minion_defeated
vector 10 Network.player minion_response_time_stat:vector ETV
attr source signal_minion_response_time
vector 11 Network.player minion_throughput:vector ETV
attr source signal_minion_throughput
vector 12 Network.player boss_throughput:vector ETV
attr source signal_boss_throughput
0	2006 2408 133 1001 350.911095348185 2499.404620087199 94 1 3 115 163
1	4414 4791 133 1001 350.911095348185 2499.404620087199 187 0 2 42 54
2	9205 1360 133 1001 350.911095348185 2499.404620087199 51 9 59 1734 70006
3	10565 2644 133 1001 350.911095348185 2499.404620087199 94 0 14.084059660146 105.12579005805 957.9400047759
4	13209 5025 135 987 351.627033189598 2473.954007465772 196 1 10 551 2217
5	18234 10066 135 999 351.627033189598 2494.547148616272 393 0 9 713 2631
6	28300 2491 136 998 353.053694243165 2488.362944702728 93 22 114 6324 497054
7	30791 3596 136 998 353.053694243165 2488.362944702728 93 0.002717937389 24.016538354969 553.86928921186 6301.590422293
8	34387 8932 136 999 353.053694243165 2494.547148616272 247 0 50.881914661351 2924.773853544 73760.579155544
9	43319 5357 139 999 358.594807353144 2494.547148616272 197 21 217 23443 3426815
10	48676 7901 139 999 358.594807353144 2494.547148616272 197 0.140823199327 59.021128549849 3190.7178502725 84972.137078131
11	56577 20 1002 1002 2500 2500 1 0.0868 0.0868 0.0868 0.00753424
12	56597 20 1002 1002 2500 2500 1 0.0456 0.0456 0.0456 0.00207936

