version 2
run experiments_medium_game_mode1-184-20230311-09:40:35-9594
attr configname experiments_medium_game_mode1
attr datetime 20230311-09:40:35
attr experiment experiments_medium_game_mode1
attr inifile omnetpp.ini
attr iterationvars "$0=5, $1=6, $2=0"
attr iterationvarsf 5,6,0-
attr measurement "$0=5, $1=6, $2=0"
attr network Network
attr processid 9594
attr repetition 4
attr replication #4
attr resultdir results
attr runnumber 184
attr seedset 4
param *.boss.arrival_mean 20
param *.boss.service_mean 5
param *.minion.arrival_mean 10
param *.minion.service_mean 6
param *.player.recover_rate_x 0
param **.minion.arrival_distribution 0
param **.minion.service_distribution 0
param **.boss.arrival_distribution 0
param **.boss.service_distribution 0

vector 0 Network.player minion_defeated_stat:vector ETV
attr source signal_minion_defeated
vector 1 Network.player minion_jobs_queue_number_stat:vector ETV
attr source signal_minion_jobs_queue_number
vector 2 Network.player minion_response_time_stat:vector ETV
attr source signal_minion_response_time
vector 3 Network.player minion_waiting_time_stat:vector ETV
attr source signal_minion_waiting_time
vector 4 Network.player minion_jobs_number_stat:vector ETV
attr source signal_minion_jobs_number
vector 5 Network.player boss_jobs_number_stat:vector ETV
attr source signal_boss_jobs_number
vector 6 Network.player boss_jobs_queue_number_stat:vector ETV
attr source signal_boss_jobs_queue_number
vector 7 Network.player minion_recovered_stat:vector ETV
attr source signal_minion_recovered
vector 8 Network.player boss_waiting_time_stat:vector ETV
attr source signal_boss_waiting_time
vector 9 Network.player boss_defeated_stat:vector ETV
attr source signal_boss_defeated
vector 10 Network.player boss_response_time_stat:vector ETV
attr source signal_boss_response_time
vector 11 Network.player minion_throughput:vector ETV
attr source signal_minion_throughput
vector 12 Network.player boss_throughput:vector ETV
attr source signal_boss_throughput
0	190	350.315693969896	47
0	195	353.56839869289	48
0	196	353.733732232357	49
0	202	357.55446959733	50
0	203	359.666782192308	51
0	204	359.930321034267	52
0	214	383.800549319763	53
0	215	390.364690471376	54
0	216	390.705645145682	55
0	219	396.745308849884	56
0	230	432.744320103674	57
0	231	441.267132227843	58
0	234	446.085959128854	59
0	239	452.145933819393	60
0	240	453.475606234183	61
0	243	462.068363755696	62
0	257	492.357941017379	63
0	258	497.39379584003	64
0	264	500.630326139948	65
0	265	501.14589448397	66
0	266	501.538817713359	67
0	269	506.175937724775	68
0	273	520.353533801925	69
0	276	524.254889421619	70
0	279	528.962220604991	71
0	282	542.124535373239	72
0	288	555.040591612769	73
0	297	600.440544103292	74
0	300	602.960975542291	75
0	321	620.395422361116	76
0	322	623.928102796978	77
0	340	659.973034144262	78
0	351	688.56316473239	79
0	354	697.646504617592	80
0	355	698.068902483835	81
0	356	698.247102627081	82
0	361	701.942812128226	83
0	369	721.148608501123	84
0	376	729.791547921115	85
0	384	738.589133454519	86
0	388	747.715896465082	87
0	394	758.670227222046	88
0	395	758.729850825427	89
0	399	778.181598862723	90
0	400	779.044444668513	91
0	401	780.184661947141	92
0	404	786.846478083592	93
0	414	799.697252441893	94
0	415	800.633860129091	95
0	418	809.636677254966	96
0	419	810.544656323795	97
0	429	824.421306045168	98
0	434	835.809661690139	99
0	437	846.416915212763	100
0	445	865.122865945172	101
0	446	865.300409000846	102
0	459	887.947353730995	103
0	462	891.396893705805	104
0	465	909.649845026694	105
0	468	912.400412001911	106
0	474	929.309484371367	107
0	475	931.817383195432	108
0	476	935.89134217928	109
0	477	938.748862341488	110
0	478	943.150208300593	111
0	479	943.98874197244	112
0	480	959.350016466207	113
0	486	977.38940893488	114
0	487	977.453928429079	115
0	488	977.861689517448	116
0	489	993.294829547895	117
0	504	1043.668184365176	118
0	507	1055.188165342764	119
0	512	1092.10728228154	120
0	513	1097.32336486662	121
0	519	1108.830810599308	122
0	532	1153.28094793082	123
0	533	1153.648498348676	124
0	534	1154.968218539663	125
0	537	1166.438786128748	126
0	540	1178.6235211007	127
0	548	1204.761269578767	128
0	568	1237.976298009774	129
0	569	1238.071222103281	130
0	570	1239.5602602369	131
0	576	1254.887032519559	132
0	584	1281.336310450887	133
0	593	1298.855068265869	134
0	596	1311.191471202875	135
0	597	1314.343857836687	136
0	598	1320.94428953325	137
0	599	1324.391197610641	138
0	610	1353.372574590389	139
0	621	1373.106221972503	140
0	622	1373.870258310855	141
0	623	1375.488377146303	142
0	624	1376.675068571465	143
0	630	1413.55330301663	144
0	635	1420.811838528318	145
0	653	1446.997084648917	146
0	654	1448.88989872929	147
0	655	1449.408055121389	148
0	668	1469.486322409342	149
0	673	1476.227238338717	150
0	677	1479.815143184676	151
0	683	1488.562961613566	152
0	684	1493.021989082324	153
0	687	1494.890476299697	154
0	688	1504.115515773761	155
0	689	1506.530017042045	156
0	695	1517.900181535843	157
0	696	1520.515244203511	158
0	702	1547.171723896354	159
0	703	1548.663969685789	160
0	704	1550.237378019186	161
0	705	1552.242252533557	162
0	708	1562.638033581233	163
0	713	1573.140222033754	164
0	714	1580.938996192106	165
0	717	1590.11460325959	166
0	720	1594.587604314866	167
0	737	1619.997812210151	168
0	738	1621.726861171222	169
0	739	1627.065263828959	170
0	740	1631.078067669969	171
0	741	1632.112599298848	172
0	752	1658.346119233702	173
0	753	1663.010871992798	174
0	756	1669.97610509929	175
0	764	1692.313490121438	176
0	772	1709.265082731511	177
0	773	1709.283448790035	178
0	785	1734.046100545386	179
0	786	1736.659824627775	180
0	789	1744.873608436073	181
0	799	1757.982244600585	182
0	800	1762.313080445791	183
0	801	1762.419022725101	184
0	812	1819.785310169982	185
0	831	1859.150195151973	186
0	832	1859.613374415338	187
0	833	1865.453797802388	188
0	834	1869.590446363502	189
0	835	1871.155150041177	190
0	836	1871.656426778992	191
0	837	1875.401181975093	192
0	850	1896.85132335036	193
0	859	1922.840043255579	194
0	860	1924.980006738994	195
0	861	1931.853680863669	196
0	869	1946.948909054774	197
0	870	1947.747736782246	198
0	877	1973.836180104855	199
0	878	1976.833674035005	200
0	881	1985.032135368242	201
0	882	1985.914453979334	202
0	885	2007.848677653294	203
0	888	2017.566453335857	204
0	891	2030.403634748412	205
0	896	2038.469429754118	206
0	901	2049.715380229262	207
0	902	2050.567067929818	208
0	906	2064.580932249977	209
0	942	2138.237081420531	210
0	943	2140.467844334818	211
0	944	2145.954263649141	212
0	945	2146.717081668654	213
0	964	2181.363622722484	214
0	965	2185.779443281387	215
0	974	2205.764698226128	216
0	977	2209.340277344087	217
0	980	2210.331450035144	218
0	993	2236.321512572026	219
0	994	2240.398189490503	220
0	997	2245.277486113301	221
0	1004	2254.947041570977	222
0	1005	2259.159896921447	223
0	1006	2261.231005492388	224
0	1007	2263.956955585299	225
0	1010	2270.434207602486	226
0	1011	2279.601524451574	227
0	1012	2284.850690309422	228
0	1017	2302.580883395076	229
0	1031	2333.669722276355	230
0	1036	2340.154055179014	231
0	1044	2355.704498125074	232
0	1063	2388.570718176885	233
0	1064	2392.111505365396	234
0	1067	2394.328666420371	235
0	1070	2401.234819247582	236
0	1071	2401.541915470325	237
0	1075	2408.46454424553	238
0	1078	2412.421132379738	239
0	1079	2415.36506844304	240
0	1084	2427.795898063339	241
0	1085	2432.464828019327	242
0	1094	2454.011974054243	243
0	1106	2480.37669553429	244
0	1107	2483.759771071856	245
1	190	350.315693969896	2
1	192	352.978059280825	2
1	194	353.419832700556	3
1	195	353.56839869289	3
1	196	353.733732232357	2
1	198	354.029144478105	2
1	202	357.55446959733	2
1	203	359.666782192308	1
1	204	359.930321034267	0
1	208	367.990366123876	0
1	210	370.215756671625	1
1	212	378.052364412856	2
1	214	383.800549319763	2
1	215	390.364690471376	1
1	216	390.705645145682	0
1	218	392.371167949294	0
1	219	396.745308849884	0
1	225	406.946512179946	0
1	229	428.383531803711	1
1	230	432.744320103674	1
1	231	441.267132227843	0
1	233	444.011401927085	0
1	234	446.085959128854	0
1	236	450.98066652757	0
1	238	451.73028784658	1
1	239	452.145933819393	1
1	240	453.475606234183	0
1	242	457.757667197246	0
1	243	462.068363755696	0
1	245	468.537409541898	0
1	247	473.982018299906	1
1	249	474.529741610902	2
1	251	475.544180612483	3
1	256	487.096783251574	4
1	257	492.357941017379	4
1	258	497.39379584003	3
1	260	498.149657772508	3
1	264	500.630326139948	3
1	265	501.14589448397	2
1	266	501.538817713359	1
1	268	504.007860976143	1
1	269	506.175937724775	1
1	273	520.353533801925	0
1	275	521.612487774395	0
1	276	524.254889421619	0
1	278	527.923533215532	0
1	279	528.962220604991	0
1	281	537.445084178704	0
1	282	542.124535373239	0
1	287	548.264386181192	0
1	288	555.040591612769	0
1	295	590.493629256602	0
1	297	600.440544103292	0
1	299	602.20438266908	0
1	300	602.960975542291	0
1	312	615.409528465206	0
1	315	618.465673972245	1
1	318	619.717847794858	2
1	320	619.833301056846	3
1	321	620.395422361116	3
1	322	623.928102796978	2
1	324	625.095285653623	2
1	329	639.848484542895	3
1	333	642.658770506067	4
1	339	659.594703833646	5
1	340	659.973034144262	5
1	345	673.829436125857	5
1	347	675.333498500462	6
1	351	688.56316473239	6
1	353	690.910142428003	6
1	354	697.646504617592	6
1	355	698.068902483835	5
1	356	698.247102627081	4
1	358	699.537802025186	4
1	360	701.278112949638	5
1	361	701.942812128226	5
1	363	705.443488769669	5
1	368	720.668128982073	6
1	369	721.148608501123	6
1	371	723.310590708142	6
1	373	724.755192015371	7
1	375	726.969688862878	8
1	376	729.791547921115	8
1	378	730.360630098194	8
1	380	733.528179951936	9
1	384	738.589133454519	9
1	388	747.715896465082	8
1	390	747.957665793117	8
1	394	758.670227222046	8
1	395	758.729850825427	7
1	399	778.181598862723	6
1	400	779.044444668513	5
1	401	780.184661947141	4
1	403	785.616464863021	4
1	404	786.846478083592	4
1	409	794.197517599841	4
1	411	796.623699401966	5
1	413	796.72708907059	6
1	414	799.697252441893	6
1	415	800.633860129091	5
1	417	801.133982897773	5
1	418	809.636677254966	5
1	419	810.544656323795	4
1	424	815.422787032409	4
1	426	815.608500370594	5
1	428	815.934585411496	6
1	429	824.421306045168	6
1	431	825.526313810085	6
1	433	835.67500919863	7
1	434	835.809661690139	7
1	436	838.293922995647	7
1	437	846.416915212763	7
1	439	849.288132877701	7
1	443	862.849732286948	8
1	445	865.122865945172	8
1	446	865.300409000846	7
1	450	867.819189508284	7
1	452	876.595906204156	8
1	457	884.676733301921	9
1	459	887.947353730995	9
1	461	890.125790668226	9
1	462	891.396893705805	9
1	464	899.84808513181	9
1	465	909.649845026694	9
1	467	912.201097435126	9
1	468	912.400412001911	9
1	473	924.745328877657	9
1	474	929.309484371367	9
1	475	931.817383195432	8
1	476	935.89134217928	7
1	477	938.748862341488	6
1	478	943.150208300593	5
1	479	943.98874197244	4
1	480	959.350016466207	3
1	482	960.517106469297	3
1	486	977.38940893488	3
1	487	977.453928429079	2
1	488	977.861689517448	1
1	489	993.294829547895	0
1	496	1033.384009707371	0
1	504	1043.668184365176	0
1	506	1049.993380740303	0
1	507	1055.188165342764	0
1	509	1082.984639060615	0
1	511	1088.617329153541	1
1	512	1092.10728228154	1
1	513	1097.32336486662	0
1	517	1103.125587623014	0
1	519	1108.830810599308	0
1	527	1134.762032603282	0
1	529	1147.048587206214	1
1	531	1147.537948956536	2
1	532	1153.28094793082	2
1	533	1153.648498348676	1
1	534	1154.968218539663	0
1	536	1164.904607599407	0
1	537	1166.438786128748	0
1	539	1178.101504796177	0
1	540	1178.6235211007	0
1	542	1183.818427798031	0
1	546	1195.078255801779	1
1	548	1204.761269578767	1
1	550	1207.401156566698	1
1	552	1214.887864769734	2
1	556	1217.974748432124	3
1	563	1226.344634059431	4
1	566	1235.378878174354	5
1	568	1237.976298009774	5
1	569	1238.071222103281	4
1	570	1239.5602602369	3
1	575	1248.214279567109	3
1	576	1254.887032519559	3
1	578	1265.493396779247	3
1	582	1276.969427052902	4
1	584	1281.336310450887	4
1	588	1292.311340785742	4
1	593	1298.855068265869	4
1	595	1308.17405787577	4
1	596	1311.191471202875	4
1	597	1314.343857836687	3
1	598	1320.94428953325	2
1	599	1324.391197610641	1
1	607	1344.116104056895	1
1	609	1345.313465627111	2
1	610	1353.372574590389	2
1	612	1354.599587035081	2
1	616	1356.820560843841	3
1	621	1373.106221972503	3
1	622	1373.870258310855	2
1	623	1375.488377146303	1
1	624	1376.675068571465	0
1	629	1405.804050851196	0
1	630	1413.55330301663	0
1	632	1418.580934377472	0
1	634	1419.365251027381	1
1	635	1420.811838528318	1
1	637	1424.371814798071	1
1	639	1426.080754246227	2
1	641	1430.223573916927	3
1	643	1432.174455560598	4
1	645	1433.840264766058	5
1	649	1438.239809209698	6
1	651	1439.299794285302	7
1	653	1446.997084648917	7
1	654	1448.88989872929	6
1	655	1449.408055121389	5
1	659	1452.654154888627	5
1	661	1457.883931666083	6
1	664	1463.273812668466	7
1	668	1469.486322409342	7
1	670	1472.018476230275	7
1	672	1474.9858238411	8
1	673	1476.227238338717	8
1	677	1479.815143184676	7
1	682	1488.484311171099	7
1	683	1488.562961613566	7
1	684	1493.021989082324	6
1	686	1493.700703597856	6
1	687	1494.890476299697	6
1	688	1504.115515773761	5
1	689	1506.530017042045	4
1	693	1514.130707624126	4
1	695	1517.900181535843	4
1	696	1520.515244203511	3
1	698	1526.978937178612	3
1	702	1547.171723896354	3
1	703	1548.663969685789	2
1	704	1550.237378019186	1
1	705	1552.242252533557	0
1	707	1560.94884828646	0
1	708	1562.638033581233	0
1	710	1564.5415027936	0
1	712	1570.621567227446	1
1	713	1573.140222033754	1
1	714	1580.938996192106	0
1	716	1589.074637641165	0
1	717	1590.11460325959	0
1	719	1594.189946417285	0
1	720	1594.587604314866	0
1	724	1596.105758401379	0
1	727	1599.657371185126	1
1	729	1600.459363741868	2
1	734	1618.082927982142	3
1	736	1619.408985688684	4
1	737	1619.997812210151	4
1	738	1621.726861171222	3
1	739	1627.065263828959	2
1	740	1631.078067669969	1
1	741	1632.112599298848	0
1	746	1643.470809558966	0
1	750	1654.772490570587	1
1	752	1658.346119233702	1
1	753	1663.010871992798	0
1	755	1669.302674711366	0
1	756	1669.97610509929	0
1	761	1691.348428581574	0
1	763	1692.056031350476	1
1	764	1692.313490121438	1
1	766	1693.557577111194	1
1	770	1702.87229380948	2
1	772	1709.265082731511	2
1	773	1709.283448790035	1
1	775	1712.519235799934	1
1	785	1734.046100545386	1
1	786	1736.659824627775	0
1	788	1740.523544655067	0
1	789	1744.873608436073	0
1	791	1745.556817795269	0
1	793	1746.634258612059	1
1	797	1752.693400708012	2
1	799	1757.982244600585	2
1	800	1762.313080445791	1
1	801	1762.419022725101	0
1	803	1790.6533783296	0
1	811	1816.797479941983	1
1	812	1819.785310169982	1
1	816	1821.20874573268	1
1	821	1823.300686946975	2
1	823	1833.919262889088	3
1	825	1839.387629554969	4
1	827	1840.697669255105	5
1	829	1848.201262330267	6
1	831	1859.150195151973	6
1	832	1859.613374415338	5
1	833	1865.453797802388	4
1	834	1869.590446363502	3
1	835	1871.155150041177	2
1	836	1871.656426778992	1
1	837	1875.401181975093	0
1	839	1880.733915395693	0
1	841	1883.06317196079	1
1	849	1893.595205370134	2
1	850	1896.85132335036	2
1	854	1904.705244863345	2
1	859	1922.840043255579	2
1	860	1924.980006738994	1
1	861	1931.853680863669	0
1	863	1932.300439084964	0
1	867	1939.475494742049	1
1	869	1946.948909054774	1
1	870	1947.747736782246	0
1	872	1963.425493522929	0
1	874	1964.026110923123	1
1	876	1969.771006203081	2
1	877	1973.836180104855	2
1	878	1976.833674035005	1
1	880	1977.582003380281	1
1	881	1985.032135368242	1
1	882	1985.914453979334	0
1	884	2004.651654727298	0
1	885	2007.848677653294	0
1	887	2013.816493378783	0
1	888	2017.566453335857	0
1	890	2026.065640661776	0
1	891	2030.403634748412	0
1	893	2034.283285546739	0
1	895	2037.391245495991	1
1	896	2038.469429754118	1
1	898	2047.716138571191	1
1	900	2049.697799527098	2
1	901	2049.715380229262	2
1	902	2050.567067929818	1
1	906	2064.580932249977	0
1	921	2084.366810896809	0
1	924	2095.024971664933	1
1	933	2115.576932845457	2
1	941	2132.838212740182	3
1	942	2138.237081420531	3
1	943	2140.467844334818	2
1	944	2145.954263649141	1
1	945	2146.717081668654	0
1	949	2151.954268436023	0
1	960	2175.804034837298	1
1	963	2180.444845152746	2
1	964	2181.363622722484	2
1	965	2185.779443281387	1
1	967	2190.28453943741	1
1	969	2201.54298104968	2
1	971	2203.319575982824	3
1	973	2205.190997088893	4
1	974	2205.764698226128	4
1	976	2208.498927757079	4
1	977	2209.340277344087	4
1	979	2210.034316746444	4
1	980	2210.331450035144	4
1	984	2218.906711902633	4
1	986	2223.371926576437	5
1	990	2224.556940303423	6
1	993	2236.321512572026	6
1	994	2240.398189490503	5
1	996	2242.344369738812	5
1	997	2245.277486113301	5
1	999	2245.484935265308	5
1	1001	2250.531878277508	6
1	1003	2250.551742008903	7
1	1004	2254.947041570977	7
1	1005	2259.159896921447	6
1	1006	2261.231005492388	5
1	1007	2263.956955585299	4
1	1009	2266.636445813813	4
1	1010	2270.434207602486	4
1	1011	2279.601524451574	3
1	1012	2284.850690309422	2
1	1014	2289.324407733636	2
1	1016	2290.078142997807	3
1	1017	2302.580883395076	3
1	1025	2316.717632951859	3
1	1029	2330.117065585829	4
1	1031	2333.669722276355	4
1	1033	2334.275765462892	4
1	1035	2335.764180382884	5
1	1036	2340.154055179014	5
1	1038	2341.256052364237	5
1	1042	2349.061370327206	6
1	1044	2355.704498125074	6
1	1046	2360.153948864617	6
1	1048	2362.081870274283	7
1	1050	2371.529764969959	8
1	1052	2371.729467480541	9
1	1058	2382.54474823165	10
1	1060	2385.63005962926	11
1	1063	2388.570718176885	11
1	1064	2392.111505365396	10
1	1066	2392.703794730356	10
1	1067	2394.328666420371	10
1	1069	2399.773344757494	10
1	1070	2401.234819247582	10
1	1071	2401.541915470325	9
1	1075	2408.46454424553	8
1	1077	2409.851191240822	8
1	1078	2412.421132379738	8
1	1079	2415.36506844304	7
1	1081	2419.522145450243	7
1	1083	2420.667741845603	8
1	1084	2427.795898063339	8
1	1085	2432.464828019327	7
1	1089	2439.880233104867	7
1	1094	2454.011974054243	7
1	1102	2470.080629290396	7
1	1106	2480.37669553429	7
1	1107	2483.759771071856	6
1	1109	2494.914627525382	6
1	1111	2495.254658704516	7
2	190	350.315693969896	18.331332447823
2	195	353.56839869289	17.807000312451
2	196	353.733732232357	13.991902731794
2	202	357.55446959733	4.134636896774
2	203	359.666782192308	5.637637714203
2	204	359.930321034267	3.348995621967
2	214	383.800549319763	15.810183195887
2	215	390.364690471376	20.148933799751
2	216	390.705645145682	12.653280732826
2	219	396.745308849884	4.37414090059
2	230	432.744320103674	25.797807923728
2	231	441.267132227843	12.883600424132
2	234	446.085959128854	2.074557201769
2	239	452.145933819393	1.165267291823
2	240	453.475606234183	1.745318387603
2	243	462.068363755696	4.31069655845
2	257	492.357941017379	18.375922717473
2	258	497.39379584003	22.864054229128
2	264	500.630326139948	22.364710314201
2	265	501.14589448397	14.049111232396
2	266	501.538817713359	3.389159940851
2	269	506.175937724775	7.713720800829
2	273	520.353533801925	14.079432647347
2	276	524.254889421619	2.642401647224
2	279	528.962220604991	1.038687389459
2	282	542.124535373239	4.679451194535
2	288	555.040591612769	6.776205431577
2	297	600.440544103292	9.94691484669
2	300	602.960975542291	0.756592873211
2	321	620.395422361116	4.98589389591
2	322	623.928102796978	5.462428824733
2	340	659.973034144262	25.452560527163
2	351	688.56316473239	45.904394226323
2	354	697.646504617592	51.505593543201
2	355	698.068902483835	38.474198650189
2	356	698.247102627081	28.877054446462
2	361	701.942812128226	28.113376002369
2	369	721.148608501123	45.059058193176
2	376	729.791547921115	38.881405493112
2	384	738.589133454519	37.311020504881
2	388	747.715896465082	32.070435496225
2	394	758.670227222046	35.359636513904
2	395	758.729850825427	33.974658810056
2	399	778.181598862723	47.820968764529
2	400	779.044444668513	45.516264716577
2	401	780.184661947141	45.074479392225
2	404	786.846478083592	47.307536442161
2	414	799.697252441893	50.194099765478
2	415	800.633860129091	29.719185826258
2	418	809.636677254966	24.020212391945
2	419	810.544656323795	23.433963066031
2	429	824.421306045168	27.797606643202
2	434	835.809661690139	39.082572619549
2	437	846.416915212763	45.28293231499
2	445	865.122865945172	49.700078912763
2	446	865.300409000846	49.691908630252
2	459	887.947353730995	52.272344532365
2	462	891.396893705805	53.102970710158
2	465	909.649845026694	60.361712148993
2	468	912.400412001911	54.001375634993
2	474	929.309484371367	62.221039496815
2	475	931.817383195432	63.998193687148
2	476	935.89134217928	59.295435975124
2	477	938.748862341488	56.939778168156
2	478	943.150208300593	58.473474998672
2	479	943.98874197244	53.862951304214
2	480	959.350016466207	59.501931334397
2	486	977.38940893488	64.371126882894
2	487	977.453928429079	52.708599551422
2	488	977.861689517448	17.344583048151
2	489	993.294829547895	24.421375162422
2	504	1043.668184365176	10.284174657805
2	507	1055.188165342764	5.194784602461
2	512	1092.10728228154	9.122643220925
2	513	1097.32336486662	8.706035713079
2	519	1108.830810599308	5.705222976294
2	532	1153.28094793082	18.518915327538
2	533	1153.648498348676	6.599911142462
2	534	1154.968218539663	7.430269583127
2	537	1166.438786128748	1.534178529341
2	540	1178.6235211007	0.522016304523
2	548	1204.761269578767	10.539333695396
2	568	1237.976298009774	30.575141443076
2	569	1238.071222103281	23.183357333547
2	570	1239.5602602369	23.370057236815
2	576	1254.887032519559	28.542398460128
2	584	1281.336310450887	40.697357537156
2	593	1298.855068265869	25.260197487039
2	596	1311.191471202875	34.222044149973
2	597	1314.343857836687	27.388899350017
2	598	1320.94428953325	28.632948747508
2	599	1324.391197610641	29.732219145092
2	610	1353.372574590389	28.937954608096
2	621	1373.106221972503	18.506634937422
2	622	1373.870258310855	18.265473063285
2	623	1375.488377146303	18.667816302462
2	624	1376.675068571465	13.881904302631
2	630	1413.55330301663	7.749252165434
2	635	1420.811838528318	2.230904150846
2	653	1446.997084648917	22.625269850846
2	654	1448.88989872929	22.809144483063
2	655	1449.408055121389	19.184481204462
2	668	1469.486322409342	34.069628638777
2	673	1476.227238338717	37.987429129019
2	677	1479.815143184676	28.585355015401
2	683	1488.562961613566	30.679029947483
2	684	1493.021989082324	29.748176413858
2	687	1494.890476299697	27.577607451087
2	688	1504.115515773761	32.097039543486
2	689	1506.530017042045	31.544193200945
2	695	1517.900181535843	37.368063656621
2	696	1520.515244203511	32.030933032412
2	702	1547.171723896354	34.550845525141
2	703	1548.663969685789	34.533262061663
2	704	1550.237378019186	23.258440840574
2	705	1552.242252533557	14.568143154382
2	708	1562.638033581233	1.689185294773
2	713	1573.140222033754	8.598719240154
2	714	1580.938996192106	10.31742896466
2	717	1590.11460325959	1.039965618425
2	720	1594.587604314866	0.397657897581
2	737	1619.997812210151	20.340441025025
2	738	1621.726861171222	21.267497429354
2	739	1627.065263828959	10.961171013958
2	740	1631.078067669969	12.995139687827
2	741	1632.112599298848	12.703613610164
2	752	1658.346119233702	10.551147229365
2	753	1663.010871992798	8.238381422211
2	756	1669.97610509929	0.673430387924
2	764	1692.313490121438	0.965061539864
2	772	1709.265082731511	15.707505620317
2	773	1709.283448790035	11.873920475608
2	785	1734.046100545386	9.057224033318
2	786	1736.659824627775	7.901560951526
2	789	1744.873608436073	4.350063781006
2	799	1757.982244600585	11.347985988526
2	800	1762.313080445791	9.790335889675
2	801	1762.419022725101	9.725622017089
2	812	1819.785310169982	11.563751552522
2	831	1859.150195151973	37.941449419293
2	832	1859.613374415338	37.03778958648
2	833	1865.453797802388	42.153110855413
2	834	1869.590446363502	35.671183474414
2	835	1871.155150041177	31.767520486208
2	836	1871.656426778992	30.958757523887
2	837	1875.401181975093	27.199919644826
2	850	1896.85132335036	13.78815138957
2	859	1922.840043255579	29.244837885445
2	860	1924.980006738994	24.049750490016
2	861	1931.853680863669	27.148436000324
2	869	1946.948909054774	11.543637979886
2	870	1947.747736782246	8.272242040197
2	877	1973.836180104855	10.410686581926
2	878	1976.833674035005	12.807563111882
2	881	1985.032135368242	15.261129165161
2	882	1985.914453979334	8.332450599053
2	885	2007.848677653294	3.197022925996
2	888	2017.566453335857	3.749959957074
2	891	2030.403634748412	4.337994086636
2	896	2038.469429754118	4.186144207379
2	901	2049.715380229262	12.324134733271
2	902	2050.567067929818	2.850929358627
2	906	2064.580932249977	10.24368189146
2	942	2138.237081420531	53.870270523722
2	943	2140.467844334818	45.442872669885
2	944	2145.954263649141	30.377330803684
2	945	2146.717081668654	13.878868928472
2	964	2181.363622722484	22.31839648969
2	965	2185.779443281387	9.975408444089
2	974	2205.764698226128	25.319853073382
2	977	2209.340277344087	19.055737906677
2	980	2210.331450035144	8.788468985464
2	993	2236.321512572026	31.130515483133
2	994	2240.398189490503	31.899261733424
2	997	2245.277486113301	35.243169366857
2	1004	2254.947041570977	40.630231487525
2	1005	2259.159896921447	40.253185018814
2	1006	2261.231005492388	37.859078915951
2	1007	2263.956955585299	39.400015281876
2	1010	2270.434207602486	28.089837863674
2	1011	2279.601524451574	34.116589186266
2	1012	2284.850690309422	34.318812031914
2	1017	2302.580883395076	52.029141386173
2	1031	2333.669722276355	44.345314542719
2	1036	2340.154055179014	50.075912181207
2	1044	2355.704498125074	38.986865173215
2	1063	2388.570718176885	54.294952713993
2	1064	2392.111505365396	56.347324982512
2	1067	2394.328666420371	53.072614056134
2	1070	2401.234819247582	59.195705983552
2	1071	2401.541915470325	52.480545143119
2	1075	2408.46454424553	46.382673971247
2	1078	2412.421132379738	40.891367409779
2	1079	2415.36506844304	43.635600962499
2	1084	2427.795898063339	55.023483810966
2	1085	2432.464828019327	49.920079787677
2	1094	2454.011974054243	54.238629296749
2	1106	2480.37669553429	59.708953688687
2	1107	2483.759771071856	50.326691525089
3	190	350.315693969896	14.554295589457
3	195	353.56839869289	13.826569192327
3	196	353.733732232357	0.755672951532
3	201	356.622233581128	3.202400880572
3	202	357.55446959733	3.525325119225
3	203	359.666782192308	3.085456780008
3	213	382.819032119845	14.828665995969
3	214	383.800549319763	13.584792648138
3	215	390.364690471376	12.31232605852
3	218	392.371167949294	0
3	227	425.14843943429	18.201927254344
3	230	432.744320103674	4.360788299963
3	233	444.011401927085	0
3	236	450.98066652757	0
3	239	452.145933819393	0.415645972813
3	242	457.757667197246	0
3	245	468.537409541898	0
3	254	482.887786134588	8.905767834682
3	257	492.357941017379	17.828199406477
3	258	497.39379584003	21.849615227547
3	263	499.678458784516	21.412842958769
3	264	500.630326139948	13.533542888374
3	265	501.14589448397	2.996236711462
3	266	501.538817713359	3.076600789413
3	269	506.175937724775	2.168076748632
3	272	515.726968881116	9.452867726538
3	275	521.612487774395	0
3	278	527.923533215532	0
3	281	537.445084178704	0
3	287	548.264386181192	0
3	296	590.634746566314	0.141117309712
3	299	602.20438266908	0
3	316	618.880885328903	3.471356863697
3	321	620.395422361116	1.929748388871
3	322	623.928102796978	4.21025500212
3	327	636.048311598731	16.215010541885
3	334	645.051371752947	19.956086099324
3	337	650.690665090357	16.170191473258
3	340	659.973034144262	20.124549601367
3	343	670.195060720936	28.606018668891
3	350	686.180968284328	43.522197778261
3	351	688.56316473239	42.422253657999
3	354	697.646504617592	38.051800783946
3	355	698.068902483835	28.698854303216
3	356	698.247102627081	24.417666501224
3	361	701.942812128226	26.609313627764
3	366	719.449231187606	43.359680879659
3	369	721.148608501123	30.23846607312
3	376	729.791547921115	30.253745895929
3	383	738.281006355189	37.002893405551
3	384	738.589133454519	33.14564468485
3	387	741.985948593373	26.340487624516
3	388	747.715896465082	27.047767483009
3	393	750.504671478726	27.194080770584
3	394	758.670227222046	33.915035206675
3	395	758.729850825427	31.760161962549
3	398	776.743684073286	46.383053975092
3	399	778.181598862723	44.653418910787
3	400	779.044444668513	43.934262113597
3	401	780.184661947141	40.64572030571
3	404	786.846478083592	38.888812290475
3	407	790.813017094347	41.309864417932
3	414	799.697252441893	28.78257813906
3	415	800.633860129091	15.01739526607
3	418	809.636677254966	22.525983997202
3	419	810.544656323795	16.347138723954
3	422	813.500666946284	16.876967544318
3	429	824.421306045168	27.694216974578
3	434	835.809661690139	34.675678792366
3	437	846.416915212763	35.249711078755
3	444	863.544026529697	48.121239497288
3	445	865.122865945172	49.514365574578
3	446	865.300409000846	49.36582358935
3	453	881.697141739509	56.170827929424
3	458	885.906769355959	50.231760157329
3	459	887.947353730995	49.653430735348
3	462	891.396893705805	42.108760828104
3	465	909.649845026694	51.250808659776
3	468	912.400412001911	49.550679714963
3	471	920.529231004078	53.440786129526
3	474	929.309484371367	61.490294863083
3	475	931.817383195432	55.221476991276
3	476	935.89134217928	54.082258005948
3	477	938.748862341488	54.072129039567
3	478	943.150208300593	53.024417632367
3	479	943.98874197244	44.14065684063
3	480	959.350016466207	47.148919031081
3	485	973.595520331916	60.57723827993
3	486	977.38940893488	52.644080057223
3	487	977.453928429079	16.936821959782
3	488	977.861689517448	8.988235131975
3	503	1040.875269105191	7.49125939782
3	506	1049.993380740303	0
3	509	1082.984639060615	0
3	512	1092.10728228154	3.489953127999
3	518	1104.638980738908	1.513393115894
3	527	1134.762032603282	0
3	532	1153.28094793082	6.232360724606
3	533	1153.648498348676	6.11054939214
3	536	1164.904607599407	0
3	539	1178.101504796177	0
3	542	1183.818427798031	0
3	547	1196.243055229323	2.021119345952
3	548	1204.761269578767	9.683013776988
3	567	1236.896853751339	29.495697184641
3	568	1237.976298009774	23.08843324004
3	569	1238.071222103281	21.881019103196
3	570	1239.5602602369	21.585511804776
3	573	1245.361131227381	19.01649716795
3	576	1254.887032519559	19.508154345205
3	583	1279.773496411397	39.134543497666
3	584	1281.336310450887	33.122030883778
3	589	1294.503685145364	29.010288366117
3	592	1294.993882097347	21.399011318517
3	593	1298.855068265869	21.885641212967
3	596	1311.191471202875	24.236512716205
3	597	1314.343857836687	22.032517050945
3	598	1320.94428953325	26.285311067701
3	599	1324.391197610641	16.217139734871
3	605	1338.546497586855	14.111877604562
3	610	1353.372574590389	9.256470533494
3	617	1362.06016777025	16.746702143139
3	620	1366.809848015718	12.210260980637
3	621	1373.106221972503	17.501436724933
3	622	1373.870258310855	17.049697467014
3	623	1375.488377146303	12.695212877469
3	629	1405.804050851196	0
3	632	1418.580934377472	0
3	635	1420.811838528318	1.446587500937
3	652	1439.451930431527	15.080115633456
3	653	1446.997084648917	20.91633040269
3	654	1448.88989872929	18.666324812363
3	655	1449.408055121389	17.233599560791
3	662	1462.428788322275	28.588523556217
3	667	1469.440151664585	34.02345789402
3	668	1469.486322409342	31.246513199644
3	673	1476.227238338717	36.927444053415
3	676	1478.645862827948	27.416074658673
3	677	1479.815143184676	27.160988296049
3	680	1481.479531339023	23.59559967294
3	683	1488.562961613566	25.2891489451
3	684	1493.021989082324	25.709120233714
3	687	1494.890476299697	22.872000069422
3	688	1504.115515773761	29.129691932661
3	689	1506.530017042045	30.253780026489
3	694	1514.592433867394	34.060315988172
3	695	1517.900181535843	29.415870364744
3	696	1520.515244203511	26.814540605655
3	701	1541.577804504805	28.956926133592
3	702	1547.171723896354	33.041016272228
3	703	1548.663969685789	21.685032507177
3	704	1550.237378019186	12.563268640011
3	707	1560.94884828646	0
3	710	1564.5415027936	0
3	713	1573.140222033754	2.518654806308
3	716	1589.074637641165	0
3	719	1594.189946417285	0
3	725	1597.776937441361	1.671179039982
3	732	1616.369878728407	16.712507543281
3	737	1619.997812210151	19.538448468283
3	738	1621.726861171222	5.622768356221
3	739	1627.065263828959	8.982335846817
3	740	1631.078067669969	11.669081981285
3	746	1643.470809558966	0
3	751	1656.525775920737	8.7308039164
3	752	1658.346119233702	3.573628663115
3	755	1669.302674711366	0
3	761	1691.348428581574	0
3	764	1692.313490121438	0.257458770962
3	771	1703.617330031741	10.059752920547
3	772	1709.265082731511	11.855554417084
3	773	1709.283448790035	6.411154980555
3	781	1726.332352693908	13.813116893974
3	784	1730.386178367928	5.39730185586
3	785	1734.046100545386	5.287836869137
3	788	1740.523544655067	0
3	791	1745.556817795269	0
3	798	1752.920864904214	6.286606292155
3	799	1757.982244600585	5.459500044469
3	800	1762.313080445791	9.619679737779
3	803	1790.6533783296	0
3	806	1795.461371837186	2.539518417191
3	809	1808.273547469258	0.051988851798
3	812	1819.785310169982	2.987830227999
3	817	1821.45559896662	0.528844613925
3	830	1848.416261607562	27.207515874882
3	831	1859.150195151973	36.574610323115
3	832	1859.613374415338	36.312687468363
3	833	1865.453797802388	31.5345349133
3	834	1869.590446363502	30.202816808533
3	835	1871.155150041177	30.457480786072
3	836	1871.656426778992	23.455164448725
3	839	1880.733915395693	0
3	847	1892.389368200878	9.326196240088
3	850	1896.85132335036	10.046461037155
3	858	1915.348598202147	21.753392832013
3	859	1922.840043255579	21.909787006601
3	860	1924.980006738994	20.274761875649
3	863	1932.300439084964	0
3	868	1942.150622166814	6.745351091926
3	869	1946.948909054774	7.473414312725
3	872	1963.425493522929	0
3	877	1973.836180104855	9.810069181732
3	878	1976.833674035005	7.062667831924
3	881	1985.032135368242	7.450131987961
3	884	2004.651654727298	0
3	887	2013.816493378783	0
3	890	2026.065640661776	0
3	893	2034.283285546739	0
3	896	2038.469429754118	1.078184258127
3	901	2049.715380229262	1.999241658071
3	902	2050.567067929818	0.86926840272
3	905	2056.603009695275	2.265759336758
3	939	2121.800085991175	37.433275094366
3	942	2138.237081420531	43.212109755598
3	943	2140.467844334818	24.890911489361
3	944	2145.954263649141	13.116050908959
3	953	2155.799754269116	3.845485833093
3	961	2179.76562941033	20.720403177536
3	964	2181.363622722484	5.559587885186
3	965	2185.779443281387	5.334598128641
3	974	2205.764698226128	15.480158788718
3	977	2209.340277344087	7.797296294407
3	980	2210.331450035144	7.01187405232
3	992	2233.209789118525	28.018792029632
3	993	2236.321512572026	27.822584814947
3	994	2240.398189490503	30.363872744059
3	997	2245.277486113301	30.960676029849
3	1004	2254.947041570977	36.040329668344
3	1005	2259.159896921447	35.78797034501
3	1006	2261.231005492388	36.674065188965
3	1007	2263.956955585299	21.612585846487
3	1010	2270.434207602486	24.949272337178
3	1011	2279.601524451574	29.069646174066
3	1012	2284.850690309422	34.298948300519
3	1017	2302.580883395076	35.944437581263
3	1030	2332.83404633967	43.509638606034
3	1031	2333.669722276355	43.591579278548
3	1036	2340.154055179014	27.474714273704
3	1043	2349.211972664982	32.494339713123
3	1044	2355.704498125074	25.587432539245
3	1062	2387.497879093651	53.222113630759
3	1063	2388.570718176885	52.806537794001
3	1064	2392.111505365396	50.855453001159
3	1067	2394.328666420371	52.289553156341
3	1070	2401.234819247582	52.173448920376
3	1071	2401.541915470325	41.387966605708
3	1074	2407.678728709498	45.596858435215
3	1075	2408.46454424553	36.934779275571
3	1078	2412.421132379738	40.691664899197
3	1079	2415.36506844304	42.592654190667
3	1084	2427.795898063339	45.251149831689
3	1085	2432.464828019327	46.834768390067
3	1090	2445.155716951546	52.45192222119
3	1093	2450.911173491805	51.137828734311
3	1094	2454.011974054243	50.047325118695
3	1097	2462.643047621113	52.791856380291
3	1100	2467.467012674463	47.94486722422
3	1105	2480.15067658377	59.482934738167
3	1106	2480.37669553429	46.943615987523
3	1107	2483.759771071856	43.879537966989
4	192	352.978059280825	3
4	194	353.419832700556	4
4	198	354.029144478105	3
4	208	367.990366123876	1
4	210	370.215756671625	2
4	212	378.052364412856	3
4	218	392.371167949294	1
4	225	406.946512179946	1
4	229	428.383531803711	2
4	233	444.011401927085	1
4	236	450.98066652757	1
4	238	451.73028784658	2
4	242	457.757667197246	1
4	245	468.537409541898	1
4	247	473.982018299906	2
4	249	474.529741610902	3
4	251	475.544180612483	4
4	256	487.096783251574	5
4	260	498.149657772508	4
4	268	504.007860976143	2
4	275	521.612487774395	1
4	278	527.923533215532	1
4	281	537.445084178704	1
4	287	548.264386181192	1
4	295	590.493629256602	1
4	299	602.20438266908	1
4	312	615.409528465206	1
4	315	618.465673972245	2
4	318	619.717847794858	3
4	320	619.833301056846	4
4	324	625.095285653623	3
4	329	639.848484542895	4
4	333	642.658770506067	5
4	339	659.594703833646	6
4	345	673.829436125857	6
4	347	675.333498500462	7
4	353	690.910142428003	7
4	358	699.537802025186	5
4	360	701.278112949638	6
4	363	705.443488769669	6
4	368	720.668128982073	7
4	371	723.310590708142	7
4	373	724.755192015371	8
4	375	726.969688862878	9
4	378	730.360630098194	9
4	380	733.528179951936	10
4	390	747.957665793117	9
4	403	785.616464863021	5
4	409	794.197517599841	5
4	411	796.623699401966	6
4	413	796.72708907059	7
4	417	801.133982897773	6
4	424	815.422787032409	5
4	426	815.608500370594	6
4	428	815.934585411496	7
4	431	825.526313810085	7
4	433	835.67500919863	8
4	436	838.293922995647	8
4	439	849.288132877701	8
4	443	862.849732286948	9
4	450	867.819189508284	8
4	452	876.595906204156	9
4	457	884.676733301921	10
4	461	890.125790668226	10
4	464	899.84808513181	10
4	467	912.201097435126	10
4	473	924.745328877657	10
4	482	960.517106469297	4
4	496	1033.384009707371	1
4	506	1049.993380740303	1
4	509	1082.984639060615	1
4	511	1088.617329153541	2
4	517	1103.125587623014	1
4	527	1134.762032603282	1
4	529	1147.048587206214	2
4	531	1147.537948956536	3
4	536	1164.904607599407	1
4	539	1178.101504796177	1
4	542	1183.818427798031	1
4	546	1195.078255801779	2
4	550	1207.401156566698	2
4	552	1214.887864769734	3
4	556	1217.974748432124	4
4	563	1226.344634059431	5
4	566	1235.378878174354	6
4	575	1248.214279567109	4
4	578	1265.493396779247	4
4	582	1276.969427052902	5
4	588	1292.311340785742	5
4	595	1308.17405787577	5
4	607	1344.116104056895	2
4	609	1345.313465627111	3
4	612	1354.599587035081	3
4	616	1356.820560843841	4
4	629	1405.804050851196	1
4	632	1418.580934377472	1
4	634	1419.365251027381	2
4	637	1424.371814798071	2
4	639	1426.080754246227	3
4	641	1430.223573916927	4
4	643	1432.174455560598	5
4	645	1433.840264766058	6
4	649	1438.239809209698	7
4	651	1439.299794285302	8
4	659	1452.654154888627	6
4	661	1457.883931666083	7
4	664	1463.273812668466	8
4	670	1472.018476230275	8
4	672	1474.9858238411	9
4	682	1488.484311171099	8
4	686	1493.700703597856	7
4	693	1514.130707624126	5
4	698	1526.978937178612	4
4	707	1560.94884828646	1
4	710	1564.5415027936	1
4	712	1570.621567227446	2
4	716	1589.074637641165	1
4	719	1594.189946417285	1
4	724	1596.105758401379	1
4	727	1599.657371185126	2
4	729	1600.459363741868	3
4	734	1618.082927982142	4
4	736	1619.408985688684	5
4	746	1643.470809558966	1
4	750	1654.772490570587	2
4	755	1669.302674711366	1
4	761	1691.348428581574	1
4	763	1692.056031350476	2
4	766	1693.557577111194	2
4	770	1702.87229380948	3
4	775	1712.519235799934	2
4	788	1740.523544655067	1
4	791	1745.556817795269	1
4	793	1746.634258612059	2
4	797	1752.693400708012	3
4	803	1790.6533783296	1
4	811	1816.797479941983	2
4	816	1821.20874573268	2
4	821	1823.300686946975	3
4	823	1833.919262889088	4
4	825	1839.387629554969	5
4	827	1840.697669255105	6
4	829	1848.201262330267	7
4	839	1880.733915395693	1
4	841	1883.06317196079	2
4	849	1893.595205370134	3
4	854	1904.705244863345	3
4	863	1932.300439084964	1
4	867	1939.475494742049	2
4	872	1963.425493522929	1
4	874	1964.026110923123	2
4	876	1969.771006203081	3
4	880	1977.582003380281	2
4	884	2004.651654727298	1
4	887	2013.816493378783	1
4	890	2026.065640661776	1
4	893	2034.283285546739	1
4	895	2037.391245495991	2
4	898	2047.716138571191	2
4	900	2049.697799527098	3
4	921	2084.366810896809	1
4	924	2095.024971664933	2
4	933	2115.576932845457	3
4	941	2132.838212740182	4
4	949	2151.954268436023	1
4	960	2175.804034837298	2
4	963	2180.444845152746	3
4	967	2190.28453943741	2
4	969	2201.54298104968	3
4	971	2203.319575982824	4
4	973	2205.190997088893	5
4	976	2208.498927757079	5
4	979	2210.034316746444	5
4	984	2218.906711902633	5
4	986	2223.371926576437	6
4	990	2224.556940303423	7
4	996	2242.344369738812	6
4	999	2245.484935265308	6
4	1001	2250.531878277508	7
4	1003	2250.551742008903	8
4	1009	2266.636445813813	5
4	1014	2289.324407733636	3
4	1016	2290.078142997807	4
4	1025	2316.717632951859	4
4	1029	2330.117065585829	5
4	1033	2334.275765462892	5
4	1035	2335.764180382884	6
4	1038	2341.256052364237	6
4	1042	2349.061370327206	7
4	1046	2360.153948864617	7
4	1048	2362.081870274283	8
4	1050	2371.529764969959	9
4	1052	2371.729467480541	10
4	1058	2382.54474823165	11
4	1060	2385.63005962926	12
4	1066	2392.703794730356	11
4	1069	2399.773344757494	11
4	1077	2409.851191240822	9
4	1081	2419.522145450243	8
4	1083	2420.667741845603	9
4	1089	2439.880233104867	8
4	1102	2470.080629290396	8
4	1109	2494.914627525382	7
4	1111	2495.254658704516	8
5	200	356.5813254123	1
5	206	362.521660136066	1
5	221	400.41477839754	1
5	223	400.989063535264	2
5	253	478.265615825747	1
5	262	498.462216923946	1
5	271	506.274101154578	1
5	284	543.861325420206	1
5	290	560.04194327393	1
5	293	586.69130007823	1
5	302	604.735245203313	1
5	305	605.155777816588	1
5	308	611.966540144215	1
5	310	614.333274271427	2
5	326	634.520473617099	1
5	331	641.589042052045	1
5	336	646.140911074391	1
5	342	669.370048180619	1
5	349	676.089550307947	1
5	365	715.645460968857	1
5	382	735.110182554916	1
5	386	739.538941641431	1
5	392	749.503152676415	1
5	397	770.914674302833	1
5	406	787.110693257764	1
5	421	811.167204134008	1
5	441	858.399036366918	1
5	448	867.088444874552	1
5	455	881.809084173332	1
5	470	913.018282051986	1
5	484	968.873454385473	1
5	491	1002.51878157638	1
5	494	1029.242586038515	1
5	498	1033.641092825581	2
5	501	1039.791114202476	2
5	515	1099.489056947826	1
5	521	1110.541336198966	1
5	523	1123.489536725241	2
5	544	1194.221935883371	1
5	554	1216.190203000085	1
5	558	1220.406967291869	2
5	561	1225.154657742576	2
5	572	1240.638952913731	1
5	580	1273.59487077883	1
5	586	1286.95495848667	1
5	591	1294.658978465549	1
5	601	1324.434619982293	1
5	603	1331.395607018128	2
5	614	1355.60478524757	1
5	619	1362.793164268834	1
5	626	1400.224333753695	1
5	647	1435.416693770565	1
5	657	1451.229788169275	1
5	666	1467.31286884861	1
5	675	1476.276237015556	1
5	679	1480.532117879222	1
5	691	1512.620878371213	1
5	700	1537.674109379175	1
5	722	1595.678269176451	1
5	731	1616.104092815001	1
5	743	1632.557720265987	1
5	748	1647.794972004337	1
5	758	1680.412202636077	1
5	768	1697.409528314427	1
5	777	1724.988876512068	1
5	779	1725.23706083006	2
5	783	1728.758263676249	1
5	795	1752.522744556116	1
5	805	1792.921853419995	1
5	808	1808.22155861746	1
5	814	1820.926754352695	1
5	819	1822.575584828858	1
5	843	1886.804862313205	1
5	845	1887.079489260505	2
5	852	1900.930256248978	1
5	856	1907.440788448399	2
5	865	1935.405271074888	1
5	904	2054.337250358517	1
5	908	2070.533405052142	1
5	911	2075.646756539144	1
5	913	2076.914782185927	2
5	915	2079.133756545541	3
5	917	2081.549383941071	4
5	919	2081.878085919375	5
5	926	2095.149543605838	5
5	931	2103.509230131846	3
5	935	2116.197895522037	4
5	947	2149.223735525897	1
5	951	2154.144608735228	2
5	955	2159.045226232794	1
5	957	2159.7706300103	2
5	982	2214.316810083452	1
5	988	2223.374868222643	2
5	1019	2312.67934090531	1
5	1021	2313.820088273974	2
5	1023	2314.04164474955	3
5	1040	2342.03911326403	1
5	1054	2372.772414252373	1
5	1056	2380.837896134975	2
5	1073	2403.964648935548	1
5	1087	2433.433079546767	1
5	1092	2447.93178109452	1
5	1096	2461.038193796627	1
5	1099	2467.308126790654	1
5	1104	2475.318419721545	1
5	1113	2497.177872175454	1
6	200	356.5813254123	0
6	201	356.622233581128	0
6	206	362.521660136066	0
6	213	382.819032119845	0
6	221	400.41477839754	0
6	223	400.989063535264	1
6	226	420.100090466776	1
6	227	425.14843943429	0
6	253	478.265615825747	0
6	254	482.887786134588	0
6	262	498.462216923946	0
6	263	499.678458784516	0
6	271	506.274101154578	0
6	272	515.726968881116	0
6	284	543.861325420206	0
6	285	547.843069248319	0
6	290	560.04194327393	0
6	291	563.96854427316	0
6	293	586.69130007823	0
6	296	590.634746566314	0
6	302	604.735245203313	0
6	303	605.00105581709	0
6	305	605.155777816588	0
6	306	606.489139930315	0
6	308	611.966540144215	0
6	310	614.333274271427	1
6	313	618.277240614869	1
6	316	618.880885328903	0
6	326	634.520473617099	0
6	327	636.048311598731	0
6	331	641.589042052045	0
6	334	645.051371752947	0
6	336	646.140911074391	0
6	337	650.690665090357	0
6	342	669.370048180619	0
6	343	670.195060720936	0
6	349	676.089550307947	0
6	350	686.180968284328	0
6	365	715.645460968857	0
6	366	719.449231187606	0
6	382	735.110182554916	0
6	383	738.281006355189	0
6	386	739.538941641431	0
6	387	741.985948593373	0
6	392	749.503152676415	0
6	393	750.504671478726	0
6	397	770.914674302833	0
6	398	776.743684073286	0
6	406	787.110693257764	0
6	407	790.813017094347	0
6	421	811.167204134008	0
6	422	813.500666946284	0
6	441	858.399036366918	0
6	444	863.544026529697	0
6	448	867.088444874552	0
6	453	881.697141739509	0
6	455	881.809084173332	0
6	458	885.906769355959	0
6	470	913.018282051986	0
6	471	920.529231004078	0
6	484	968.873454385473	0
6	485	973.595520331916	0
6	491	1002.51878157638	0
6	492	1007.201686275602	0
6	494	1029.242586038515	0
6	498	1033.641092825581	1
6	499	1035.325802672281	1
6	501	1039.791114202476	1
6	502	1040.101376837203	1
6	503	1040.875269105191	0
6	515	1099.489056947826	0
6	518	1104.638980738908	0
6	521	1110.541336198966	0
6	523	1123.489536725241	1
6	524	1128.894276602907	1
6	525	1130.457454176875	0
6	544	1194.221935883371	0
6	547	1196.243055229323	0
6	554	1216.190203000085	0
6	558	1220.406967291869	1
6	559	1223.124798678227	1
6	561	1225.154657742576	1
6	564	1235.206673035133	1
6	567	1236.896853751339	0
6	572	1240.638952913731	0
6	573	1245.361131227381	0
6	580	1273.59487077883	0
6	583	1279.773496411397	0
6	586	1286.95495848667	0
6	589	1294.503685145364	0
6	591	1294.658978465549	0
6	592	1294.993882097347	0
6	601	1324.434619982293	0
6	603	1331.395607018128	1
6	604	1332.692864752145	1
6	605	1338.546497586855	0
6	614	1355.60478524757	0
6	617	1362.06016777025	0
6	619	1362.793164268834	0
6	620	1366.809848015718	0
6	626	1400.224333753695	0
6	627	1400.657477217773	0
6	647	1435.416693770565	0
6	652	1439.451930431527	0
6	657	1451.229788169275	0
6	662	1462.428788322275	0
6	666	1467.31286884861	0
6	667	1469.440151664585	0
6	675	1476.276237015556	0
6	676	1478.645862827948	0
6	679	1480.532117879222	0
6	680	1481.479531339023	0
6	691	1512.620878371213	0
6	694	1514.592433867394	0
6	700	1537.674109379175	0
6	701	1541.577804504805	0
6	722	1595.678269176451	0
6	725	1597.776937441361	0
6	731	1616.104092815001	0
6	732	1616.369878728407	0
6	743	1632.557720265987	0
6	744	1634.592387667391	0
6	748	1647.794972004337	0
6	751	1656.525775920737	0
6	758	1680.412202636077	0
6	759	1681.554336578856	0
6	768	1697.409528314427	0
6	771	1703.617330031741	0
6	777	1724.988876512068	0
6	779	1725.23706083006	1
6	780	1726.106491190887	1
6	781	1726.332352693908	0
6	783	1728.758263676249	0
6	784	1730.386178367928	0
6	795	1752.522744556116	0
6	798	1752.920864904214	0
6	805	1792.921853419995	0
6	806	1795.461371837186	0
6	808	1808.22155861746	0
6	809	1808.273547469258	0
6	814	1820.926754352695	0
6	817	1821.45559896662	0
6	819	1822.575584828858	0
6	830	1848.416261607562	0
6	843	1886.804862313205	0
6	845	1887.079489260505	1
6	846	1887.814861011328	1
6	847	1892.389368200878	0
6	852	1900.930256248978	0
6	856	1907.440788448399	1
6	857	1914.35793594185	1
6	858	1915.348598202147	0
6	865	1935.405271074888	0
6	868	1942.150622166814	0
6	904	2054.337250358517	0
6	905	2056.603009695275	0
6	908	2070.533405052142	0
6	909	2071.933022398095	0
6	911	2075.646756539144	0
6	913	2076.914782185927	1
6	915	2079.133756545541	2
6	917	2081.549383941071	3
6	919	2081.878085919375	4
6	922	2085.616259246206	4
6	926	2095.149543605838	4
6	927	2095.691574737464	4
6	928	2098.683082994754	3
6	929	2100.904287064203	2
6	931	2103.509230131846	2
6	935	2116.197895522037	3
6	936	2118.670748164774	3
6	937	2121.012284632215	2
6	938	2121.741228712337	1
6	939	2121.800085991175	0
6	947	2149.223735525897	0
6	951	2154.144608735228	1
6	952	2155.511913189032	1
6	953	2155.799754269116	0
6	955	2159.045226232794	0
6	957	2159.7706300103	1
6	958	2171.733488811099	1
6	961	2179.76562941033	0
6	982	2214.316810083452	0
6	988	2223.374868222643	1
6	991	2228.011761533332	1
6	992	2233.209789118525	0
6	1019	2312.67934090531	0
6	1021	2313.820088273974	1
6	1023	2314.04164474955	2
6	1026	2326.447423097072	2
6	1027	2327.248524660463	1
6	1030	2332.83404633967	0
6	1040	2342.03911326403	0
6	1043	2349.211972664982	0
6	1054	2372.772414252373	0
6	1056	2380.837896134975	1
6	1061	2386.756217683686	1
6	1062	2387.497879093651	0
6	1073	2403.964648935548	0
6	1074	2407.678728709498	0
6	1087	2433.433079546767	0
6	1090	2445.155716951546	0
6	1092	2447.93178109452	0
6	1093	2450.911173491805	0
6	1096	2461.038193796627	0
6	1097	2462.643047621113	0
6	1099	2467.308126790654	0
6	1100	2467.467012674463	0
6	1104	2475.318419721545	0
6	1105	2480.15067658377	0
6	1113	2497.177872175454	0
7	200	356.5813254123	12
7	253	478.265615825747	13
7	262	498.462216923946	14
7	271	506.274101154578	15
7	326	634.520473617099	16
7	331	641.589042052045	17
7	336	646.140911074391	18
7	342	669.370048180619	19
7	349	676.089550307947	20
7	365	715.645460968857	21
7	382	735.110182554916	22
7	386	739.538941641431	23
7	392	749.503152676415	24
7	397	770.914674302833	25
7	406	787.110693257764	26
7	421	811.167204134008	27
7	441	858.399036366918	28
7	448	867.088444874552	29
7	455	881.809084173332	30
7	470	913.018282051986	31
7	484	968.873454385473	32
7	544	1194.221935883371	33
7	554	1216.190203000085	34
7	572	1240.638952913731	35
7	580	1273.59487077883	36
7	586	1286.95495848667	37
7	591	1294.658978465549	38
7	601	1324.434619982293	39
7	614	1355.60478524757	40
7	619	1362.793164268834	41
7	647	1435.416693770565	42
7	657	1451.229788169275	43
7	666	1467.31286884861	44
7	675	1476.276237015556	45
7	679	1480.532117879222	46
7	691	1512.620878371213	47
7	700	1537.674109379175	48
7	731	1616.104092815001	49
7	748	1647.794972004337	50
7	768	1697.409528314427	51
7	777	1724.988876512068	52
7	783	1728.758263676249	53
7	795	1752.522744556116	54
7	805	1792.921853419995	55
7	808	1808.22155861746	56
7	814	1820.926754352695	57
7	819	1822.575584828858	58
7	843	1886.804862313205	59
7	852	1900.930256248978	60
7	865	1935.405271074888	61
7	904	2054.337250358517	62
7	955	2159.045226232794	63
7	982	2214.316810083452	64
7	1019	2312.67934090531	65
7	1040	2342.03911326403	66
7	1054	2372.772414252373	67
7	1073	2403.964648935548	68
7	1087	2433.433079546767	69
7	1092	2447.93178109452	70
7	1096	2461.038193796627	71
7	1099	2467.308126790654	72
7	1104	2475.318419721545	73
7	1113	2497.177872175454	74
8	200	356.5813254123	0
8	206	362.521660136066	0
8	221	400.41477839754	0
8	226	420.100090466776	19.111026931512
8	253	478.265615825747	0
8	262	498.462216923946	0
8	271	506.274101154578	0
8	284	543.861325420206	0
8	290	560.04194327393	0
8	293	586.69130007823	0
8	302	604.735245203313	0
8	305	605.155777816588	0
8	308	611.966540144215	0
8	313	618.277240614869	3.943966343442
8	326	634.520473617099	0
8	331	641.589042052045	0
8	336	646.140911074391	0
8	342	669.370048180619	0
8	349	676.089550307947	0
8	365	715.645460968857	0
8	382	735.110182554916	0
8	386	739.538941641431	0
8	392	749.503152676415	0
8	397	770.914674302833	0
8	406	787.110693257764	0
8	421	811.167204134008	0
8	441	858.399036366918	0
8	448	867.088444874552	0
8	455	881.809084173332	0
8	470	913.018282051986	0
8	484	968.873454385473	0
8	491	1002.51878157638	0
8	494	1029.242586038515	0
8	499	1035.325802672281	1.6847098467
8	502	1040.101376837203	0.310262634727
8	515	1099.489056947826	0
8	521	1110.541336198966	0
8	524	1128.894276602907	5.404739877666
8	544	1194.221935883371	0
8	554	1216.190203000085	0
8	559	1223.124798678227	2.717831386358
8	564	1235.206673035133	10.052015292557
8	572	1240.638952913731	0
8	580	1273.59487077883	0
8	586	1286.95495848667	0
8	591	1294.658978465549	0
8	601	1324.434619982293	0
8	604	1332.692864752145	1.297257734017
8	614	1355.60478524757	0
8	619	1362.793164268834	0
8	626	1400.224333753695	0
8	647	1435.416693770565	0
8	657	1451.229788169275	0
8	666	1467.31286884861	0
8	675	1476.276237015556	0
8	679	1480.532117879222	0
8	691	1512.620878371213	0
8	700	1537.674109379175	0
8	722	1595.678269176451	0
8	731	1616.104092815001	0
8	743	1632.557720265987	0
8	748	1647.794972004337	0
8	758	1680.412202636077	0
8	768	1697.409528314427	0
8	777	1724.988876512068	0
8	780	1726.106491190887	0.869430360827
8	783	1728.758263676249	0
8	795	1752.522744556116	0
8	805	1792.921853419995	0
8	808	1808.22155861746	0
8	814	1820.926754352695	0
8	819	1822.575584828858	0
8	843	1886.804862313205	0
8	846	1887.814861011328	0.735371750823
8	852	1900.930256248978	0
8	857	1914.35793594185	6.917147493451
8	865	1935.405271074888	0
8	904	2054.337250358517	0
8	908	2070.533405052142	0
8	911	2075.646756539144	0
8	922	2085.616259246206	8.701477060279
8	927	2095.691574737464	16.557818191923
8	928	2098.683082994754	17.133699053683
8	929	2100.904287064203	19.026201144828
8	936	2118.670748164774	23.521204558936
8	937	2121.012284632215	17.503054500369
8	938	2121.741228712337	5.5433331903
8	947	2149.223735525897	0
8	952	2155.511913189032	1.367304453804
8	955	2159.045226232794	0
8	958	2171.733488811099	11.962858800799
8	982	2214.316810083452	0
8	991	2228.011761533332	4.636893310689
8	1019	2312.67934090531	0
8	1026	2326.447423097072	12.627334823098
8	1027	2327.248524660463	13.206879910913
8	1040	2342.03911326403	0
8	1054	2372.772414252373	0
8	1061	2386.756217683686	5.918321548711
8	1073	2403.964648935548	0
8	1087	2433.433079546767	0
8	1092	2447.93178109452	0
8	1096	2461.038193796627	0
8	1099	2467.308126790654	0
8	1104	2475.318419721545	0
8	1113	2497.177872175454	0
9	201	356.622233581128	16
9	213	382.819032119845	17
9	226	420.100090466776	18
9	227	425.14843943429	19
9	254	482.887786134588	20
9	263	499.678458784516	21
9	272	515.726968881116	22
9	285	547.843069248319	23
9	291	563.96854427316	24
9	296	590.634746566314	25
9	303	605.00105581709	26
9	306	606.489139930315	27
9	313	618.277240614869	28
9	316	618.880885328903	29
9	327	636.048311598731	30
9	334	645.051371752947	31
9	337	650.690665090357	32
9	343	670.195060720936	33
9	350	686.180968284328	34
9	366	719.449231187606	35
9	383	738.281006355189	36
9	387	741.985948593373	37
9	393	750.504671478726	38
9	398	776.743684073286	39
9	407	790.813017094347	40
9	422	813.500666946284	41
9	444	863.544026529697	42
9	453	881.697141739509	43
9	458	885.906769355959	44
9	471	920.529231004078	45
9	485	973.595520331916	46
9	492	1007.201686275602	47
9	499	1035.325802672281	48
9	502	1040.101376837203	49
9	503	1040.875269105191	50
9	518	1104.638980738908	51
9	524	1128.894276602907	52
9	525	1130.457454176875	53
9	547	1196.243055229323	54
9	559	1223.124798678227	55
9	564	1235.206673035133	56
9	567	1236.896853751339	57
9	573	1245.361131227381	58
9	583	1279.773496411397	59
9	589	1294.503685145364	60
9	592	1294.993882097347	61
9	604	1332.692864752145	62
9	605	1338.546497586855	63
9	617	1362.06016777025	64
9	620	1366.809848015718	65
9	627	1400.657477217773	66
9	652	1439.451930431527	67
9	662	1462.428788322275	68
9	667	1469.440151664585	69
9	676	1478.645862827948	70
9	680	1481.479531339023	71
9	694	1514.592433867394	72
9	701	1541.577804504805	73
9	725	1597.776937441361	74
9	732	1616.369878728407	75
9	744	1634.592387667391	76
9	751	1656.525775920737	77
9	759	1681.554336578856	78
9	771	1703.617330031741	79
9	780	1726.106491190887	80
9	781	1726.332352693908	81
9	784	1730.386178367928	82
9	798	1752.920864904214	83
9	806	1795.461371837186	84
9	809	1808.273547469258	85
9	817	1821.45559896662	86
9	830	1848.416261607562	87
9	846	1887.814861011328	88
9	847	1892.389368200878	89
9	857	1914.35793594185	90
9	858	1915.348598202147	91
9	868	1942.150622166814	92
9	905	2056.603009695275	93
9	909	2071.933022398095	94
9	922	2085.616259246206	95
9	927	2095.691574737464	96
9	928	2098.683082994754	97
9	929	2100.904287064203	98
9	936	2118.670748164774	99
9	937	2121.012284632215	100
9	938	2121.741228712337	101
9	939	2121.800085991175	102
9	952	2155.511913189032	103
9	953	2155.799754269116	104
9	958	2171.733488811099	105
9	961	2179.76562941033	106
9	991	2228.011761533332	107
9	992	2233.209789118525	108
9	1026	2326.447423097072	109
9	1027	2327.248524660463	110
9	1030	2332.83404633967	111
9	1043	2349.211972664982	112
9	1061	2386.756217683686	113
9	1062	2387.497879093651	114
9	1074	2407.678728709498	115
9	1090	2445.155716951546	116
9	1093	2450.911173491805	117
9	1097	2462.643047621113	118
9	1100	2467.467012674463	119
9	1105	2480.15067658377	120
10	201	356.622233581128	0.040908168828
10	213	382.819032119845	20.297371983779
10	226	420.100090466776	19.685312069236
10	227	425.14843943429	24.159375899026
10	254	482.887786134588	4.622170308841
10	263	499.678458784516	1.21624186057
10	272	515.726968881116	9.452867726538
10	285	547.843069248319	3.981743828113
10	291	563.96854427316	3.92660099923
10	296	590.634746566314	3.943446488084
10	303	605.00105581709	0.265810613777
10	306	606.489139930315	1.333362113727
10	313	618.277240614869	6.310700470654
10	316	618.880885328903	4.547611057476
10	327	636.048311598731	1.527837981632
10	334	645.051371752947	3.462329700902
10	337	650.690665090357	4.549754015966
10	343	670.195060720936	0.825012540317
10	350	686.180968284328	10.091417976381
10	366	719.449231187606	3.803770218749
10	383	738.281006355189	3.170823800273
10	387	741.985948593373	2.447006951942
10	393	750.504671478726	1.001518802311
10	398	776.743684073286	5.829009770453
10	407	790.813017094347	3.702323836583
10	422	813.500666946284	2.333462812276
10	444	863.544026529697	5.144990162779
10	453	881.697141739509	14.608696864957
10	458	885.906769355959	4.097685182627
10	471	920.529231004078	7.510948952092
10	485	973.595520331916	4.722065946443
10	492	1007.201686275602	4.682904699222
10	499	1035.325802672281	6.083216633766
10	502	1040.101376837203	6.460284011622
10	503	1040.875269105191	1.084154902715
10	518	1104.638980738908	5.149923791082
10	524	1128.894276602907	18.352940403941
10	525	1130.457454176875	6.967917451634
10	547	1196.243055229323	2.021119345952
10	559	1223.124798678227	6.934595678142
10	564	1235.206673035133	14.799705743264
10	567	1236.896853751339	11.742196008763
10	573	1245.361131227381	4.72217831365
10	583	1279.773496411397	6.178625632567
10	589	1294.503685145364	7.548726658694
10	592	1294.993882097347	0.334903631798
10	604	1332.692864752145	8.258244769852
10	605	1338.546497586855	7.150890568727
10	617	1362.06016777025	6.45538252268
10	620	1366.809848015718	4.016683746884
10	627	1400.657477217773	0.433143464078
10	652	1439.451930431527	4.035236660962
10	662	1462.428788322275	11.199000153
10	667	1469.440151664585	2.127282815975
10	676	1478.645862827948	2.369625812392
10	680	1481.479531339023	0.947413459801
10	694	1514.592433867394	1.971555496181
10	701	1541.577804504805	3.90369512563
10	725	1597.776937441361	2.09866826491
10	732	1616.369878728407	0.265785913406
10	744	1634.592387667391	2.034667401404
10	751	1656.525775920737	8.7308039164
10	759	1681.554336578856	1.142133942779
10	771	1703.617330031741	6.207801717314
10	780	1726.106491190887	1.117614678819
10	781	1726.332352693908	1.095291863848
10	784	1730.386178367928	1.627914691679
10	798	1752.920864904214	0.398120348098
10	806	1795.461371837186	2.539518417191
10	809	1808.273547469258	0.051988851798
10	817	1821.45559896662	0.528844613925
10	830	1848.416261607562	25.840676778704
10	846	1887.814861011328	1.009998698123
10	847	1892.389368200878	5.309878940373
10	857	1914.35793594185	13.427679692872
10	858	1915.348598202147	7.907809753748
10	868	1942.150622166814	6.745351091926
10	905	2056.603009695275	2.265759336758
10	909	2071.933022398095	1.399617345953
10	922	2085.616259246206	9.969502707062
10	927	2095.691574737464	18.776792551537
10	928	2098.683082994754	19.549326449213
10	929	2100.904287064203	19.354903123132
10	936	2118.670748164774	36.792662245399
10	937	2121.012284632215	25.862741026377
10	938	2121.741228712337	18.231998580491
10	939	2121.800085991175	5.602190469138
10	952	2155.511913189032	6.288177663135
10	953	2155.799754269116	1.655145533888
10	958	2171.733488811099	12.688262578305
10	961	2179.76562941033	19.99499940003
10	991	2228.011761533332	13.69495144988
10	992	2233.209789118525	9.834920895882
10	1026	2326.447423097072	13.768082191762
10	1027	2327.248524660463	13.428436386489
10	1030	2332.83404633967	18.79240159012
10	1043	2349.211972664982	7.172859400952
10	1061	2386.756217683686	13.983803431313
10	1062	2387.497879093651	6.659982958676
10	1074	2407.678728709498	3.71407977395
10	1090	2445.155716951546	11.722637404779
10	1093	2450.911173491805	2.979392397285
10	1097	2462.643047621113	1.604853824486
10	1100	2467.467012674463	0.158885883809
10	1105	2480.15067658377	4.832256862225
11	1114	2500	0.098
12	1114	2500	0.048

