version 2
run experiments_medium_game_mode1-1646-20230311-09:45:59-16929
attr configname experiments_medium_game_mode1
attr datetime 20230311-09:45:59
attr experiment experiments_medium_game_mode1
attr inifile omnetpp.ini
attr iterationvars "$0=7.5, $1=5, $2=0"
attr iterationvarsf 7.5,5,0-
attr measurement "$0=7.5, $1=5, $2=0"
attr network Network
attr processid 16929
attr repetition 26
attr replication #26
attr resultdir results
attr runnumber 1646
attr seedset 26
param *.boss.arrival_mean 20
param *.boss.service_mean 7.5
param *.minion.arrival_mean 10
param *.minion.service_mean 5
param *.player.recover_rate_x 0
param **.minion.arrival_distribution 0
param **.minion.service_distribution 0
param **.boss.arrival_distribution 0
param **.boss.service_distribution 0

scalar Network.player boss_throughput:mean 0.0464
attr source signal_boss_throughput
scalar Network.player boss_throughput:last 0.0464
attr source signal_boss_throughput
scalar Network.player boss_defeated_stat:count 105
attr source signal_boss_defeated
scalar Network.player boss_defeated_stat:mean 64
attr source signal_boss_defeated
scalar Network.player boss_waiting_time_stat:mean 7.0561161402889
attr source signal_boss_waiting_time
scalar Network.player boss_response_time_stat:mean 14.959952951135
attr source signal_boss_response_time
scalar Network.player minion_throughput:mean 0.0976
attr source signal_minion_throughput
scalar Network.player minion_throughput:last 0.0976
attr source signal_minion_throughput
scalar Network.player minion_recovered_stat:count 58
attr source signal_minion_recovered
scalar Network.player minion_recovered_stat:mean 35.5
attr source signal_minion_recovered
scalar Network.player minion_defeated_stat:count 214
attr source signal_minion_defeated
scalar Network.player minion_defeated_stat:mean 137.5
attr source signal_minion_defeated
scalar Network.player minion_waiting_time_stat:mean 132.42135270815
attr source signal_minion_waiting_time
scalar Network.player minion_response_time_stat:mean 138.37363991226
attr source signal_minion_response_time

