version 2
run experiments_medium_game_mode1-470-20230311-09:41:34-11038
attr configname experiments_medium_game_mode1
attr datetime 20230311-09:41:34
attr experiment experiments_medium_game_mode1
attr inifile omnetpp.ini
attr iterationvars "$0=5.5, $1=5, $2=100"
attr iterationvarsf 5.5,5,100-
attr measurement "$0=5.5, $1=5, $2=100"
attr network Network
attr processid 11038
attr repetition 20
attr replication #20
attr resultdir results
attr runnumber 470
attr seedset 20
param *.boss.arrival_mean 20
param *.boss.service_mean 5.5
param *.minion.arrival_mean 10
param *.minion.service_mean 5
param *.player.recover_rate_x 100
param **.minion.arrival_distribution 0
param **.minion.service_distribution 0
param **.boss.arrival_distribution 0
param **.boss.service_distribution 0

vector 0 Network.player minion_jobs_number_stat:vector ETV
attr source signal_minion_jobs_number
vector 1 Network.player minion_jobs_queue_number_stat:vector ETV
attr source signal_minion_jobs_queue_number
vector 2 Network.player minion_defeated_stat:vector ETV
attr source signal_minion_defeated
vector 3 Network.player minion_response_time_stat:vector ETV
attr source signal_minion_response_time
vector 4 Network.player minion_waiting_time_stat:vector ETV
attr source signal_minion_waiting_time
vector 5 Network.player boss_jobs_number_stat:vector ETV
attr source signal_boss_jobs_number
vector 6 Network.player boss_jobs_queue_number_stat:vector ETV
attr source signal_boss_jobs_queue_number
vector 7 Network.player boss_waiting_time_stat:vector ETV
attr source signal_boss_waiting_time
vector 8 Network.player boss_defeated_stat:vector ETV
attr source signal_boss_defeated
vector 9 Network.player boss_response_time_stat:vector ETV
attr source signal_boss_response_time
vector 10 Network.player minion_recovered_stat:vector ETV
attr source signal_minion_recovered
vector 11 Network.player minion_throughput:vector ETV
attr source signal_minion_throughput
vector 12 Network.player boss_throughput:vector ETV
attr source signal_boss_throughput
0	125	351.622388343199	4
0	131	371.419553612551	1
0	134	388.135003504805	1
0	137	394.479227275449	1
0	140	399.146306525564	1
0	143	413.988822543821	1
0	148	430.577270026162	1
0	155	450.445530522083	1
0	157	450.56620835316	2
0	164	475.408713424463	1
0	172	486.437007536756	1
0	175	498.555997115429	2
0	177	501.988285982108	3
0	180	509.703364310223	3
0	185	513.600066459183	4
0	187	514.15713359022	5
0	192	519.564998877551	6
0	197	533.215908580677	4
0	203	539.878935897855	4
0	205	548.938819146463	5
0	215	577.529618033691	4
0	217	579.557974420931	5
0	226	592.731171202488	2
0	228	593.55058864071	3
0	237	630.689373670167	2
0	240	633.071072181035	3
0	243	641.718310486527	3
0	245	648.166646602557	4
0	249	655.40025492798	3
0	251	656.341103306491	4
0	253	662.230043902784	5
0	255	665.788337476499	6
0	264	685.86729107709	3
0	266	686.196119499708	4
0	268	695.910049851226	5
0	271	707.471093698592	5
0	277	715.006932308413	2
0	281	722.581718362881	1
0	283	723.270042358771	2
0	287	734.751374974229	1
0	290	741.211472674072	1
0	293	753.920601265808	1
0	295	756.594634923728	2
0	299	764.623435358197	3
0	301	772.160604516826	4
0	303	774.071990694695	5
0	308	775.152744174367	6
0	313	785.307600720807	7
0	315	786.942921322346	8
0	325	797.09977832489	5
0	335	826.761855315949	1
0	337	828.290630599038	2
0	344	864.900909431776	1
0	347	869.296317033724	1
0	349	870.095271929389	2
0	356	877.303564958754	1
0	362	894.524278214403	1
0	366	897.031583970565	2
0	370	897.990713342699	3
0	383	910.282773328017	4
0	386	922.829214870719	5
0	389	928.517990817427	6
0	395	937.661194746362	4
0	397	938.921492845077	5
0	399	940.807101129187	6
0	401	940.888475363258	7
0	409	953.439267330921	5
0	414	968.490972588345	3
0	416	971.503727450048	4
0	421	984.186528692564	2
0	430	1005.612945911564	2
0	435	1024.854099848457	3
0	441	1030.420885112026	3
0	443	1030.957897223123	4
0	453	1055.219178313221	5
0	459	1059.382982854219	6
0	461	1059.677862170415	7
0	465	1072.85833096112	6
0	468	1086.246841942987	6
0	470	1089.551555733131	7
0	475	1101.151465513359	5
0	478	1106.996923130926	5
0	494	1137.352345430937	1
0	496	1141.436760111395	2
0	502	1151.179425746158	2
0	506	1152.175517040964	3
0	518	1187.17272262204	1
0	521	1189.424970695631	1
0	523	1192.533627381932	2
0	529	1203.302241465891	2
0	537	1220.812244237658	1
0	542	1234.347939546879	1
0	554	1269.088791886225	1
0	557	1272.714705661772	1
0	560	1283.334619908255	1
0	562	1288.530882385772	2
0	568	1297.094530094093	1
0	572	1311.989261226055	1
0	578	1336.754811539309	1
0	581	1339.732416055611	1
0	584	1364.47486934779	1
0	591	1389.302338466047	1
0	593	1389.356319300211	2
0	600	1394.566364497482	3
0	604	1403.518675238298	4
0	606	1404.694806600534	5
0	608	1404.852961057188	6
0	618	1430.727179762105	3
0	623	1433.091413502472	3
0	627	1437.020347705088	4
0	634	1449.90412542955	5
0	638	1465.955019363685	6
0	640	1467.506373875806	7
0	642	1469.215140595482	8
0	646	1481.167644321588	9
0	648	1490.291597345038	10
0	650	1495.266496138839	11
0	664	1537.269121263159	5
0	669	1546.184688885546	6
0	673	1551.133470663509	5
0	678	1574.451870873792	3
0	680	1576.661279157441	4
0	682	1582.588381782212	5
0	689	1615.450621114488	1
0	695	1638.486088535091	1
0	698	1648.236390267948	1
0	703	1656.34415129383	1
0	716	1672.905130772566	1
0	719	1691.838251683883	1
0	729	1729.356735850355	1
0	732	1735.632081704876	2
0	737	1750.571729774423	1
0	741	1752.749879502452	2
0	743	1754.497168605077	3
0	747	1758.131037364403	3
0	749	1763.258324434591	4
0	756	1772.330127963047	5
0	764	1794.719592688274	6
0	772	1815.399537977048	7
0	775	1819.198265695798	8
0	779	1853.15170595002	9
0	784	1857.616409104527	10
0	786	1860.184358818221	11
0	790	1866.431420662804	11
0	794	1881.681538224715	10
0	796	1885.810627302625	11
0	800	1889.141712582087	10
0	804	1903.688043812331	9
0	808	1917.695757394173	8
0	813	1922.988217533722	6
0	818	1927.579023849307	4
0	824	1938.968957736981	1
0	826	1939.109767001134	2
0	830	1946.899267347758	1
0	836	1964.178587675239	1
0	847	1991.361850611606	1
0	849	1992.765572211126	2
0	852	1996.788229995003	3
0	856	2002.047557914531	2
0	868	2033.308601769378	3
0	870	2035.061598774934	4
0	879	2061.650522616734	5
0	884	2075.881688337426	4
0	891	2081.250934196827	5
0	895	2092.21891531825	5
0	897	2093.546632012052	6
0	903	2110.232550114886	6
0	908	2125.025042442512	4
0	911	2135.780505177154	4
0	915	2143.432189153927	3
0	918	2147.368887047278	3
0	926	2158.697907223824	3
0	932	2169.793596511885	4
0	935	2177.966476356023	4
0	942	2192.237003296487	3
0	944	2192.526528785365	4
0	946	2193.89219335034	5
0	952	2198.863269161615	4
0	954	2199.80173145826	5
0	959	2207.823081186459	6
0	961	2210.260514635551	7
0	963	2211.473737698128	8
0	968	2229.269808158822	7
0	974	2241.463295715837	4
0	977	2243.450415741441	4
0	981	2251.410543237281	5
0	983	2252.303868267804	6
0	989	2261.212790082337	4
0	991	2263.19599754186	5
0	994	2264.838738721981	5
0	996	2269.089093589709	6
0	998	2270.340727560053	7
0	1005	2275.468221962577	8
0	1008	2287.788219280594	9
0	1010	2293.884694717913	10
0	1014	2307.12418334048	9
0	1019	2317.934288927024	7
0	1022	2319.079817402268	7
0	1033	2340.056222556711	2
0	1035	2342.415901409725	3
0	1037	2342.550957990015	4
0	1040	2348.3582601627	4
0	1045	2362.338393119318	2
0	1047	2363.923299114632	3
0	1053	2376.652841269851	3
0	1063	2402.150942015303	2
0	1065	2404.652442841859	3
0	1070	2434.371982535805	1
0	1075	2448.40079655025	1
0	1077	2451.235542157211	2
0	1081	2453.828115139602	3
0	1085	2454.607073960215	4
0	1087	2456.032009824172	5
0	1091	2460.057925107308	6
0	1093	2461.573896518026	7
0	1096	2468.858740301552	8
0	1098	2470.076086231798	9
1	125	351.622388343199	3
1	126	355.889422575673	3
1	127	357.29705338032	2
1	128	361.415543782281	1
1	129	365.352906300995	0
1	131	371.419553612551	0
1	132	374.474946687421	0
1	134	388.135003504805	0
1	135	388.915755959811	0
1	137	394.479227275449	0
1	138	394.982373773777	0
1	140	399.146306525564	0
1	141	402.125766371229	0
1	143	413.988822543821	0
1	144	421.563051813745	0
1	148	430.577270026162	0
1	153	436.9549067867	0
1	155	450.445530522083	0
1	157	450.56620835316	1
1	158	458.936979688226	1
1	159	465.257201073038	0
1	164	475.408713424463	0
1	165	477.915640627495	0
1	172	486.437007536756	0
1	175	498.555997115429	1
1	177	501.988285982108	2
1	178	502.730259906355	2
1	180	509.703364310223	2
1	185	513.600066459183	3
1	187	514.15713359022	4
1	192	519.564998877551	5
1	193	520.218283260588	5
1	194	527.064433600162	4
1	195	529.771437420847	3
1	197	533.215908580677	3
1	201	538.480897218698	3
1	203	539.878935897855	3
1	205	548.938819146463	4
1	206	549.69974819548	4
1	210	570.714953152733	3
1	215	577.529618033691	3
1	217	579.557974420931	4
1	218	579.92535142582	4
1	219	584.005726747447	3
1	220	585.974238669745	2
1	224	592.101851721523	1
1	226	592.731171202488	1
1	228	593.55058864071	2
1	232	622.377406389231	2
1	233	623.58508447863	1
1	237	630.689373670167	1
1	240	633.071072181035	2
1	241	636.602666812209	2
1	243	641.718310486527	2
1	245	648.166646602557	3
1	246	649.375047919761	3
1	247	649.542384431605	2
1	249	655.40025492798	2
1	251	656.341103306491	3
1	253	662.230043902784	4
1	255	665.788337476499	5
1	256	671.978537527916	5
1	260	682.862063562508	4
1	261	682.8974792608	3
1	262	684.907376962016	2
1	264	685.86729107709	2
1	266	686.196119499708	3
1	268	695.910049851226	4
1	269	700.288449751664	4
1	271	707.471093698592	4
1	272	707.746155690858	4
1	273	709.307360419877	3
1	274	711.995863486735	2
1	275	712.536976868862	1
1	277	715.006932308413	1
1	278	716.127752428333	1
1	279	717.153069566349	0
1	281	722.581718362881	0
1	283	723.270042358771	1
1	284	729.65754988774	1
1	285	730.76975117073	0
1	287	734.751374974229	0
1	288	734.810648795173	0
1	290	741.211472674072	0
1	291	745.542895668241	0
1	293	753.920601265808	0
1	295	756.594634923728	1
1	299	764.623435358197	2
1	301	772.160604516826	3
1	303	774.071990694695	4
1	308	775.152744174367	5
1	313	785.307600720807	6
1	315	786.942921322346	7
1	317	787.575262481285	7
1	318	789.580144050639	6
1	319	790.83603578962	5
1	323	792.876436835408	4
1	325	797.09977832489	4
1	326	797.397525357427	4
1	327	797.960418276555	3
1	328	804.235511874963	2
1	329	804.851316674652	1
1	330	807.979811616971	0
1	335	826.761855315949	0
1	337	828.290630599038	1
1	338	828.470610780022	1
1	339	839.123456773396	0
1	344	864.900909431776	0
1	345	868.546969432128	0
1	347	869.296317033724	0
1	349	870.095271929389	1
1	353	875.084424237456	1
1	354	875.720809922859	0
1	356	877.303564958754	0
1	357	877.497390606677	0
1	362	894.524278214403	0
1	366	897.031583970565	1
1	370	897.990713342699	2
1	383	910.282773328017	3
1	386	922.829214870719	4
1	389	928.517990817427	5
1	391	933.756858137319	5
1	392	934.844192419041	4
1	393	936.943587624638	3
1	395	937.661194746362	3
1	397	938.921492845077	4
1	399	940.807101129187	5
1	401	940.888475363258	6
1	402	941.760892199633	6
1	403	942.615799926194	5
1	404	942.930271233463	4
1	409	953.439267330921	4
1	410	953.579348104325	4
1	411	955.200023327725	3
1	412	966.209476849526	2
1	414	968.490972588345	2
1	416	971.503727450048	3
1	417	973.353149463246	3
1	418	976.275468014749	2
1	419	977.133662309714	1
1	421	984.186528692564	1
1	425	993.27402094816	1
1	430	1005.612945911564	1
1	435	1024.854099848457	2
1	439	1027.625879908616	2
1	441	1030.420885112026	2
1	443	1030.957897223123	3
1	453	1055.219178313221	4
1	459	1059.382982854219	5
1	461	1059.677862170415	6
1	462	1060.286374374897	6
1	463	1062.64924324595	5
1	465	1072.85833096112	5
1	466	1073.818789232987	5
1	468	1086.246841942987	5
1	470	1089.551555733131	6
1	471	1092.826845774011	6
1	472	1098.818431720461	5
1	473	1098.884666926419	4
1	475	1101.151465513359	4
1	476	1105.630592484349	4
1	478	1106.996923130926	4
1	479	1112.373738684284	4
1	480	1112.485097256926	3
1	481	1114.066433318145	2
1	482	1115.888180930416	1
1	483	1117.421045375905	0
1	494	1137.352345430937	0
1	496	1141.436760111395	1
1	500	1149.790261706411	1
1	502	1151.179425746158	1
1	506	1152.175517040964	2
1	511	1161.600838434779	2
1	512	1168.67195617248	1
1	513	1169.024845167979	0
1	518	1187.17272262204	0
1	519	1187.207610320482	0
1	521	1189.424970695631	0
1	523	1192.533627381932	1
1	524	1193.714408270758	1
1	529	1203.302241465891	1
1	530	1208.207225803297	1
1	531	1208.715201615444	0
1	537	1220.812244237658	0
1	540	1232.124099003621	0
1	542	1234.347939546879	0
1	546	1251.050564721623	0
1	554	1269.088791886225	0
1	555	1270.052367004775	0
1	557	1272.714705661772	0
1	558	1283.080649893133	0
1	560	1283.334619908255	0
1	562	1288.530882385772	1
1	563	1289.902313958206	1
1	564	1291.330512334386	0
1	568	1297.094530094093	0
1	570	1299.965027571469	0
1	572	1311.989261226055	0
1	573	1314.828460585532	0
1	578	1336.754811539309	0
1	579	1336.818146416603	0
1	581	1339.732416055611	0
1	582	1341.212846668686	0
1	584	1364.47486934779	0
1	585	1365.940075098897	0
1	591	1389.302338466047	0
1	593	1389.356319300211	1
1	600	1394.566364497482	2
1	604	1403.518675238298	3
1	606	1404.694806600534	4
1	608	1404.852961057188	5
1	613	1419.931644213196	5
1	614	1422.83313847726	4
1	615	1429.729820735775	3
1	616	1430.464154722662	2
1	618	1430.727179762105	2
1	619	1431.197022027333	2
1	623	1433.091413502472	2
1	627	1437.020347705088	3
1	634	1449.90412542955	4
1	638	1465.955019363685	5
1	640	1467.506373875806	6
1	642	1469.215140595482	7
1	646	1481.167644321588	8
1	648	1490.291597345038	9
1	650	1495.266496138839	10
1	653	1505.270899442172	10
1	654	1505.650942744461	9
1	655	1507.386910236665	8
1	656	1507.517200540749	7
1	657	1510.746060957724	6
1	658	1517.823535113548	5
1	659	1524.470037994722	4
1	664	1537.269121263159	4
1	669	1546.184688885546	5
1	670	1549.67337140783	5
1	671	1550.861053903881	4
1	673	1551.133470663509	4
1	674	1563.625233780354	4
1	675	1565.091602336673	3
1	676	1566.774651004903	2
1	678	1574.451870873792	2
1	680	1576.661279157441	3
1	682	1582.588381782212	4
1	683	1594.771427594705	4
1	684	1597.076038516028	3
1	685	1602.492251077542	2
1	686	1603.199133451313	1
1	687	1607.20133972243	0
1	689	1615.450621114488	0
1	690	1618.955098476476	0
1	695	1638.486088535091	0
1	696	1641.075817874854	0
1	698	1648.236390267948	0
1	699	1649.850322676057	0
1	703	1656.34415129383	0
1	705	1656.80535862849	0
1	716	1672.905130772566	0
1	717	1685.033543363803	0
1	719	1691.838251683883	0
1	720	1697.064785785501	0
1	729	1729.356735850355	0
1	732	1735.632081704876	1
1	734	1736.62297306184	1
1	735	1737.186318771013	0
1	737	1750.571729774423	0
1	741	1752.749879502452	1
1	743	1754.497168605077	2
1	745	1756.167398191179	2
1	747	1758.131037364403	2
1	749	1763.258324434591	3
1	756	1772.330127963047	4
1	764	1794.719592688274	5
1	772	1815.399537977048	6
1	775	1819.198265695798	7
1	779	1853.15170595002	8
1	784	1857.616409104527	9
1	786	1860.184358818221	10
1	788	1863.528358704456	10
1	790	1866.431420662804	10
1	791	1869.51602981488	10
1	792	1874.268239275564	9
1	794	1881.681538224715	9
1	796	1885.810627302625	10
1	797	1888.714388602722	10
1	798	1889.034255181177	9
1	800	1889.141712582087	9
1	801	1889.467832967486	9
1	802	1895.753679772251	8
1	804	1903.688043812331	8
1	805	1905.002979377235	8
1	806	1909.196113869984	7
1	808	1917.695757394173	7
1	809	1918.167561532391	7
1	810	1919.573073559328	6
1	811	1921.607052008876	5
1	813	1922.988217533722	5
1	814	1923.331756548667	5
1	815	1925.807793016619	4
1	816	1926.219892063986	3
1	818	1927.579023849307	3
1	819	1929.416012701167	3
1	820	1930.936685259065	2
1	821	1937.482887270986	1
1	822	1938.329092923534	0
1	824	1938.968957736981	0
1	826	1939.109767001134	1
1	827	1941.526814918212	1
1	828	1942.791190628642	0
1	830	1946.899267347758	0
1	831	1953.375180912889	0
1	836	1964.178587675239	0
1	837	1964.863620261164	0
1	847	1991.361850611606	0
1	849	1992.765572211126	1
1	852	1996.788229995003	2
1	853	1998.92365562773	2
1	854	2000.137893844767	1
1	856	2002.047557914531	1
1	868	2033.308601769378	2
1	870	2035.061598774934	3
1	879	2061.650522616734	4
1	881	2070.165531705836	4
1	882	2074.722874289221	3
1	884	2075.881688337426	3
1	891	2081.250934196827	4
1	893	2087.395971995172	4
1	895	2092.21891531825	4
1	897	2093.546632012052	5
1	898	2098.266184505769	5
1	903	2110.232550114886	5
1	904	2112.123101106226	5
1	905	2112.834386747637	4
1	906	2120.050133099356	3
1	908	2125.025042442512	3
1	909	2135.122310814341	3
1	911	2135.780505177154	3
1	912	2137.28810402041	3
1	913	2137.525567955171	2
1	915	2143.432189153927	2
1	916	2145.982287925585	2
1	918	2147.368887047278	2
1	919	2148.991707413655	2
1	926	2158.697907223824	2
1	932	2169.793596511885	3
1	933	2173.588044253367	3
1	935	2177.966476356023	3
1	936	2178.809087958525	3
1	940	2189.219703062724	2
1	942	2192.237003296487	2
1	944	2192.526528785365	3
1	946	2193.89219335034	4
1	947	2196.288941586629	4
1	948	2196.940313442354	3
1	952	2198.863269161615	3
1	954	2199.80173145826	4
1	959	2207.823081186459	5
1	961	2210.260514635551	6
1	963	2211.473737698128	7
1	965	2220.14839133849	7
1	966	2223.315960474654	6
1	968	2229.269808158822	6
1	969	2232.937601429374	6
1	970	2237.329800439459	5
1	971	2237.844422296199	4
1	972	2238.262974294641	3
1	974	2241.463295715837	3
1	975	2242.19602241297	3
1	977	2243.450415741441	3
1	981	2251.410543237281	4
1	983	2252.303868267804	5
1	985	2256.982027950105	5
1	986	2257.207393957349	4
1	987	2259.856081317753	3
1	989	2261.212790082337	3
1	991	2263.19599754186	4
1	992	2263.984559188895	4
1	994	2264.838738721981	4
1	996	2269.089093589709	5
1	998	2270.340727560053	6
1	1005	2275.468221962577	7
1	1008	2287.788219280594	8
1	1010	2293.884694717913	9
1	1011	2295.059009782718	9
1	1012	2298.81980031708	8
1	1014	2307.12418334048	8
1	1015	2307.576722298638	8
1	1016	2308.276089721474	7
1	1017	2308.979227328806	6
1	1019	2317.934288927024	6
1	1020	2317.957931152507	6
1	1022	2319.079817402268	6
1	1023	2323.41752626554	6
1	1024	2325.08373876035	5
1	1025	2326.040563582804	4
1	1026	2326.354643139211	3
1	1027	2328.708276796321	2
1	1031	2335.502417176077	1
1	1033	2340.056222556711	1
1	1035	2342.415901409725	2
1	1037	2342.550957990015	3
1	1038	2344.391408999662	3
1	1040	2348.3582601627	3
1	1041	2350.16538832925	3
1	1042	2352.588016924559	2
1	1043	2355.708219538706	1
1	1045	2362.338393119318	1
1	1047	2363.923299114632	2
1	1048	2364.796681765384	2
1	1053	2376.652841269851	2
1	1054	2385.482115952555	2
1	1058	2399.498485711987	1
1	1063	2402.150942015303	1
1	1065	2404.652442841859	2
1	1066	2404.923479362072	2
1	1067	2419.818449275734	1
1	1068	2420.387754439505	0
1	1070	2434.371982535805	0
1	1071	2436.333355095572	0
1	1075	2448.40079655025	0
1	1077	2451.235542157211	1
1	1081	2453.828115139602	2
1	1085	2454.607073960215	3
1	1087	2456.032009824172	4
1	1091	2460.057925107308	5
1	1093	2461.573896518026	6
1	1096	2468.858740301552	7
1	1098	2470.076086231798	8
1	1102	2482.905763758695	8
2	126	355.889422575673	28
2	127	357.29705338032	29
2	128	361.415543782281	30
2	129	365.352906300995	31
2	132	374.474946687421	32
2	135	388.915755959811	33
2	138	394.982373773777	34
2	141	402.125766371229	35
2	144	421.563051813745	36
2	153	436.9549067867	37
2	158	458.936979688226	38
2	159	465.257201073038	39
2	165	477.915640627495	40
2	178	502.730259906355	41
2	193	520.218283260588	42
2	194	527.064433600162	43
2	195	529.771437420847	44
2	201	538.480897218698	45
2	206	549.69974819548	46
2	210	570.714953152733	47
2	218	579.92535142582	48
2	219	584.005726747447	49
2	220	585.974238669745	50
2	224	592.101851721523	51
2	232	622.377406389231	52
2	233	623.58508447863	53
2	241	636.602666812209	54
2	246	649.375047919761	55
2	247	649.542384431605	56
2	256	671.978537527916	57
2	260	682.862063562508	58
2	261	682.8974792608	59
2	262	684.907376962016	60
2	269	700.288449751664	61
2	272	707.746155690858	62
2	273	709.307360419877	63
2	274	711.995863486735	64
2	275	712.536976868862	65
2	278	716.127752428333	66
2	279	717.153069566349	67
2	284	729.65754988774	68
2	285	730.76975117073	69
2	288	734.810648795173	70
2	291	745.542895668241	71
2	317	787.575262481285	72
2	318	789.580144050639	73
2	319	790.83603578962	74
2	323	792.876436835408	75
2	326	797.397525357427	76
2	327	797.960418276555	77
2	328	804.235511874963	78
2	329	804.851316674652	79
2	330	807.979811616971	80
2	338	828.470610780022	81
2	339	839.123456773396	82
2	345	868.546969432128	83
2	353	875.084424237456	84
2	354	875.720809922859	85
2	357	877.497390606677	86
2	391	933.756858137319	87
2	392	934.844192419041	88
2	393	936.943587624638	89
2	402	941.760892199633	90
2	403	942.615799926194	91
2	404	942.930271233463	92
2	410	953.579348104325	93
2	411	955.200023327725	94
2	412	966.209476849526	95
2	417	973.353149463246	96
2	418	976.275468014749	97
2	419	977.133662309714	98
2	425	993.27402094816	99
2	439	1027.625879908616	100
2	462	1060.286374374897	101
2	463	1062.64924324595	102
2	466	1073.818789232987	103
2	471	1092.826845774011	104
2	472	1098.818431720461	105
2	473	1098.884666926419	106
2	476	1105.630592484349	107
2	479	1112.373738684284	108
2	480	1112.485097256926	109
2	481	1114.066433318145	110
2	482	1115.888180930416	111
2	483	1117.421045375905	112
2	500	1149.790261706411	113
2	511	1161.600838434779	114
2	512	1168.67195617248	115
2	513	1169.024845167979	116
2	519	1187.207610320482	117
2	524	1193.714408270758	118
2	530	1208.207225803297	119
2	531	1208.715201615444	120
2	540	1232.124099003621	121
2	546	1251.050564721623	122
2	555	1270.052367004775	123
2	558	1283.080649893133	124
2	563	1289.902313958206	125
2	564	1291.330512334386	126
2	570	1299.965027571469	127
2	573	1314.828460585532	128
2	579	1336.818146416603	129
2	582	1341.212846668686	130
2	585	1365.940075098897	131
2	613	1419.931644213196	132
2	614	1422.83313847726	133
2	615	1429.729820735775	134
2	616	1430.464154722662	135
2	619	1431.197022027333	136
2	653	1505.270899442172	137
2	654	1505.650942744461	138
2	655	1507.386910236665	139
2	656	1507.517200540749	140
2	657	1510.746060957724	141
2	658	1517.823535113548	142
2	659	1524.470037994722	143
2	670	1549.67337140783	144
2	671	1550.861053903881	145
2	674	1563.625233780354	146
2	675	1565.091602336673	147
2	676	1566.774651004903	148
2	683	1594.771427594705	149
2	684	1597.076038516028	150
2	685	1602.492251077542	151
2	686	1603.199133451313	152
2	687	1607.20133972243	153
2	690	1618.955098476476	154
2	696	1641.075817874854	155
2	699	1649.850322676057	156
2	705	1656.80535862849	157
2	717	1685.033543363803	158
2	720	1697.064785785501	159
2	734	1736.62297306184	160
2	735	1737.186318771013	161
2	745	1756.167398191179	162
2	788	1863.528358704456	163
2	791	1869.51602981488	164
2	792	1874.268239275564	165
2	797	1888.714388602722	166
2	798	1889.034255181177	167
2	801	1889.467832967486	168
2	802	1895.753679772251	169
2	805	1905.002979377235	170
2	806	1909.196113869984	171
2	809	1918.167561532391	172
2	810	1919.573073559328	173
2	811	1921.607052008876	174
2	814	1923.331756548667	175
2	815	1925.807793016619	176
2	816	1926.219892063986	177
2	819	1929.416012701167	178
2	820	1930.936685259065	179
2	821	1937.482887270986	180
2	822	1938.329092923534	181
2	827	1941.526814918212	182
2	828	1942.791190628642	183
2	831	1953.375180912889	184
2	837	1964.863620261164	185
2	853	1998.92365562773	186
2	854	2000.137893844767	187
2	881	2070.165531705836	188
2	882	2074.722874289221	189
2	893	2087.395971995172	190
2	898	2098.266184505769	191
2	904	2112.123101106226	192
2	905	2112.834386747637	193
2	906	2120.050133099356	194
2	909	2135.122310814341	195
2	912	2137.28810402041	196
2	913	2137.525567955171	197
2	916	2145.982287925585	198
2	919	2148.991707413655	199
2	933	2173.588044253367	200
2	936	2178.809087958525	201
2	940	2189.219703062724	202
2	947	2196.288941586629	203
2	948	2196.940313442354	204
2	965	2220.14839133849	205
2	966	2223.315960474654	206
2	969	2232.937601429374	207
2	970	2237.329800439459	208
2	971	2237.844422296199	209
2	972	2238.262974294641	210
2	975	2242.19602241297	211
2	985	2256.982027950105	212
2	986	2257.207393957349	213
2	987	2259.856081317753	214
2	992	2263.984559188895	215
2	1011	2295.059009782718	216
2	1012	2298.81980031708	217
2	1015	2307.576722298638	218
2	1016	2308.276089721474	219
2	1017	2308.979227328806	220
2	1020	2317.957931152507	221
2	1023	2323.41752626554	222
2	1024	2325.08373876035	223
2	1025	2326.040563582804	224
2	1026	2326.354643139211	225
2	1027	2328.708276796321	226
2	1031	2335.502417176077	227
2	1038	2344.391408999662	228
2	1041	2350.16538832925	229
2	1042	2352.588016924559	230
2	1043	2355.708219538706	231
2	1048	2364.796681765384	232
2	1054	2385.482115952555	233
2	1058	2399.498485711987	234
2	1066	2404.923479362072	235
2	1067	2419.818449275734	236
2	1068	2420.387754439505	237
2	1071	2436.333355095572	238
2	1102	2482.905763758695	239
3	126	355.889422575673	27.949874557125
3	127	357.29705338032	10.662320563521
3	128	361.415543782281	12.026142734027
3	129	365.352906300995	13.730517957796
3	132	374.474946687421	3.05539307487
3	135	388.915755959811	0.780752455006
3	138	394.982373773777	0.503146498328
3	141	402.125766371229	2.979459845665
3	144	421.563051813745	7.574229269924
3	153	436.9549067867	6.377636760538
3	158	458.936979688226	8.491449166143
3	159	465.257201073038	14.690992719878
3	165	477.915640627495	2.506927203032
3	178	502.730259906355	16.293252369599
3	193	520.218283260588	10.514918950365
3	194	527.064433600162	15.063409608
3	195	529.771437420847	16.171370961664
3	201	538.480897218698	23.601311109701
3	206	549.69974819548	30.134749317929
3	210	570.714953152733	35.584733534155
3	218	579.92535142582	30.986532279357
3	219	584.005726747447	29.784508818202
3	220	585.974238669745	15.206455278021
3	224	592.101851721523	12.543877300592
3	232	622.377406389231	29.646235186743
3	233	623.58508447863	30.03449583792
3	241	636.602666812209	8.579950572716
3	246	649.375047919761	18.685674249594
3	247	649.542384431605	16.47131225057
3	256	671.978537527916	30.260227041389
3	260	682.862063562508	27.461808634528
3	261	682.8974792608	26.556375954309
3	262	684.907376962016	22.677333059232
3	269	700.288449751664	34.500112275165
3	272	707.746155690858	32.971079342665
3	273	709.307360419877	23.440069342787
3	274	711.995863486735	25.799743987027
3	275	712.536976868862	16.626927017636
3	278	716.127752428333	8.656658729741
3	279	717.153069566349	2.146137257936
3	284	729.65754988774	7.075831524859
3	285	730.76975117073	7.499708811959
3	288	734.810648795173	0.059273820944
3	291	745.542895668241	4.331422994169
3	317	787.575262481285	22.951827123088
3	318	789.580144050639	17.419539533813
3	319	790.83603578962	16.764045094925
3	323	792.876436835408	17.723692661041
3	326	797.397525357427	14.272673531129
3	327	797.960418276555	12.652817555748
3	328	804.235511874963	17.292590552617
3	329	804.851316674652	13.129742040791
3	330	807.979811616971	10.880033292081
3	338	828.470610780022	1.708755464073
3	339	839.123456773396	10.832826174358
3	345	868.546969432128	3.646060000352
3	353	875.084424237456	4.989152308067
3	354	875.720809922859	4.799075137675
3	357	877.497390606677	0.193825647923
3	391	933.756858137319	38.632998528295
3	392	934.844192419041	37.812608448476
3	393	936.943587624638	38.952874281939
3	402	941.760892199633	31.478118871616
3	403	942.615799926194	19.786585055475
3	404	942.930271233463	14.412280416036
3	410	953.579348104325	14.657855259248
3	411	955.200023327725	14.392922198538
3	412	966.209476849526	25.321001486268
3	417	973.353149463246	26.331295176262
3	418	976.275468014749	22.836200683828
3	419	977.133662309714	8.642689721369
3	425	993.27402094816	9.087492255596
3	439	1027.625879908616	4.305429902973
3	462	1060.286374374897	29.865489262871
3	463	1062.64924324595	31.691346022827
3	466	1073.818789232987	42.147275877424
3	471	1092.826845774011	52.720152051246
3	472	1098.818431720461	43.59925340724
3	473	1098.884666926419	39.5016840722
3	476	1105.630592484349	45.952730313934
3	479	1112.373738684284	39.515407723164
3	480	1112.485097256926	26.238255313939
3	481	1114.066433318145	24.514877585014
3	482	1115.888180930416	14.736715417057
3	483	1117.421045375905	10.424122244979
3	500	1149.790261706411	8.353501595016
3	511	1161.600838434779	10.421412688621
3	512	1168.67195617248	16.728477591312
3	513	1169.024845167979	16.849328127015
3	519	1187.207610320482	0.034887698442
3	524	1193.714408270758	4.289437575127
3	530	1208.207225803297	13.903657340015
3	531	1208.715201615444	5.412960149553
3	540	1232.124099003621	11.311854765963
3	546	1251.050564721623	8.08514559202
3	555	1270.052367004775	0.96357511855
3	558	1283.080649893133	10.365944231361
3	563	1289.902313958206	6.567694049951
3	564	1291.330512334386	2.799629948614
3	570	1299.965027571469	2.870497477376
3	573	1314.828460585532	2.839199359477
3	579	1336.818146416603	0.063334877294
3	582	1341.212846668686	1.480430613075
3	585	1365.940075098897	1.465205751107
3	613	1419.931644213196	30.629305747149
3	614	1422.83313847726	33.476819177049
3	615	1429.729820735775	35.163456238293
3	616	1430.464154722662	26.945479484364
3	619	1431.197022027333	26.502215426799
3	653	1505.270899442172	74.543719680067
3	654	1505.650942744461	73.097421516572
3	655	1507.386910236665	74.295496734193
3	656	1507.517200540749	70.496852835661
3	657	1510.746060957724	60.841935528174
3	658	1517.823535113548	51.868515749863
3	659	1524.470037994722	56.963664118916
3	670	1549.67337140783	59.381774062792
3	671	1550.861053903881	55.594557765042
3	674	1563.625233780354	37.406059094208
3	675	1565.091602336673	27.822481073514
3	676	1566.774651004903	25.102518947784
3	683	1594.771427594705	48.586738709159
3	684	1597.076038516028	45.942567852519
3	685	1602.492251077542	28.04038020375
3	686	1603.199133451313	26.537854293872
3	687	1607.20133972243	24.612957940218
3	690	1618.955098476476	3.504477361988
3	696	1641.075817874854	2.589729339763
3	699	1649.850322676057	1.613932408109
3	705	1656.80535862849	0.46120733466
3	717	1685.033543363803	12.128412591237
3	720	1697.064785785501	5.226534101618
3	734	1736.62297306184	7.266237211485
3	735	1737.186318771013	1.554237066137
3	745	1756.167398191179	4.576905707451
3	788	1863.528358704456	100.27003426986
3	791	1869.51602981488	102.35716383288
3	792	1874.268239275564	102.86189794483
3	797	1888.714388602722	116.38426063967
3	798	1889.034255181177	94.314662492903
3	801	1889.467832967486	74.068294990438
3	802	1895.753679772251	76.555414076453
3	805	1905.002979377235	51.851273427215
3	806	1909.196113869984	53.079940017195
3	809	1918.167561532391	60.551152427864
3	810	1919.573073559328	59.388714741107
3	811	1921.607052008876	55.175631346072
3	814	1923.331756548667	41.650218323952
3	815	1925.807793016619	39.997165713994
3	816	1926.219892063986	37.078179481899
3	819	1929.416012701167	25.727968888836
3	820	1930.936685259065	13.240927864892
3	821	1937.482887270986	14.494669737264
3	822	1938.329092923534	10.750069074227
3	827	1941.526814918212	2.557857181231
3	828	1942.791190628642	3.681423627508
3	831	1953.375180912889	6.475913565131
3	837	1964.863620261164	0.685032585925
3	853	1998.92365562773	7.561805016124
3	854	2000.137893844767	7.372321633641
3	881	2070.165531705836	64.038968241559
3	882	2074.722874289221	41.414272519843
3	893	2087.395971995172	27.764067710111
3	898	2098.266184505769	36.615661889035
3	904	2112.123101106226	35.599452544061
3	905	2112.834386747637	31.58345255081
3	906	2120.050133099356	27.831217781106
3	909	2135.122310814341	41.575678802289
3	912	2137.28810402041	35.662202512827
3	913	2137.525567955171	27.293017840285
3	916	2145.982287925585	20.957245483073
3	919	2148.991707413655	13.211202236501
3	933	2173.588044253367	20.469464340701
3	936	2178.809087958525	20.111180734701
3	940	2189.219703062724	19.426106550839
3	947	2196.288941586629	18.322465230606
3	948	2196.940313442354	16.943481609986
3	965	2220.14839133849	26.25619798815
3	966	2223.315960474654	25.91725029239
3	969	2232.937601429374	34.074332267759
3	970	2237.329800439459	37.528068981199
3	971	2237.844422296199	31.901878767917
3	972	2238.262974294641	30.439893108182
3	975	2242.19602241297	31.935507777419
3	985	2256.982027950105	27.712219791283
3	986	2257.207393957349	15.744098241512
3	987	2259.856081317753	16.405665576312
3	992	2263.984559188895	12.678340889234
3	1011	2295.059009782718	42.755141514914
3	1012	2298.81980031708	37.607010234743
3	1015	2307.576722298638	44.380724756778
3	1016	2308.276089721474	43.437350999493
3	1017	2308.979227328806	39.890133739097
3	1020	2317.957931152507	47.617203592454
3	1023	2323.41752626554	53.03468383262
3	1024	2325.08373876035	49.615516797773
3	1025	2326.040563582804	38.25234430221
3	1026	2326.354643139211	32.469948421298
3	1027	2328.708276796321	21.584093455841
3	1031	2335.502417176077	16.422599773809
3	1038	2344.391408999662	11.705889015414
3	1041	2350.16538832925	10.109165772539
3	1042	2352.588016924559	10.172115514834
3	1043	2355.708219538706	13.157261548691
3	1048	2364.796681765384	16.438421602684
3	1054	2385.482115952555	21.558816837923
3	1058	2399.498485711987	22.845644442136
3	1066	2404.923479362072	4.670700560133
3	1067	2419.818449275734	17.667507260431
3	1068	2420.387754439505	15.735311597646
3	1071	2436.333355095572	1.961372559767
3	1102	2482.905763758695	34.504967208445
4	126	355.889422575673	9.254689758874
4	127	357.29705338032	7.907652332066
4	128	361.415543782281	9.793155439082
4	131	371.419553612551	0
4	134	388.135003504805	0
4	137	394.479227275449	0
4	140	399.146306525564	0
4	143	413.988822543821	0
4	152	433.823680480122	3.24641045396
4	155	450.445530522083	0
4	158	458.936979688226	8.370771335066
4	164	475.408713424463	0
4	173	487.310857456051	0.873849919295
4	178	502.730259906355	4.174262790926
4	183	512.023648727663	10.035362745555
4	190	516.794953087247	7.091588777024
4	193	520.218283260588	8.217259268426
4	194	527.064433600162	13.464367140979
4	195	529.771437420847	15.614303830627
4	200	535.243093252443	20.363507143446
4	201	538.480897218698	18.915898341147
4	206	549.69974819548	16.483839614803
4	209	558.914338271448	23.78411865287
4	210	570.714953152733	30.836017254878
4	213	574.292405550925	25.353586404462
4	218	579.92535142582	25.704133496575
4	219	584.005726747447	13.237943355723
4	220	585.974238669745	8.444620636054
4	223	589.011479763502	9.453505342571
4	224	592.101851721523	3.355862305704
4	231	616.18578714862	23.454615946132
4	232	622.377406389231	28.826817748521
4	233	623.58508447863	16.262755121373
4	238	630.715118144139	2.692401904646
4	241	636.602666812209	5.913293142042
4	246	649.375047919761	16.303975738726
4	247	649.542384431605	7.824073945078
4	256	671.978537527916	23.811890925359
4	259	676.375962529155	20.975707601175
4	260	682.862063562508	26.520960256017
4	261	682.8974792608	20.667435358016
4	262	684.907376962016	19.119039485517
4	269	700.288449751664	25.513373403471
4	272	707.746155690858	21.878864613768
4	273	709.307360419877	23.111240920169
4	274	711.995863486735	16.085813635509
4	275	712.536976868862	5.06588317027
4	278	716.127752428333	1.12082011992
4	281	722.581718362881	0
4	284	729.65754988774	6.387507528969
4	287	734.751374974229	0
4	290	741.211472674072	0
4	293	753.920601265808	0
4	304	774.366380893581	17.771745969853
4	309	777.356982227877	12.886477322771
4	316	787.173922744559	22.550487386362
4	317	787.575262481285	15.414657964459
4	318	789.580144050639	15.508153355944
4	319	790.83603578962	15.875440058769
4	322	792.453257039824	17.300512865457
4	323	792.876436835408	9.75158500911
4	326	797.397525357427	12.08992463662
4	327	797.960418276555	11.017496954209
4	328	804.235511874963	12.513937241102
4	329	804.851316674652	7.751538349762
4	335	826.761855315949	0
4	338	828.470610780022	0.179980180984
4	344	864.900909431776	0
4	347	869.296317033724	0
4	352	873.869807840473	3.774535911084
4	353	875.084424237456	4.162689452272
4	356	877.303564958754	0
4	362	894.524278214403	0
4	390	931.59689031174	36.473030702716
4	391	933.756858137319	36.725274166754
4	392	934.844192419041	36.853479076342
4	393	936.943587624638	26.660814296621
4	402	941.760892199633	18.931677328914
4	403	942.615799926194	14.097809108767
4	404	942.930271233463	5.269076487101
4	407	948.163513172438	9.242020327361
4	410	953.579348104325	12.772246975138
4	411	955.200023327725	14.311547964467
4	412	966.209476849526	19.187622562542
4	417	973.353149463246	19.913882132325
4	418	976.275468014749	7.784495426404
4	419	977.133662309714	5.629934859666
4	424	989.194012705961	5.007484013397
4	425	993.27402094816	5.820945260993
4	428	1005.341813843697	0.152446274191
4	433	1024.231522006449	18.618576094885
4	438	1026.402615396293	3.08216539065
4	439	1027.625879908616	2.771780060159
4	446	1037.038927485198	12.125369020803
4	457	1058.216070537414	27.795185425388
4	462	1060.286374374897	29.328477151774
4	463	1062.64924324595	30.977729890387
4	466	1073.818789232987	33.712095510222
4	471	1092.826845774011	37.60766746079
4	472	1098.818431720461	39.435448866242
4	473	1098.884666926419	39.206804756004
4	476	1105.630592484349	32.772261523229
4	479	1112.373738684284	26.126896741297
4	480	1112.485097256926	22.933541523795
4	481	1114.066433318145	12.914967804786
4	482	1115.888180930416	8.89125779949
4	494	1137.352345430937	0
4	499	1147.152221245473	5.715461134078
4	500	1149.790261706411	8.105956366799
4	510	1154.557109720099	3.377683973941
4	511	1161.600838434779	9.657359853611
4	512	1168.67195617248	16.496439131516
4	518	1187.17272262204	0
4	521	1189.424970695631	0
4	524	1193.714408270758	1.180780888826
4	527	1201.674030620567	7.370462157285
4	530	1208.207225803297	4.904984337406
4	539	1231.668795440673	10.856551203015
4	542	1234.347939546879	0
4	545	1244.960611436457	1.995192306854
4	554	1269.088791886225	0
4	557	1272.714705661772	0
4	560	1283.334619908255	0
4	563	1289.902313958206	1.371431572434
4	569	1297.109629788891	0.015099694798
4	572	1311.989261226055	0
4	578	1336.754811539309	0
4	581	1339.732416055611	0
4	584	1364.47486934779	0
4	612	1411.927739444936	22.625400978889
4	613	1419.931644213196	30.575324912985
4	614	1422.83313847726	28.266773979778
4	615	1429.729820735775	26.211145497477
4	616	1430.464154722662	25.769348122128
4	619	1431.197022027333	26.344060970145
4	652	1503.230369155928	72.503189393823
4	653	1505.270899442172	72.717378214283
4	654	1505.650942744461	72.559529241989
4	655	1507.386910236665	70.366562531577
4	656	1507.517200540749	57.613075111199
4	657	1510.746060957724	44.791041594039
4	658	1517.823535113548	50.317161237742
4	659	1524.470037994722	55.25489739924
4	662	1527.316510542493	46.148866220905
4	667	1544.322160301849	54.030562956811
4	670	1549.67337140783	54.406875268991
4	671	1550.861053903881	24.641879217735
4	674	1563.625233780354	26.356112517195
4	675	1565.091602336673	23.419470279554
4	676	1566.774651004903	20.589962119357
4	683	1594.771427594705	43.637956931196
4	684	1597.076038516028	22.624167642236
4	685	1602.492251077542	25.830971920101
4	686	1603.199133451313	20.610751669101
4	689	1615.450621114488	0
4	695	1638.486088535091	0
4	698	1648.236390267948	0
4	704	1656.596873292292	0.252721998462
4	716	1672.905130772566	0
4	719	1691.838251683883	0
4	733	1735.727804793477	6.371068943122
4	734	1736.62297306184	0.990891356964
4	737	1750.571729774423	0
4	744	1755.401471552746	3.810979069018
4	745	1756.167398191179	3.417518688727
4	752	1768.568471247567	14.07130264249
4	780	1856.116170074776	97.985132710373
4	787	1860.480726274448	97.222401839857
4	788	1863.528358704456	96.369492722454
4	791	1869.51602981488	98.109688484143
4	792	1874.268239275564	101.93811131252
4	797	1888.714388602722	93.994795914448
4	798	1889.034255181177	73.634717204129
4	801	1889.467832967486	70.269567271688
4	802	1895.753679772251	42.601973822231
4	805	1905.002979377235	48.886805524446
4	806	1909.196113869984	51.579704765457
4	809	1918.167561532391	57.98320271417
4	810	1919.573073559328	53.141652896524
4	811	1921.607052008876	39.925513784161
4	814	1923.331756548667	37.521129246042
4	815	1925.807793016619	36.666080434532
4	816	1926.219892063986	22.531848251655
4	819	1929.416012701167	11.720255306994
4	820	1930.936685259065	7.948467725343
4	821	1937.482887270986	9.903863421679
4	824	1938.968957736981	0
4	827	1941.526814918212	2.417047917078
4	830	1946.899267347758	0
4	836	1964.178587675239	0
4	850	1993.336038552175	1.974187940569
4	853	1998.92365562773	6.158083416604
4	854	2000.137893844767	3.349663849764
4	875	2057.549932290088	55.502374375557
4	880	2062.045196009065	55.918632544788
4	881	2070.165531705836	36.856929936458
4	882	2074.722874289221	39.661275514287
4	892	2082.754283208212	23.122378923151
4	893	2087.395971995172	25.745449378438
4	898	2098.266184505769	22.384496168343
4	901	2108.586010554247	32.062361992082
4	904	2112.123101106226	30.872166909399
4	905	2112.834386747637	20.615471429387
4	906	2120.050133099356	26.503501087304
4	909	2135.122310814341	33.496409306758
4	912	2137.28810402041	27.055553905524
4	913	2137.525567955171	12.500525512659
4	916	2145.982287925585	10.201782748431
4	919	2148.991707413655	5.559518259728
4	922	2149.695838930016	2.326951882738
4	927	2159.477749435594	10.104063106048
4	930	2161.563405383656	8.44482547099
4	933	2173.588044253367	14.890137029543
4	936	2178.809087958525	19.264954896213
4	939	2185.375459071557	15.581862559672
4	940	2189.219703062724	11.253226706701
4	947	2196.288941586629	16.292109754261
4	948	2196.940313442354	4.703310145867
4	955	2201.126519315349	8.599990529984
4	964	2214.11993596384	20.2277426135
4	965	2220.14839133849	22.749681156226
4	966	2223.315960474654	24.452691313039
4	969	2232.937601429374	33.135869971114
4	970	2237.329800439459	31.387256911177
4	971	2237.844422296199	30.02134110974
4	972	2238.262974294641	28.00245965909
4	975	2242.19602241297	30.722284714842
4	984	2253.986449407937	24.716641249115
4	985	2256.982027950105	15.518732234268
4	986	2257.207393957349	13.756978215908
4	987	2259.856081317753	8.549863018092
4	992	2263.984559188895	12.574015951614
4	1006	2278.499021411524	26.19515314372
4	1011	2295.059009782718	33.846219700381
4	1012	2298.81980031708	35.62380277522
4	1015	2307.576722298638	42.737983576657
4	1016	2308.276089721474	39.186996131765
4	1017	2308.979227328806	38.638499768753
4	1020	2317.957931152507	47.575088719587
4	1023	2323.41752626554	47.949304302963
4	1024	2325.08373876035	37.295519479756
4	1025	2326.040563582804	32.155868864891
4	1026	2326.354643139211	19.230459798731
4	1027	2328.708276796321	10.773987869297
4	1030	2334.318902772304	15.239085370036
4	1031	2335.502417176077	2.816897191829
4	1038	2344.391408999662	4.335186442951
4	1041	2350.16538832925	7.749486919525
4	1042	2352.588016924559	10.037058934544
4	1043	2355.708219538706	7.349959376006
4	1048	2364.796681765384	2.458288646066
4	1051	2367.225649677937	3.302350563305
4	1054	2385.482115952555	19.123623086626
4	1057	2398.175732899802	21.522891629951
4	1058	2399.498485711987	9.545059564115
4	1061	2401.823528198344	1.570749396405
4	1066	2404.923479362072	2.772537346769
4	1067	2419.818449275734	15.166006433875
4	1070	2434.371982535805	0
4	1101	2481.901459469479	33.500662919229
4	1102	2482.905763758695	31.670221601484
4	1105	2484.843353076696	31.015237937094
5	146	429.805982642391	1
5	150	430.916857740633	2
5	161	466.653881971489	1
5	167	480.389168178264	1
5	169	484.948397214337	2
5	182	512.001023992162	1
5	189	514.879586108997	1
5	199	535.130219618578	1
5	208	554.221217929245	1
5	212	570.767783391724	1
5	222	588.745989415819	1
5	230	607.322329357257	1
5	235	628.022716239493	1
5	258	674.775076348193	1
5	297	764.470504905106	1
5	306	774.960595730851	1
5	311	783.124851826298	1
5	321	791.721574633861	1
5	332	824.780890083904	1
5	341	848.692955585837	1
5	351	870.921734785184	1
5	359	879.673987701764	1
5	364	895.123859609024	1
5	368	897.087892095928	2
5	372	898.52874520143	3
5	374	902.91848991985	4
5	377	904.793744658038	4
5	379	905.939782639788	5
5	406	947.021854286984	1
5	423	987.453075687167	1
5	427	1005.189367569506	1
5	432	1023.320450005643	1
5	437	1024.913558464395	1
5	445	1031.671513355563	1
5	448	1040.106693722765	1
5	450	1046.858083196316	2
5	455	1055.983033979393	2
5	485	1125.834444860383	1
5	487	1126.073229754912	2
5	490	1130.022379586988	2
5	498	1141.684305339612	1
5	504	1151.943478581168	1
5	508	1153.044067096581	2
5	515	1171.972828433619	1
5	526	1194.303568463282	1
5	533	1213.120390775644	1
5	535	1213.776412320688	2
5	544	1242.965419129603	1
5	548	1252.671518180385	1
5	551	1260.25153521397	1
5	566	1295.012015674614	1
5	575	1327.222139794696	1
5	587	1372.895957883817	1
5	589	1381.917485442831	2
5	595	1389.920731222985	3
5	598	1392.698472785622	3
5	602	1394.746713787062	4
5	621	1432.553521227889	1
5	625	1436.728348757593	2
5	630	1439.464295754499	2
5	632	1443.061154915565	3
5	644	1470.841717359854	2
5	661	1526.219174686146	1
5	666	1541.672132057119	1
5	692	1630.679673971452	1
5	701	1655.103665596055	1
5	707	1657.053844268986	1
5	709	1659.651746286242	2
5	712	1665.733231704901	2
5	722	1721.3251219319	1
5	724	1724.171842528881	2
5	726	1726.073576885084	3
5	739	1751.590492483728	1
5	751	1767.158865982002	1
5	754	1771.406341330737	1
5	758	1783.417919866976	2
5	760	1783.722003023927	3
5	762	1791.971053425055	4
5	766	1795.316317058822	5
5	768	1809.741195744578	6
5	782	1856.116173852789	1
5	833	1955.565590503443	1
5	839	1974.625094548522	1
5	841	1977.29678444029	2
5	843	1979.329242199321	3
5	858	2006.126563464277	1
5	860	2009.768996666181	2
5	862	2024.933254232398	3
5	865	2025.029423131321	3
5	873	2047.149323694852	2
5	877	2059.631904285061	1
5	886	2076.523648562165	1
5	888	2077.975665000054	2
5	900	2101.625901507583	1
5	921	2149.373686329546	1
5	924	2153.118579912666	1
5	929	2159.544133062312	1
5	938	2179.996831832368	1
5	950	2197.398710182264	1
5	957	2205.942543528282	1
5	979	2251.306218299661	1
5	1000	2270.38284243292	1
5	1002	2273.847229097608	2
5	1029	2332.685519984248	1
5	1050	2366.358492865929	1
5	1056	2389.953426147872	1
5	1060	2400.252778801939	1
5	1073	2447.619588604821	1
5	1079	2452.902374295182	2
5	1083	2454.586400927438	3
5	1089	2457.141402415183	4
5	1104	2483.620657694845	1
5	1107	2491.727201881822	1
6	146	429.805982642391	0
6	150	430.916857740633	1
6	151	432.495261961416	1
6	152	433.823680480122	0
6	161	466.653881971489	0
6	162	474.135380870352	0
6	167	480.389168178264	0
6	169	484.948397214337	1
6	170	485.484644056422	1
6	173	487.310857456051	0
6	182	512.001023992162	0
6	183	512.023648727663	0
6	189	514.879586108997	0
6	190	516.794953087247	0
6	199	535.130219618578	0
6	200	535.243093252443	0
6	208	554.221217929245	0
6	209	558.914338271448	0
6	212	570.767783391724	0
6	213	574.292405550925	0
6	222	588.745989415819	0
6	223	589.011479763502	0
6	230	607.322329357257	0
6	231	616.18578714862	0
6	235	628.022716239493	0
6	238	630.715118144139	0
6	258	674.775076348193	0
6	259	676.375962529155	0
6	297	764.470504905106	0
6	304	774.366380893581	0
6	306	774.960595730851	0
6	309	777.356982227877	0
6	311	783.124851826298	0
6	316	787.173922744559	0
6	321	791.721574633861	0
6	322	792.453257039824	0
6	332	824.780890083904	0
6	333	825.531203706081	0
6	341	848.692955585837	0
6	342	851.339943705102	0
6	351	870.921734785184	0
6	352	873.869807840473	0
6	359	879.673987701764	0
6	360	885.611994092512	0
6	364	895.123859609024	0
6	368	897.087892095928	1
6	372	898.52874520143	2
6	374	902.91848991985	3
6	375	904.580473240881	3
6	377	904.793744658038	3
6	379	905.939782639788	4
6	380	906.108163876368	4
6	381	908.432382090523	3
6	384	911.455928799636	2
6	387	925.070295136073	1
6	390	931.59689031174	0
6	406	947.021854286984	0
6	407	948.163513172438	0
6	423	987.453075687167	0
6	424	989.194012705961	0
6	427	1005.189367569506	0
6	428	1005.341813843697	0
6	432	1023.320450005643	0
6	433	1024.231522006449	0
6	437	1024.913558464395	0
6	438	1026.402615396293	0
6	445	1031.671513355563	0
6	446	1037.038927485198	0
6	448	1040.106693722765	0
6	450	1046.858083196316	1
6	451	1047.103225839698	1
6	455	1055.983033979393	1
6	456	1056.491034357621	1
6	457	1058.216070537414	0
6	485	1125.834444860383	0
6	487	1126.073229754912	1
6	488	1126.37855997992	1
6	490	1130.022379586988	1
6	491	1130.974273408201	1
6	492	1134.891801465572	0
6	498	1141.684305339612	0
6	499	1147.152221245473	0
6	504	1151.943478581168	0
6	508	1153.044067096581	1
6	509	1153.242766694031	1
6	510	1154.557109720099	0
6	515	1171.972828433619	0
6	516	1172.08465572033	0
6	526	1194.303568463282	0
6	527	1201.674030620567	0
6	533	1213.120390775644	0
6	535	1213.776412320688	1
6	538	1229.326217880143	1
6	539	1231.668795440673	0
6	544	1242.965419129603	0
6	545	1244.960611436457	0
6	548	1252.671518180385	0
6	549	1254.832359196678	0
6	551	1260.25153521397	0
6	552	1267.105055615953	0
6	566	1295.012015674614	0
6	569	1297.109629788891	0
6	575	1327.222139794696	0
6	576	1330.110722443719	0
6	587	1372.895957883817	0
6	589	1381.917485442831	1
6	595	1389.920731222985	2
6	596	1392.493142647642	2
6	598	1392.698472785622	2
6	602	1394.746713787062	3
6	609	1408.300839291951	3
6	610	1408.971006465021	2
6	611	1409.714378119296	1
6	612	1411.927739444936	0
6	621	1432.553521227889	0
6	625	1436.728348757593	1
6	628	1437.569575437371	1
6	630	1439.464295754499	1
6	632	1443.061154915565	2
6	635	1458.654494789851	2
6	636	1463.554126211118	1
6	644	1470.841717359854	1
6	651	1495.725346898971	1
6	652	1503.230369155928	0
6	661	1526.219174686146	0
6	662	1527.316510542493	0
6	666	1541.672132057119	0
6	667	1544.322160301849	0
6	692	1630.679673971452	0
6	693	1631.504359333011	0
6	701	1655.103665596055	0
6	704	1656.596873292292	0
6	707	1657.053844268986	0
6	709	1659.651746286242	1
6	710	1663.870341113214	1
6	712	1665.733231704901	1
6	713	1666.18096711912	1
6	714	1672.065986030637	0
6	722	1721.3251219319	0
6	724	1724.171842528881	1
6	726	1726.073576885084	2
6	727	1727.632278959713	2
6	730	1732.828423496601	1
6	733	1735.727804793477	0
6	739	1751.590492483728	0
6	744	1755.401471552746	0
6	751	1767.158865982002	0
6	752	1768.568471247567	0
6	754	1771.406341330737	0
6	758	1783.417919866976	1
6	760	1783.722003023927	2
6	762	1791.971053425055	3
6	766	1795.316317058822	4
6	768	1809.741195744578	5
6	769	1811.027235852979	5
6	770	1811.043577903098	4
6	773	1818.440763930929	3
6	776	1830.035898455626	2
6	777	1842.510494351858	1
6	780	1856.116170074776	0
6	782	1856.116173852789	0
6	787	1860.480726274448	0
6	833	1955.565590503443	0
6	834	1961.544225748043	0
6	839	1974.625094548522	0
6	841	1977.29678444029	1
6	843	1979.329242199321	2
6	844	1982.393753713768	2
6	845	1987.97178842606	1
6	850	1993.336038552175	0
6	858	2006.126563464277	0
6	860	2009.768996666181	1
6	862	2024.933254232398	2
6	863	2025.015171765793	2
6	865	2025.029423131321	2
6	866	2026.291501266036	2
6	871	2041.065931506151	1
6	873	2047.149323694852	1
6	874	2052.302128036312	1
6	875	2057.549932290088	0
6	877	2059.631904285061	0
6	880	2062.045196009065	0
6	886	2076.523648562165	0
6	888	2077.975665000054	1
6	889	2078.40666246522	1
6	892	2082.754283208212	0
6	900	2101.625901507583	0
6	901	2108.586010554247	0
6	921	2149.373686329546	0
6	922	2149.695838930016	0
6	924	2153.118579912666	0
6	927	2159.477749435594	0
6	929	2159.544133062312	0
6	930	2161.563405383656	0
6	938	2179.996831832368	0
6	939	2185.375459071557	0
6	950	2197.398710182264	0
6	955	2201.126519315349	0
6	957	2205.942543528282	0
6	964	2214.11993596384	0
6	979	2251.306218299661	0
6	984	2253.986449407937	0
6	1000	2270.38284243292	0
6	1002	2273.847229097608	1
6	1003	2274.865748524903	1
6	1006	2278.499021411524	0
6	1029	2332.685519984248	0
6	1030	2334.318902772304	0
6	1050	2366.358492865929	0
6	1051	2367.225649677937	0
6	1056	2389.953426147872	0
6	1057	2398.175732899802	0
6	1060	2400.252778801939	0
6	1061	2401.823528198344	0
6	1073	2447.619588604821	0
6	1079	2452.902374295182	1
6	1083	2454.586400927438	2
6	1089	2457.141402415183	3
6	1094	2461.676121192833	3
6	1099	2474.178255581366	2
6	1100	2476.205918720426	1
6	1101	2481.901459469479	0
6	1104	2483.620657694845	0
6	1105	2484.843353076696	0
6	1107	2491.727201881822	0
7	146	429.805982642391	0
7	151	432.495261961416	1.578404220783
7	161	466.653881971489	0
7	167	480.389168178264	0
7	170	485.484644056422	0.536246842085
7	182	512.001023992162	0
7	189	514.879586108997	0
7	199	535.130219618578	0
7	208	554.221217929245	0
7	212	570.767783391724	0
7	222	588.745989415819	0
7	230	607.322329357257	0
7	235	628.022716239493	0
7	258	674.775076348193	0
7	297	764.470504905106	0
7	306	774.960595730851	0
7	311	783.124851826298	0
7	321	791.721574633861	0
7	332	824.780890083904	0
7	341	848.692955585837	0
7	351	870.921734785184	0
7	359	879.673987701764	0
7	364	895.123859609024	0
7	375	904.580473240881	7.492581144953
7	380	906.108163876368	7.579418674938
7	381	908.432382090523	5.513892170673
7	384	911.455928799636	6.662184141598
7	387	925.070295136073	19.130512496285
7	406	947.021854286984	0
7	423	987.453075687167	0
7	427	1005.189367569506	0
7	432	1023.320450005643	0
7	437	1024.913558464395	0
7	445	1031.671513355563	0
7	448	1040.106693722765	0
7	451	1047.103225839698	0.245142643382
7	456	1056.491034357621	0.508000378228
7	485	1125.834444860383	0
7	488	1126.37855997992	0.305330225008
7	491	1130.974273408201	0.951893821213
7	498	1141.684305339612	0
7	504	1151.943478581168	0
7	509	1153.242766694031	0.19869959745
7	515	1171.972828433619	0
7	526	1194.303568463282	0
7	533	1213.120390775644	0
7	538	1229.326217880143	15.549805559455
7	544	1242.965419129603	0
7	548	1252.671518180385	0
7	551	1260.25153521397	0
7	566	1295.012015674614	0
7	575	1327.222139794696	0
7	587	1372.895957883817	0
7	596	1392.493142647642	10.575657204811
7	609	1408.300839291951	18.380108068966
7	610	1408.971006465021	16.272533679399
7	611	1409.714378119296	14.967664332234
7	621	1432.553521227889	0
7	628	1437.569575437371	0.841226679778
7	635	1458.654494789851	19.190199035352
7	636	1463.554126211118	20.492971295553
7	651	1495.725346898971	24.883629539117
7	661	1526.219174686146	0
7	666	1541.672132057119	0
7	692	1630.679673971452	0
7	701	1655.103665596055	0
7	707	1657.053844268986	0
7	710	1663.870341113214	4.218594826972
7	713	1666.18096711912	0.447735414219
7	722	1721.3251219319	0
7	727	1727.632278959713	3.460436430832
7	730	1732.828423496601	6.754846611517
7	739	1751.590492483728	0
7	751	1767.158865982002	0
7	754	1771.406341330737	0
7	769	1811.027235852979	27.609315986003
7	770	1811.043577903098	27.321574879171
7	773	1818.440763930929	26.469710505874
7	776	1830.035898455626	34.719581396804
7	777	1842.510494351858	32.76929860728
7	782	1856.116173852789	0
7	833	1955.565590503443	0
7	839	1974.625094548522	0
7	844	1982.393753713768	5.096969273478
7	845	1987.97178842606	8.642546226739
7	858	2006.126563464277	0
7	863	2025.015171765793	15.246175099612
7	866	2026.291501266036	1.358247033638
7	871	2041.065931506151	16.03650837483
7	874	2052.302128036312	5.15280434146
7	877	2059.631904285061	0
7	886	2076.523648562165	0
7	889	2078.40666246522	0.430997465166
7	900	2101.625901507583	0
7	921	2149.373686329546	0
7	924	2153.118579912666	0
7	929	2159.544133062312	0
7	938	2179.996831832368	0
7	950	2197.398710182264	0
7	957	2205.942543528282	0
7	979	2251.306218299661	0
7	1000	2270.38284243292	0
7	1003	2274.865748524903	1.018519427295
7	1029	2332.685519984248	0
7	1050	2366.358492865929	0
7	1056	2389.953426147872	0
7	1060	2400.252778801939	0
7	1073	2447.619588604821	0
7	1094	2461.676121192833	8.773746897651
7	1099	2474.178255581366	19.591854653928
7	1100	2476.205918720426	19.064516305243
7	1104	2483.620657694845	0
7	1107	2491.727201881822	0
8	151	432.495261961416	13
8	152	433.823680480122	14
8	162	474.135380870352	15
8	170	485.484644056422	16
8	173	487.310857456051	17
8	183	512.023648727663	18
8	190	516.794953087247	19
8	200	535.243093252443	20
8	209	558.914338271448	21
8	213	574.292405550925	22
8	223	589.011479763502	23
8	231	616.18578714862	24
8	238	630.715118144139	25
8	259	676.375962529155	26
8	304	774.366380893581	27
8	309	777.356982227877	28
8	316	787.173922744559	29
8	322	792.453257039824	30
8	333	825.531203706081	31
8	342	851.339943705102	32
8	352	873.869807840473	33
8	360	885.611994092512	34
8	375	904.580473240881	35
8	380	906.108163876368	36
8	381	908.432382090523	37
8	384	911.455928799636	38
8	387	925.070295136073	39
8	390	931.59689031174	40
8	407	948.163513172438	41
8	424	989.194012705961	42
8	428	1005.341813843697	43
8	433	1024.231522006449	44
8	438	1026.402615396293	45
8	446	1037.038927485198	46
8	451	1047.103225839698	47
8	456	1056.491034357621	48
8	457	1058.216070537414	49
8	488	1126.37855997992	50
8	491	1130.974273408201	51
8	492	1134.891801465572	52
8	499	1147.152221245473	53
8	509	1153.242766694031	54
8	510	1154.557109720099	55
8	516	1172.08465572033	56
8	527	1201.674030620567	57
8	538	1229.326217880143	58
8	539	1231.668795440673	59
8	545	1244.960611436457	60
8	549	1254.832359196678	61
8	552	1267.105055615953	62
8	569	1297.109629788891	63
8	576	1330.110722443719	64
8	596	1392.493142647642	65
8	609	1408.300839291951	66
8	610	1408.971006465021	67
8	611	1409.714378119296	68
8	612	1411.927739444936	69
8	628	1437.569575437371	70
8	635	1458.654494789851	71
8	636	1463.554126211118	72
8	651	1495.725346898971	73
8	652	1503.230369155928	74
8	662	1527.316510542493	75
8	667	1544.322160301849	76
8	693	1631.504359333011	77
8	704	1656.596873292292	78
8	710	1663.870341113214	79
8	713	1666.18096711912	80
8	714	1672.065986030637	81
8	727	1727.632278959713	82
8	730	1732.828423496601	83
8	733	1735.727804793477	84
8	744	1755.401471552746	85
8	752	1768.568471247567	86
8	769	1811.027235852979	87
8	770	1811.043577903098	88
8	773	1818.440763930929	89
8	776	1830.035898455626	90
8	777	1842.510494351858	91
8	780	1856.116170074776	92
8	787	1860.480726274448	93
8	834	1961.544225748043	94
8	844	1982.393753713768	95
8	845	1987.97178842606	96
8	850	1993.336038552175	97
8	863	2025.015171765793	98
8	866	2026.291501266036	99
8	871	2041.065931506151	100
8	874	2052.302128036312	101
8	875	2057.549932290088	102
8	880	2062.045196009065	103
8	889	2078.40666246522	104
8	892	2082.754283208212	105
8	901	2108.586010554247	106
8	922	2149.695838930016	107
8	927	2159.477749435594	108
8	930	2161.563405383656	109
8	939	2185.375459071557	110
8	955	2201.126519315349	111
8	964	2214.11993596384	112
8	984	2253.986449407937	113
8	1003	2274.865748524903	114
8	1006	2278.499021411524	115
8	1030	2334.318902772304	116
8	1051	2367.225649677937	117
8	1057	2398.175732899802	118
8	1061	2401.823528198344	119
8	1094	2461.676121192833	120
8	1099	2474.178255581366	121
8	1100	2476.205918720426	122
8	1101	2481.901459469479	123
8	1105	2484.843353076696	124
9	151	432.495261961416	2.689279319025
9	152	433.823680480122	2.906822739489
9	162	474.135380870352	7.481498898863
9	170	485.484644056422	5.095475878158
9	173	487.310857456051	2.362460241714
9	183	512.023648727663	0.022624735501
9	190	516.794953087247	1.91536697825
9	200	535.243093252443	0.112873633865
9	209	558.914338271448	4.693120342203
9	213	574.292405550925	3.524622159201
9	223	589.011479763502	0.265490347683
9	231	616.18578714862	8.863457791363
9	238	630.715118144139	2.692401904646
9	259	676.375962529155	1.600886180962
9	304	774.366380893581	9.895875988475
9	309	777.356982227877	2.396386497026
9	316	787.173922744559	4.049070918261
9	322	792.453257039824	0.731682405963
9	333	825.531203706081	0.750313622177
9	342	851.339943705102	2.646988119265
9	352	873.869807840473	2.948073055289
9	360	885.611994092512	5.938006390748
9	375	904.580473240881	9.456613631857
9	380	906.108163876368	9.02027178044
9	381	908.432382090523	9.903636889093
9	384	911.455928799636	8.537438879786
9	387	925.070295136073	20.276550478035
9	390	931.59689031174	25.657107671952
9	407	948.163513172438	1.141658885454
9	424	989.194012705961	1.740937018794
9	428	1005.341813843697	0.152446274191
9	433	1024.231522006449	0.911072000806
9	438	1026.402615396293	1.489056931898
9	446	1037.038927485198	5.367414129635
9	451	1047.103225839698	6.996532116933
9	456	1056.491034357621	9.632951161305
9	457	1058.216070537414	2.233036558021
9	488	1126.37855997992	0.544115119537
9	491	1130.974273408201	4.901043653289
9	492	1134.891801465572	4.869421878584
9	499	1147.152221245473	5.467915905861
9	509	1153.242766694031	1.299288112863
9	510	1154.557109720099	1.513042623518
9	516	1172.08465572033	0.111827286711
9	527	1201.674030620567	7.370462157285
9	538	1229.326217880143	16.205827104499
9	539	1231.668795440673	17.892383119985
9	545	1244.960611436457	1.995192306854
9	549	1254.832359196678	2.160841016293
9	552	1267.105055615953	6.853520401983
9	569	1297.109629788891	2.097614114277
9	576	1330.110722443719	2.888582649023
9	596	1392.493142647642	19.597184763825
9	609	1408.300839291951	26.38335384912
9	610	1408.971006465021	19.050275242036
9	611	1409.714378119296	17.015905333674
9	612	1411.927739444936	17.181025657874
9	628	1437.569575437371	5.016054209482
9	635	1458.654494789851	21.926146032258
9	636	1463.554126211118	24.089830456619
9	651	1495.725346898971	52.664191983406
9	652	1503.230369155928	32.388651796074
9	662	1527.316510542493	1.097335856347
9	667	1544.322160301849	2.65002824473
9	693	1631.504359333011	0.824685361559
9	704	1656.596873292292	1.493207696237
9	710	1663.870341113214	6.816496844228
9	713	1666.18096711912	6.529220832878
9	714	1672.065986030637	6.332754325736
9	727	1727.632278959713	6.307157027813
9	730	1732.828423496601	8.65658096772
9	733	1735.727804793477	9.654227908393
9	744	1755.401471552746	3.810979069018
9	752	1768.568471247567	1.409605265565
9	769	1811.027235852979	39.620894522242
9	770	1811.043577903098	27.625658036122
9	773	1818.440763930929	34.718760907002
9	776	1830.035898455626	38.064845030571
9	777	1842.510494351858	47.194177293036
9	780	1856.116170074776	46.374974330198
9	787	1860.480726274448	4.364552421659
9	834	1961.544225748043	5.9786352446
9	844	1982.393753713768	7.768659165246
9	845	1987.97178842606	10.67500398577
9	850	1993.336038552175	14.006796352854
9	863	2025.015171765793	18.888608301516
9	866	2026.291501266036	16.522504599855
9	871	2041.065931506151	16.132677273753
9	874	2052.302128036312	27.272704904991
9	875	2057.549932290088	10.400608595236
9	880	2062.045196009065	2.413291724004
9	889	2078.40666246522	1.883013903055
9	892	2082.754283208212	4.778618208158
9	901	2108.586010554247	6.960109046664
9	922	2149.695838930016	0.32215260047
9	927	2159.477749435594	6.359169522928
9	930	2161.563405383656	2.019272321344
9	939	2185.375459071557	5.378627239189
9	955	2201.126519315349	3.727809133085
9	964	2214.11993596384	8.177392435558
9	984	2253.986449407937	2.680231108276
9	1003	2274.865748524903	4.482906091983
9	1006	2278.499021411524	4.651792313916
9	1030	2334.318902772304	1.633382788056
9	1051	2367.225649677937	0.867156812008
9	1057	2398.175732899802	8.22230675193
9	1061	2401.823528198344	1.570749396405
9	1094	2461.676121192833	14.056532588012
9	1099	2474.178255581366	21.275881286184
9	1100	2476.205918720426	21.619517792988
9	1101	2481.901459469479	24.760057054296
9	1105	2484.843353076696	1.222695381851
10	182	512.001023992162	7
10	189	514.879586108997	8
10	199	535.130219618578	9
10	208	554.221217929245	10
10	212	570.767783391724	11
10	222	588.745989415819	12
10	230	607.322329357257	13
10	235	628.022716239493	14
10	258	674.775076348193	15
10	297	764.470504905106	16
10	306	774.960595730851	17
10	311	783.124851826298	18
10	321	791.721574633861	19
10	351	870.921734785184	20
10	364	895.123859609024	21
10	406	947.021854286984	22
10	423	987.453075687167	23
10	427	1005.189367569506	24
10	432	1023.320450005643	25
10	437	1024.913558464395	26
10	445	1031.671513355563	27
10	448	1040.106693722765	28
10	498	1141.684305339612	29
10	504	1151.943478581168	30
10	526	1194.303568463282	31
10	544	1242.965419129603	32
10	621	1432.553521227889	33
10	661	1526.219174686146	34
10	666	1541.672132057119	35
10	739	1751.590492483728	36
10	751	1767.158865982002	37
10	754	1771.406341330737	38
10	782	1856.116173852789	39
10	858	2006.126563464277	40
10	877	2059.631904285061	41
10	886	2076.523648562165	42
10	900	2101.625901507583	43
10	921	2149.373686329546	44
10	924	2153.118579912666	45
10	929	2159.544133062312	46
10	938	2179.996831832368	47
10	950	2197.398710182264	48
10	957	2205.942543528282	49
10	979	2251.306218299661	50
10	1000	2270.38284243292	51
10	1029	2332.685519984248	52
10	1050	2366.358492865929	53
10	1056	2389.953426147872	54
10	1060	2400.252778801939	55
10	1104	2483.620657694845	56
10	1107	2491.727201881822	57
11	1108	2500	0.0956
12	1108	2500	0.0496

