file 59704 1678524072                                           
version 2
run experiments_medium_game_mode1-364-20230311-09:41:12-10503
attr configname experiments_medium_game_mode1
attr datetime 20230311-09:41:12
attr experiment experiments_medium_game_mode1
attr inifile omnetpp.ini
attr iterationvars "$0=5.5, $1=4, $2=0"
attr iterationvarsf 5.5,4,0-
attr measurement "$0=5.5, $1=4, $2=0"
attr network Network
attr processid 10503
attr repetition 4
attr replication #4
attr resultdir results
attr runnumber 364
attr seedset 4
param *.boss.arrival_mean 20
param *.boss.service_mean 5.5
param *.minion.arrival_mean 10
param *.minion.service_mean 4
param *.player.recover_rate_x 0
param **.minion.arrival_distribution 0
param **.minion.service_distribution 0
param **.boss.arrival_distribution 0
param **.boss.service_distribution 0

vector 0 Network.player minion_jobs_number_stat:vector ETV
attr source signal_minion_jobs_number
vector 1 Network.player minion_jobs_queue_number_stat:vector ETV
attr source signal_minion_jobs_queue_number
vector 2 Network.player minion_waiting_time_stat:vector ETV
attr source signal_minion_waiting_time
vector 3 Network.player minion_defeated_stat:vector ETV
attr source signal_minion_defeated
vector 4 Network.player minion_response_time_stat:vector ETV
attr source signal_minion_response_time
vector 5 Network.player boss_jobs_number_stat:vector ETV
attr source signal_boss_jobs_number
vector 6 Network.player boss_jobs_queue_number_stat:vector ETV
attr source signal_boss_jobs_queue_number
vector 7 Network.player minion_recovered_stat:vector ETV
attr source signal_minion_recovered
vector 8 Network.player boss_waiting_time_stat:vector ETV
attr source signal_boss_waiting_time
vector 9 Network.player boss_defeated_stat:vector ETV
attr source signal_boss_defeated
vector 10 Network.player boss_response_time_stat:vector ETV
attr source signal_boss_response_time
vector 11 Network.player minion_throughput:vector ETV
attr source signal_minion_throughput
vector 12 Network.player boss_throughput:vector ETV
attr source signal_boss_throughput
0	2016 5242 194 1117 352.978059280825 2495.254658704516 204 1 6 498 1670
1	7258 10445 194 1117 352.978059280825 2495.254658704516 406 0 5 587 1755
2	17703 8957 194 1115 352.978059280825 2494.914627525382 251 0 42.348444224349 2154.2737478006 37943.498633225
3	26660 5557 199 1113 355.052147295426 2487.418907306095 202 50 251 30401 5262201
4	32217 7908 199 1113 355.052147295426 2487.418907306095 202 0.063282729005 53.006604992473 2493.6658435022 49713.31063946
5	40125 2720 202 1119 356.5813254123 2497.177872175454 106 1 5 145 265
6	42845 5423 202 1119 356.5813254123 2497.177872175454 211 0 4 78 162
7	48268 1305 202 1119 356.5813254123 2497.177872175454 49 9 57 1617 63161
8	49573 3068 202 1119 356.5813254123 2497.177872175454 106 0 27.823603721498 252.58266627642 4079.7130673687
9	52641 2829 203 1112 356.626324398011 2480.633902269992 105 16 120 7140 581980
10	55470 4194 203 1112 356.626324398011 2480.633902269992 105 0.044998985711 41.095061407961 842.90180166754 13097.888815463
11	59664 20 1120 1120 2500 2500 1 0.1004 0.1004 0.1004 0.01008016
12	59684 19 1120 1120 2500 2500 1 0.048 0.048 0.048 0.002304

