version 2
run experiments_medium_game_mode1-1636-20230311-09:45:57-16879
attr configname experiments_medium_game_mode1
attr datetime 20230311-09:45:57
attr experiment experiments_medium_game_mode1
attr inifile omnetpp.ini
attr iterationvars "$0=7.5, $1=5, $2=0"
attr iterationvarsf 7.5,5,0-
attr measurement "$0=7.5, $1=5, $2=0"
attr network Network
attr processid 16879
attr repetition 16
attr replication #16
attr resultdir results
attr runnumber 1636
attr seedset 16
param *.boss.arrival_mean 20
param *.boss.service_mean 7.5
param *.minion.arrival_mean 10
param *.minion.service_mean 5
param *.player.recover_rate_x 0
param **.minion.arrival_distribution 0
param **.minion.service_distribution 0
param **.boss.arrival_distribution 0
param **.boss.service_distribution 0

vector 0 Network.player boss_defeated_stat:vector ETV
attr source signal_boss_defeated
vector 1 Network.player boss_jobs_queue_number_stat:vector ETV
attr source signal_boss_jobs_queue_number
vector 2 Network.player boss_response_time_stat:vector ETV
attr source signal_boss_response_time
vector 3 Network.player boss_waiting_time_stat:vector ETV
attr source signal_boss_waiting_time
vector 4 Network.player minion_waiting_time_stat:vector ETV
attr source signal_minion_waiting_time
vector 5 Network.player minion_defeated_stat:vector ETV
attr source signal_minion_defeated
vector 6 Network.player minion_jobs_queue_number_stat:vector ETV
attr source signal_minion_jobs_queue_number
vector 7 Network.player minion_response_time_stat:vector ETV
attr source signal_minion_response_time
vector 8 Network.player minion_jobs_number_stat:vector ETV
attr source signal_minion_jobs_number
vector 9 Network.player boss_jobs_number_stat:vector ETV
attr source signal_boss_jobs_number
vector 10 Network.player minion_recovered_stat:vector ETV
attr source signal_minion_recovered
vector 11 Network.player minion_throughput:vector ETV
attr source signal_minion_throughput
vector 12 Network.player boss_throughput:vector ETV
attr source signal_boss_throughput
0	151	355.591855909698	21
0	152	357.13658485023	22
0	160	375.860212009621	23
0	169	390.176834785293	24
0	173	394.72617233572	25
0	182	401.453681945267	26
0	185	404.292044996532	27
0	190	409.952796769736	28
0	202	426.372956784022	29
0	207	436.441236974821	30
0	226	479.938013265633	31
0	247	526.853151904869	32
0	250	529.083547516849	33
0	251	539.686812799406	34
0	252	539.770635337203	35
0	271	570.177487488956	36
0	289	593.206938271276	37
0	305	635.375019988592	38
0	316	657.703835234058	39
0	325	671.528381743969	40
0	326	671.859500450218	41
0	329	681.01107066335	42
0	342	704.270732717493	43
0	343	709.089486922937	44
0	348	712.891701180978	45
0	351	720.543833527666	46
0	368	759.376410854269	47
0	373	767.785722752868	48
0	374	769.773407180892	49
0	382	775.140496052353	50
0	390	785.572044586392	51
0	403	818.513499025378	52
0	412	824.535343444862	53
0	415	829.54676632445	54
0	416	838.791503986809	55
0	419	841.14079266366	56
0	440	864.140906414245	57
0	441	867.367093771105	58
0	444	874.275451531719	59
0	445	874.709206157864	60
0	446	878.568595825883	61
0	453	890.739100397012	62
0	454	894.027076012191	63
0	461	923.657373463905	64
0	464	936.279033051777	65
0	467	952.792856782817	66
0	468	955.44269555201	67
0	469	956.207212644917	68
0	474	978.731541403452	69
0	477	982.386465739218	70
0	493	1008.983337529251	71
0	504	1027.291710449519	72
0	505	1028.811213170013	73
0	506	1029.136216211682	74
0	511	1038.900791943141	75
0	514	1048.73058110586	76
0	517	1058.641127085833	77
0	526	1072.279551086305	78
0	527	1072.633838724289	79
0	535	1083.744613584901	80
0	556	1111.913200087727	81
0	559	1127.326294621391	82
0	562	1130.798034072704	83
0	563	1135.899111360596	84
0	582	1177.735520042912	85
0	635	1272.541504398078	86
0	636	1274.942328038316	87
0	645	1293.363002099066	88
0	677	1354.654927978646	89
0	699	1381.575942834932	90
0	702	1384.304470477945	91
0	711	1406.0746287156	92
0	712	1407.195795370056	93
0	715	1411.530874995596	94
0	720	1439.232008052998	95
0	721	1441.881474673845	96
0	732	1473.314143821684	97
0	746	1493.374518350234	98
0	747	1510.240346172135	99
0	754	1529.79638752673	100
0	755	1533.075926723	101
0	759	1544.205001355203	102
0	788	1608.632178638933	103
0	789	1614.307274587806	104
0	790	1618.144565075721	105
0	797	1640.917961819422	106
0	804	1658.931717224056	107
0	813	1678.595561722231	108
0	814	1683.044609012166	109
0	828	1704.42250553129	110
0	844	1752.88932786238	111
0	847	1756.392467449115	112
0	862	1779.727007275265	113
0	871	1802.491240042443	114
0	872	1804.547581899281	115
0	906	1896.282371402281	116
0	909	1904.74281290958	117
0	910	1905.616779608522	118
0	913	1909.821920338238	119
0	914	1914.085688489085	120
0	919	1928.277733932216	121
0	924	1950.023611537182	122
0	927	1951.857123864558	123
0	937	1961.025463172936	124
0	943	1981.156885381176	125
0	950	1993.081975732543	126
0	958	2024.321394967161	127
0	965	2026.329082161227	128
0	966	2033.948834389955	129
0	970	2038.807369533113	130
0	995	2098.920127328803	131
0	996	2099.102686026608	132
0	1001	2104.715543801568	133
0	1002	2105.50399491985	134
0	1007	2107.611240618901	135
0	1014	2125.513566801907	136
0	1015	2125.729986907986	137
0	1020	2134.52658685038	138
0	1027	2143.32649826595	139
0	1032	2175.351365678407	140
0	1042	2189.022328353193	141
0	1056	2210.035972536634	142
0	1061	2221.058222592409	143
0	1062	2224.533195167515	144
0	1083	2252.79103320578	145
0	1100	2296.591940203006	146
0	1109	2315.523630391088	147
0	1160	2383.983955416345	148
0	1169	2399.202135821022	149
0	1174	2414.313496029821	150
0	1185	2428.708249024929	151
0	1198	2453.506941728071	152
0	1206	2456.596868223171	153
0	1209	2461.477859538053	154
1	151	355.591855909698	1
1	152	357.13658485023	0
1	159	369.138949755894	0
1	160	375.860212009621	0
1	168	385.453117749827	0
1	169	390.176834785293	0
1	172	392.547813056844	0
1	173	394.72617233572	0
1	179	400.238876986431	0
1	181	400.875830780534	1
1	182	401.453681945267	1
1	184	402.148108483634	1
1	185	404.292044996532	1
1	190	409.952796769736	0
1	201	424.812540692519	0
1	202	426.372956784022	0
1	204	429.941475816797	0
1	207	436.441236974821	0
1	221	476.703449272382	0
1	226	479.938013265633	0
1	230	483.215547513179	0
1	236	497.665056686089	1
1	242	502.518415000999	2
1	246	518.010136143749	3
1	247	526.853151904869	3
1	250	529.083547516849	2
1	251	539.686812799406	1
1	252	539.770635337203	0
1	266	567.422534967774	0
1	271	570.177487488956	0
1	288	589.254921646886	0
1	289	593.206938271276	0
1	304	633.612335763276	0
1	305	635.375019988592	0
1	313	653.717876567391	0
1	315	656.162405383807	1
1	316	657.703835234058	1
1	318	664.883556027538	1
1	320	665.805119266422	2
1	322	666.345196335487	3
1	325	671.528381743969	3
1	326	671.859500450218	2
1	329	681.01107066335	1
1	331	681.955333536092	1
1	333	685.56874799801	2
1	342	704.270732717493	2
1	343	709.089486922937	1
1	347	711.427100791882	1
1	348	712.891701180978	1
1	351	720.543833527666	0
1	365	753.719190786411	0
1	367	758.457762291243	1
1	368	759.376410854269	1
1	370	759.862359115068	1
1	373	767.785722752868	1
1	374	769.773407180892	0
1	381	773.592507289388	0
1	382	775.140496052353	0
1	387	782.804215248613	0
1	390	785.572044586392	0
1	400	812.083228163358	0
1	402	814.53789680283	1
1	403	818.513499025378	1
1	407	821.314613689265	1
1	409	823.339640693145	2
1	411	824.380758877111	3
1	412	824.535343444862	3
1	414	826.130509309885	3
1	415	829.54676632445	3
1	416	838.791503986809	2
1	418	840.108369561828	2
1	419	841.14079266366	2
1	423	841.927159132011	2
1	425	843.753911163271	3
1	429	844.204056085925	4
1	431	844.767347024862	5
1	440	864.140906414245	5
1	441	867.367093771105	4
1	443	874.251744450862	4
1	444	874.275451531719	4
1	445	874.709206157864	3
1	446	878.568595825883	2
1	450	881.630829256108	2
1	452	882.640125728282	3
1	453	890.739100397012	3
1	454	894.027076012191	2
1	456	895.753310537335	2
1	458	908.271428453241	3
1	460	916.148443900527	4
1	461	923.657373463905	4
1	464	936.279033051777	3
1	467	952.792856782817	2
1	468	955.44269555201	1
1	469	956.207212644917	0
1	473	972.831961978536	0
1	474	978.731541403452	0
1	476	979.360375048207	0
1	477	982.386465739218	0
1	482	984.240373431469	0
1	486	994.891896571427	1
1	490	1003.858883076407	2
1	493	1008.983337529251	2
1	495	1015.591232681327	2
1	497	1016.22762365404	3
1	504	1027.291710449519	3
1	505	1028.811213170013	2
1	506	1029.136216211682	1
1	510	1037.619457588496	1
1	511	1038.900791943141	1
1	513	1044.868849600906	1
1	514	1048.73058110586	1
1	517	1058.641127085833	0
1	521	1065.665815288377	0
1	525	1069.837508154843	1
1	526	1072.279551086305	1
1	527	1072.633838724289	0
1	534	1083.0195610608	0
1	535	1083.744613584901	0
1	539	1085.716712364398	0
1	545	1091.165896348159	1
1	549	1101.862008106945	2
1	553	1110.640880361671	3
1	556	1111.913200087727	3
1	559	1127.326294621391	2
1	562	1130.798034072704	1
1	563	1135.899111360596	0
1	581	1168.530077245097	0
1	582	1177.735520042912	0
1	630	1268.922055384295	0
1	632	1269.704014982941	1
1	635	1272.541504398078	1
1	636	1274.942328038316	0
1	644	1289.557095687291	0
1	645	1293.363002099066	0
1	676	1352.506855732944	0
1	677	1354.654927978646	0
1	690	1370.404388530883	0
1	694	1373.105114693269	1
1	696	1380.113067217977	2
1	699	1381.575942834932	2
1	701	1381.736131665	2
1	702	1384.304470477945	2
1	708	1398.191573523998	2
1	710	1401.824001929381	3
1	711	1406.0746287156	3
1	712	1407.195795370056	2
1	714	1411.331822722844	2
1	715	1411.530874995596	2
1	720	1439.232008052998	1
1	721	1441.881474673845	0
1	731	1473.250787678847	0
1	732	1473.314143821684	0
1	739	1484.54545862394	0
1	741	1490.786627567511	1
1	746	1493.374518350234	1
1	747	1510.240346172135	0
1	751	1515.939404877614	0
1	753	1518.058639666684	1
1	754	1529.79638752673	1
1	755	1533.075926723	0
1	758	1541.328091502649	0
1	759	1544.205001355203	0
1	775	1588.998828454145	0
1	783	1591.826544490865	1
1	787	1607.947249559554	2
1	788	1608.632178638933	2
1	789	1614.307274587806	1
1	790	1618.144565075721	0
1	794	1626.570445940533	0
1	797	1640.917961819422	0
1	803	1654.192015298371	0
1	804	1658.931717224056	0
1	810	1674.039597021772	0
1	812	1676.296778732605	1
1	813	1678.595561722231	1
1	814	1683.044609012166	0
1	827	1704.085550962152	0
1	828	1704.42250553129	0
1	833	1734.959901667771	0
1	839	1750.512206608145	1
1	844	1752.88932786238	1
1	847	1756.392467449115	0
1	857	1772.016630625158	0
1	862	1779.727007275265	0
1	866	1784.953323999097	0
1	868	1793.940302291954	1
1	871	1802.491240042443	1
1	872	1804.547581899281	0
1	893	1863.116674614531	0
1	899	1884.1048210951	1
1	901	1886.579840852465	2
1	905	1891.821254052115	3
1	906	1896.282371402281	3
1	908	1901.129284237924	3
1	909	1904.74281290958	3
1	910	1905.616779608522	2
1	913	1909.821920338238	1
1	914	1914.085688489085	0
1	918	1926.365454818449	0
1	919	1928.277733932216	0
1	923	1944.433785012692	0
1	924	1950.023611537182	0
1	926	1950.622018393725	0
1	927	1951.857123864558	0
1	932	1957.125124651231	0
1	937	1961.025463172936	0
1	940	1976.624516113971	0
1	942	1977.707499429506	1
1	943	1981.156885381176	1
1	950	1993.081975732543	0
1	955	2011.380908373739	0
1	958	2024.321394967161	0
1	960	2024.89113310012	0
1	962	2025.694562311325	1
1	965	2026.329082161227	1
1	966	2033.948834389955	0
1	969	2037.032684837172	0
1	970	2038.807369533113	0
1	978	2054.92630997997	0
1	982	2066.558161474897	1
1	990	2074.312271274971	2
1	994	2085.148294294305	3
1	995	2098.920127328803	3
1	996	2099.102686026608	2
1	998	2099.473183195357	2
1	1000	2102.146138877737	3
1	1001	2104.715543801568	3
1	1002	2105.50399491985	2
1	1007	2107.611240618901	1
1	1009	2116.145782370907	1
1	1011	2121.486056362826	2
1	1014	2125.513566801907	2
1	1015	2125.729986907986	1
1	1017	2128.938193055579	1
1	1020	2134.52658685038	1
1	1022	2138.670385373158	1
1	1027	2143.32649826595	1
1	1032	2175.351365678407	0
1	1041	2186.38555087349	0
1	1042	2189.022328353193	0
1	1049	2196.988326593044	0
1	1055	2203.396636789965	1
1	1056	2210.035972536634	1
1	1058	2217.082690419149	1
1	1061	2221.058222592409	1
1	1062	2224.533195167515	0
1	1082	2251.232106227058	0
1	1083	2252.79103320578	0
1	1099	2294.752183040791	0
1	1100	2296.591940203006	0
1	1108	2310.846390442859	0
1	1109	2315.523630391088	0
1	1155	2378.277617112147	0
1	1160	2383.983955416345	0
1	1168	2399.108451542096	0
1	1169	2399.202135821022	0
1	1173	2403.159387325714	0
1	1174	2414.313496029821	0
1	1184	2427.431392732234	0
1	1185	2428.708249024929	0
1	1195	2444.598988443805	0
1	1198	2453.506941728071	0
1	1201	2455.21295102021	0
1	1206	2456.596868223171	0
1	1208	2458.382625969776	0
1	1209	2461.477859538053	0
2	151	355.591855909698	24.814325649351
2	152	357.13658485023	23.330635721995
2	160	375.860212009621	6.721262253727
2	169	390.176834785293	4.723717035466
2	173	394.72617233572	2.178359278876
2	182	401.453681945267	1.214804958836
2	185	404.292044996532	3.416214215998
2	190	409.952796769736	7.804688286102
2	202	426.372956784022	1.560416091503
2	207	436.441236974821	6.499761158024
2	226	479.938013265633	3.234563993251
2	247	526.853151904869	43.63760439169
2	250	529.083547516849	31.41849083076
2	251	539.686812799406	37.168397798407
2	252	539.770635337203	21.760499193454
2	271	570.177487488956	2.754952521182
2	289	593.206938271276	3.95201662439
2	305	635.375019988592	1.762684225316
2	316	657.703835234058	3.985958666667
2	325	671.528381743969	15.365976360162
2	326	671.859500450218	6.97594442268
2	329	681.01107066335	15.205951396928
2	342	704.270732717493	37.925536382006
2	343	709.089486922937	27.134153386845
2	348	712.891701180978	27.322953182968
2	351	720.543833527666	9.116732735784
2	368	759.376410854269	5.657220067858
2	373	767.785722752868	9.327960461625
2	374	769.773407180892	9.911048065824
2	382	775.140496052353	1.547988762965
2	390	785.572044586392	2.767829337779
2	403	818.513499025378	6.43027086202
2	412	824.535343444862	9.997446642032
2	415	829.54676632445	8.232152635185
2	416	838.791503986809	15.451863293664
2	419	841.14079266366	16.760033786549
2	440	864.140906414245	38.01039710436
2	441	867.367093771105	27.258724209277
2	444	874.275451531719	32.348292399708
2	445	874.709206157864	30.955294994593
2	446	878.568595825883	34.364539739958
2	453	890.739100397012	45.97175337215
2	454	894.027076012191	19.775331561329
2	461	923.657373463905	42.026544207797
2	464	936.279033051777	53.638907323495
2	467	952.792856782817	57.039546245482
2	468	955.44269555201	47.171267098769
2	469	956.207212644917	40.05876874439
2	474	978.731541403452	5.899579424916
2	477	982.386465739218	3.026090691011
2	493	1008.983337529251	24.742964097782
2	504	1027.291710449519	32.399813878092
2	505	1028.811213170013	24.952330093606
2	506	1029.136216211682	13.544983530355
2	511	1038.900791943141	22.673168289101
2	514	1048.73058110586	11.111123517364
2	517	1058.641127085833	13.772277484927
2	526	1072.279551086305	6.613735797928
2	527	1072.633838724289	2.796330569446
2	535	1083.744613584901	0.725052524101
2	556	1111.913200087727	26.196487723329
2	559	1127.326294621391	36.160398273232
2	562	1130.798034072704	28.936025965759
2	563	1135.899111360596	25.258230998925
2	582	1177.735520042912	9.205442797815
2	635	1272.541504398078	3.619449013783
2	636	1274.942328038316	5.238313055375
2	645	1293.363002099066	3.805906411775
2	677	1354.654927978646	2.148072245702
2	699	1381.575942834932	11.171554304049
2	702	1384.304470477945	11.199355784676
2	711	1406.0746287156	25.961561497623
2	712	1407.195795370056	25.459663705056
2	715	1411.530874995596	13.339301471598
2	720	1439.232008052998	37.408006123617
2	721	1441.881474673845	30.549651951001
2	732	1473.314143821684	0.063356142837
2	746	1493.374518350234	8.829059726294
2	747	1510.240346172135	19.453718604624
2	754	1529.79638752673	13.856982649116
2	755	1533.075926723	15.017287056316
2	759	1544.205001355203	2.876909852554
2	788	1608.632178638933	19.633350184788
2	789	1614.307274587806	22.480730096941
2	790	1618.144565075721	10.197315516167
2	797	1640.917961819422	14.347515878889
2	804	1658.931717224056	4.739701925685
2	813	1678.595561722231	4.555964700459
2	814	1683.044609012166	6.747830279561
2	828	1704.42250553129	0.336954569138
2	844	1752.88932786238	17.929426194609
2	847	1756.392467449115	5.88026084097
2	862	1779.727007275265	7.710376650107
2	871	1802.491240042443	17.537916043346
2	872	1804.547581899281	10.607279607327
2	906	1896.282371402281	33.16569678775
2	909	1904.74281290958	20.63799181448
2	910	1905.616779608522	19.036938756057
2	913	1909.821920338238	18.000666286123
2	914	1914.085688489085	12.956404251161
2	919	1928.277733932216	1.912279113767
2	924	1950.023611537182	5.58982652449
2	927	1951.857123864558	1.235105470833
2	937	1961.025463172936	3.900338521705
2	943	1981.156885381176	4.532369267205
2	950	1993.081975732543	15.374476303037
2	958	2024.321394967161	12.940486593422
2	965	2026.329082161227	1.437949061107
2	966	2033.948834389955	8.25427207863
2	970	2038.807369533113	1.774684695941
2	995	2098.920127328803	43.993817348833
2	996	2099.102686026608	32.544524551711
2	1001	2104.715543801568	30.403272526597
2	1002	2105.50399491985	20.355700625545
2	1007	2107.611240618901	8.138057423544
2	1014	2125.513566801907	23.36742792417
2	1015	2125.729986907986	9.584204537079
2	1020	2134.52658685038	13.040530487554
2	1027	2143.32649826595	14.388305210371
2	1032	2175.351365678407	36.680980305249
2	1042	2189.022328353193	2.636777479703
2	1056	2210.035972536634	13.04764594359
2	1061	2221.058222592409	17.661585802444
2	1062	2224.533195167515	7.450504748366
2	1083	2252.79103320578	1.558926978722
2	1100	2296.591940203006	1.839757162215
2	1109	2315.523630391088	4.677239948229
2	1160	2383.983955416345	5.706338304198
2	1169	2399.202135821022	0.093684278926
2	1174	2414.313496029821	11.154108704107
2	1185	2428.708249024929	1.276856292695
2	1198	2453.506941728071	8.907953284266
2	1206	2456.596868223171	1.383917202961
2	1209	2461.477859538053	3.095233568277
3	151	355.591855909698	21.785906781463
3	159	369.138949755894	0
3	168	385.453117749827	0
3	172	392.547813056844	0
3	179	400.238876986431	0
3	182	401.453681945267	0.577851164733
3	185	404.292044996532	2.143936512898
3	201	424.812540692519	0
3	204	429.941475816797	0
3	221	476.703449272382	0
3	230	483.215547513179	0
3	247	526.853151904869	29.18809521878
3	250	529.083547516849	26.56513251585
3	251	539.686812799406	21.676676655657
3	266	567.422534967774	0
3	288	589.254921646886	0
3	304	633.612335763276	0
3	313	653.717876567391	0
3	316	657.703835234058	1.541429850251
3	325	671.528381743969	6.644825716431
3	326	671.859500450218	6.054381183796
3	329	681.01107066335	14.665874327863
3	342	704.270732717493	22.315399181401
3	343	709.089486922937	23.520738924927
3	348	712.891701180978	1.464600389096
3	365	753.719190786411	0
3	368	759.376410854269	0.918648563026
3	373	767.785722752868	7.9233636378
3	381	773.592507289388	0
3	387	782.804215248613	0
3	400	812.083228163358	0
3	403	818.513499025378	3.975602222548
3	412	824.535343444862	3.220729755597
3	415	829.54676632445	6.207125631305
3	416	838.791503986809	14.410745109698
3	419	841.14079266366	15.010283353775
3	440	864.140906414245	24.032536852417
3	441	867.367093771105	25.439934639094
3	444	874.275451531719	30.521540368448
3	445	874.709206157864	30.505150071939
3	446	878.568595825883	33.801248801021
3	453	890.739100397012	16.48735594615
3	454	894.027076012191	12.396246756083
3	461	923.657373463905	41.017247735623
3	464	936.279033051777	40.525722514442
3	467	952.792856782817	44.521428329576
3	468	955.44269555201	39.294251651483
3	473	972.831961978536	0
3	476	979.360375048207	0
3	482	984.240373431469	0
3	493	1008.983337529251	14.091440957824
3	504	1027.291710449519	23.432827373112
3	505	1028.811213170013	13.219980488686
3	506	1029.136216211682	12.908592557642
3	511	1038.900791943141	1.281334354645
3	514	1048.73058110586	3.861731504954
3	521	1065.665815288377	0
3	526	1072.279551086305	2.442042931462
3	534	1083.0195610608	0
3	539	1085.716712364398	0
3	556	1111.913200087727	20.747303739568
3	559	1127.326294621391	25.464286514446
3	562	1130.798034072704	20.157153711033
3	581	1168.530077245097	0
3	630	1268.922055384295	0
3	635	1272.541504398078	2.837489415137
3	644	1289.557095687291	0
3	676	1352.506855732944	0
3	690	1370.404388530883	0
3	699	1381.575942834932	8.470828141663
3	702	1384.304470477945	4.191403259968
3	711	1406.0746287156	24.3384970506
3	712	1407.195795370056	9.004221846058
3	715	1411.530874995596	9.706873066215
3	720	1439.232008052998	27.900185330154
3	731	1473.250787678847	0
3	739	1484.54545862394	0
3	746	1493.374518350234	2.587890782723
3	751	1515.939404877614	0
3	754	1529.79638752673	11.737747860046
3	758	1541.328091502649	0
3	775	1588.998828454145	0
3	788	1608.632178638933	16.805634148068
3	789	1614.307274587806	6.360025028252
3	794	1626.570445940533	0
3	803	1654.192015298371	0
3	810	1674.039597021772	0
3	813	1678.595561722231	2.298782989626
3	827	1704.085550962152	0
3	833	1734.959901667771	0
3	844	1752.88932786238	2.377121254235
3	857	1772.016630625158	0
3	866	1784.953323999097	0
3	871	1802.491240042443	8.550937750489
3	893	1863.116674614531	0
3	906	1896.282371402281	12.177550307181
3	909	1904.74281290958	18.162972057115
3	910	1905.616779608522	13.795525556407
3	913	1909.821920338238	8.692636100314
3	918	1926.365454818449	0
3	923	1944.433785012692	0
3	926	1950.622018393725	0
3	932	1957.125124651231	0
3	940	1976.624516113971	0
3	943	1981.156885381176	3.44938595167
3	955	2011.380908373739	0
3	960	2024.89113310012	0
3	965	2026.329082161227	0.634519849902
3	969	2037.032684837172	0
3	978	2054.92630997997	0
3	995	2098.920127328803	32.361965853906
3	996	2099.102686026608	24.790414751637
3	1001	2104.715543801568	19.567249507263
3	1002	2105.50399491985	6.030811724493
3	1007	2107.611240618901	5.465101741164
3	1014	2125.513566801907	9.367784431
3	1015	2125.729986907986	4.24393054516
3	1020	2134.52658685038	5.588393794801
3	1027	2143.32649826595	4.656112892792
3	1041	2186.38555087349	0
3	1049	2196.988326593044	0
3	1056	2210.035972536634	6.639335746669
3	1061	2221.058222592409	3.97553217326
3	1082	2251.232106227058	0
3	1099	2294.752183040791	0
3	1108	2310.846390442859	0
3	1155	2378.277617112147	0
3	1168	2399.108451542096	0
3	1173	2403.159387325714	0
3	1184	2427.431392732234	0
3	1195	2444.598988443805	0
3	1201	2455.21295102021	0
3	1208	2458.382625969776	0
4	152	357.13658485023	88.196670415564
4	153	367.109370962037	96.334422753007
4	160	375.860212009621	100.9002308704
4	161	376.020278319792	71.015861205577
4	162	377.772183051373	72.470622702206
4	163	381.061085238157	46.983678805021
4	164	381.910858964329	45.492141709169
4	169	390.176834785293	21.372179790493
4	170	391.140788423221	22.107791790083
4	173	394.72617233572	25.587222579826
4	176	396.81814065412	11.382867311468
4	177	399.20768239601	13.754564646183
4	190	409.952796769736	17.404983712892
4	193	415.256342196951	19.751405117724
4	194	416.158802263892	15.919925277461
4	197	417.277347296493	11.27520441756
4	198	421.916963314317	13.373098698234
4	199	422.447621301921	10.283183373672
4	202	426.372956784022	9.128391903195
4	207	436.441236974821	11.628696282302
4	208	438.823110447617	8.88163463082
4	211	448.381478357736	13.311655716701
4	212	453.647170552471	8.914635856461
4	215	455.434219047854	0
4	218	458.247658193553	2.793935188543
4	226	479.938013265633	1.590796987432
4	252	539.770635337203	61.060202166479
4	253	547.647177626942	67.13212548687
4	260	553.886890572657	70.671343059478
4	261	556.369359994846	71.12559770969
4	262	556.937591665209	60.506860286313
4	271	570.177487488956	71.307623078002
4	274	573.219136819176	72.369952066557
4	285	585.368967399985	79.330440513601
4	286	585.935461166898	56.902909434708
4	289	593.206938271276	44.075669518766
4	290	597.009494214968	47.180463800794
4	291	600.275205054883	47.492748939988
4	292	603.228833209537	44.344059930701
4	295	608.804474657971	41.381939690197
4	296	610.741973593817	42.658356386702
4	297	611.732522608004	43.349179106329
4	298	613.080033813445	42.123204263581
4	305	635.375019988592	58.45474678215
4	306	639.307590623169	60.079491534555
4	307	644.749313949585	64.723386739068
4	308	644.791714014335	62.830910839623
4	309	649.764710668514	66.330858968535
4	310	650.715095423879	61.460173776993
4	311	651.128246363952	45.74817551402
4	351	720.543833527666	104.18220312671
4	352	730.564882389523	103.06856207207
4	353	730.716855605823	97.104519842547
4	354	731.196605339348	77.478728771957
4	355	732.602521690342	63.683565932412
4	356	733.577929885345	59.945803353802
4	357	734.137009593805	41.399716281314
4	362	749.657772119632	56.738961438934
4	363	751.810215237838	53.601375355881
4	374	769.773407180892	67.217616970438
4	375	770.032000697213	59.32869326062
4	382	775.140496052353	60.78402750204
4	383	779.151451868671	41.530485908653
4	390	785.572044586392	42.446011742192
4	391	793.794058015001	40.07486722859
4	394	796.148540747449	30.796102486742
4	395	809.509160261809	39.146216620497
4	398	811.872277954701	39.281671749847
4	469	956.207212644917	182.61470535553
4	470	958.818777181426	177.81138380757
4	471	972.209194548773	189.40497930016
4	474	978.731541403452	193.21156875165
4	477	982.386465739218	188.30564602222
4	480	984.198224562397	173.82019368649
4	517	1058.641127085833	246.55789892248
4	518	1058.815979373604	238.67534347926
4	519	1061.460847174949	220.29463417767
4	527	1072.633838724289	228.59391764688
4	528	1073.823339788004	225.52073662011
4	529	1075.469484560931	225.76338738248
4	532	1078.113214279601	219.59245023307
4	535	1083.744613584901	222.41250516997
4	536	1084.231908290189	202.94601089613
4	537	1084.535894893311	157.84676040055
4	563	1135.899111360596	183.73992778068
4	568	1143.172282285774	170.34032030724
4	569	1144.111952464872	164.75157741666
4	572	1145.767145656637	162.15187135957
4	573	1147.78287322007	163.5424997886
4	574	1149.77664689128	164.32607425319
4	575	1150.986174228735	153.10235056917
4	578	1164.698211353398	159.4444553601
4	579	1167.722805584733	147.87559908207
4	582	1177.735520042912	151.82943241414
4	583	1178.962305966744	152.14660554868
4	584	1179.285087702038	148.53330235603
4	585	1180.889686705963	126.82683693443
4	586	1183.938087064024	118.27227177565
4	591	1190.327798755117	121.12847476159
4	592	1190.708081896343	113.7976386782
4	595	1196.691240644231	113.67167958343
4	596	1197.320726833962	111.60401446956
4	601	1206.363690155085	118.34718815903
4	608	1221.289311800979	132.23092631833
4	611	1226.930500391024	133.68514430442
4	612	1227.437578098908	117.44741382699
4	613	1227.693284493184	116.1980321179
4	616	1235.210171826788	116.16355721608
4	619	1241.578784873388	112.53063094764
4	626	1261.856916822315	120.93200440899
4	636	1274.942328038316	133.76592076998
4	641	1283.920238435503	138.71108136398
4	642	1284.076254024795	130.86759163136
4	645	1293.363002099066	124.83292485397
4	648	1297.671924646124	110.77930073744
4	653	1306.022407322725	116.62927026995
4	654	1306.392139458403	114.12060927078
4	655	1306.963087526671	109.47814106965
4	656	1307.518936991371	107.27141506114
4	659	1322.771795196505	110.45755054891
4	660	1327.379372325827	114.04515401134
4	661	1331.930428435964	117.18526842264
4	666	1339.364426476448	115.14719706102
4	669	1343.149658885535	111.11958338732
4	670	1344.451165123231	105.12636200381
4	671	1346.637526211612	104.71593380441
4	672	1347.522585821408	99.340022009846
4	673	1349.202892321689	99.213520666477
4	674	1352.443443629957	83.859797804735
4	677	1354.654927978646	85.732872594351
4	680	1358.392299570376	88.489108093325
4	681	1359.091382483647	83.391881238603
4	688	1370.34791663323	93.808822004666
4	721	1441.881474673845	152.32437898655
4	726	1462.786839697237	167.6834302448
4	727	1468.383693109161	163.77843138801
4	728	1469.591675028309	164.31582690548
4	729	1471.504528437887	155.86640058669
4	732	1473.314143821684	139.09816830877
4	733	1474.086842852781	137.87069629891
4	734	1477.790744624798	137.58835726265
4	735	1478.005750597781	125.49889486484
4	736	1479.575392736984	124.6449811147
4	737	1480.699306696386	120.1122666664
4	747	1510.240346172135	144.86793011138
4	748	1512.82194805456	144.40132465709
4	749	1513.699698101149	143.29530957027
4	755	1533.075926723	162.28937582069
4	756	1540.966508900985	159.66198905786
4	759	1544.205001355203	150.64230370281
4	760	1544.288302018861	149.91063862801
4	763	1549.202231100563	114.70592551726
4	764	1553.526823407829	117.89277335966
4	765	1554.208409167165	100.05185490296
4	766	1558.836822350979	101.31765238314
4	767	1572.906589007246	99.655801328399
4	768	1576.602833671227	92.057375047287
4	769	1578.387139808818	87.055581725773
4	772	1582.227560272866	90.429257839298
4	773	1585.373679123353	69.434274245739
4	790	1618.144565075721	76.816473573072
4	791	1618.285581228622	69.123485506735
4	792	1620.410891121084	38.85353504512
4	797	1640.917961819422	51.919133365277
4	798	1643.481326349544	54.350123761835
4	801	1651.393709715359	62.099544972498
4	804	1658.931717224056	68.226540933534
4	807	1667.336569208229	67.380555858164
4	808	1671.938690636117	45.368244695584
4	814	1683.044609012166	46.087623023296
4	815	1689.421654626083	41.277350239999
4	816	1689.506647928479	35.314632630108
4	817	1690.520402957758	24.294169617029
4	818	1691.589142613304	17.549545591532
4	821	1696.718368490742	2.068710382919
4	824	1701.214420158353	3.8429490027
4	830	1709.751706419028	0
4	847	1756.392467449115	10.162414326787
4	848	1757.805548843733	7.636767190076
4	851	1760.278400141767	9.423632935771
4	852	1763.762787253498	11.837092807626
4	853	1768.617425976228	15.460250409638
4	854	1768.871195197056	9.319953247925
4	862	1779.727007275265	3.808775395125
4	863	1782.293634310693	2.70813569595
4	872	1804.547581899281	3.720130647517
4	875	1808.974265082063	0
4	878	1813.470520932614	0
4	881	1817.480747434096	0
4	884	1828.11134490128	0
4	889	1837.48904804443	5.455343808141
4	890	1838.523541520606	6.217092746669
4	914	1914.085688489085	42.922083622948
4	915	1916.02571791426	42.795131672256
4	916	1925.863831509198	36.692528478183
4	919	1928.277733932216	19.886837503763
4	920	1939.741503005237	13.376048186788
4	929	1953.154341822785	0
4	937	1961.025463172936	3.066655961325
4	938	1973.016226217503	14.230014605013
4	950	1993.081975732543	16.457459618572
4	951	2008.95541815603	26.836508146537
4	958	2024.321394967161	36.062163970992
4	966	2033.948834389955	44.694082255867
4	967	2036.780522783404	27.364944252671
4	970	2038.807369533113	27.426461159374
4	971	2041.183145027401	21.506223659849
4	972	2044.992354121144	20.101221021024
4	975	2047.959622531819	21.759729562473
4	976	2050.534148075617	13.501463238445
4	1032	2175.351365678407	129.25583105333
4	1035	2180.024484233265	125.09817425329
4	1038	2183.33090307534	120.77108318907
4	1039	2184.292601902407	116.32182580058
4	1042	2189.022328353193	120.81514188767
4	1047	2194.343604474891	123.95285767874
4	1062	2224.533195167515	144.91938668154
4	1063	2226.051136526625	119.61680856576
4	1064	2229.407132361761	122.16794173969
4	1065	2231.804232500505	109.82482605952
4	1076	2248.750845275826	118.91442613778
4	1083	2252.79103320578	113.03588047345
4	1086	2258.847177212966	118.58754560345
4	1087	2268.576487831796	110.9490645278
4	1092	2278.630592510358	107.53462349506
4	1093	2278.968219316724	103.3978957798
4	1094	2280.07445612042	97.51208074393
4	1095	2287.994540565257	101.60898969177
4	1096	2288.215072135963	98.162595330511
4	1097	2294.657646846644	104.122991259
4	1100	2296.591940203006	99.603613609962
4	1101	2301.421267677708	102.21454704563
4	1102	2303.165153787301	103.72950519999
4	1109	2315.523630391088	97.397085377184
4	1110	2315.605385151054	79.963491889948
4	1111	2317.002086698689	81.012457688458
4	1114	2318.55545106434	77.855292851072
4	1115	2321.701322397829	75.280803822627
4	1118	2323.246553281014	76.754239325005
4	1123	2326.062056305245	76.596457623912
4	1128	2342.969464669701	92.986692769675
4	1135	2351.502343313718	100.27023708666
4	1138	2354.116325020092	99.848239409582
4	1141	2358.158884749711	86.588032964577
4	1142	2359.624348208059	87.298609714363
4	1151	2373.127007909484	78.374824868693
4	1160	2383.983955416345	77.053860460324
4	1161	2393.028199184461	83.256301801718
4	1162	2394.183007584179	83.33661714132
4	1163	2394.385146916967	77.14170102853
4	1166	2396.064798495021	72.96930440773
4	1169	2399.202135821022	74.349098666275
4	1174	2414.313496029821	88.353059938883
4	1175	2415.8257614805	83.405996601437
4	1180	2424.810429712382	88.459299062844
4	1181	2425.659799016245	82.620918423135
4	1182	2427.242856613618	83.282361490746
4	1185	2428.708249024929	83.106815650179
4	1188	2430.815802853876	77.97434209548
4	1189	2432.48291670446	77.094376029706
4	1190	2436.821119110302	75.961826138565
4	1191	2437.035979186819	72.555820727717
4	1198	2453.506941728071	86.666389527965
4	1199	2454.293742886064	84.236925501705
4	1206	2456.596868223171	82.315729645518
4	1209	2461.477859538053	83.200242425906
4	1218	2484.290347125456	104.95869378717
4	1219	2484.596772611646	101.36349563843
4	1220	2489.828530731696	94.274581372514
4	1221	2490.754356460133	91.645904918037
4	1222	2498.183084798163	98.762987545326
5	153	367.109370962037	25
5	161	376.020278319792	26
5	162	377.772183051373	27
5	163	381.061085238157	28
5	164	381.910858964329	29
5	170	391.140788423221	30
5	176	396.81814065412	31
5	177	399.20768239601	32
5	193	415.256342196951	33
5	194	416.158802263892	34
5	197	417.277347296493	35
5	198	421.916963314317	36
5	199	422.447621301921	37
5	208	438.823110447617	38
5	211	448.381478357736	39
5	212	453.647170552471	40
5	213	454.891218257897	41
5	218	458.247658193553	42
5	219	458.775616836414	43
5	253	547.647177626942	44
5	260	553.886890572657	45
5	261	556.369359994846	46
5	262	556.937591665209	47
5	274	573.219136819176	48
5	285	585.368967399985	49
5	286	585.935461166898	50
5	290	597.009494214968	51
5	291	600.275205054883	52
5	292	603.228833209537	53
5	295	608.804474657971	54
5	296	610.741973593817	55
5	297	611.732522608004	56
5	298	613.080033813445	57
5	306	639.307590623169	58
5	307	644.749313949585	59
5	308	644.791714014335	60
5	309	649.764710668514	61
5	310	650.715095423879	62
5	311	651.128246363952	63
5	352	730.564882389523	64
5	353	730.716855605823	65
5	354	731.196605339348	66
5	355	732.602521690342	67
5	356	733.577929885345	68
5	357	734.137009593805	69
5	362	749.657772119632	70
5	363	751.810215237838	71
5	375	770.032000697213	72
5	383	779.151451868671	73
5	391	793.794058015001	74
5	394	796.148540747449	75
5	395	809.509160261809	76
5	398	811.872277954701	77
5	470	958.818777181426	78
5	471	972.209194548773	79
5	480	984.198224562397	80
5	518	1058.815979373604	81
5	519	1061.460847174949	82
5	528	1073.823339788004	83
5	529	1075.469484560931	84
5	532	1078.113214279601	85
5	536	1084.231908290189	86
5	537	1084.535894893311	87
5	568	1143.172282285774	88
5	569	1144.111952464872	89
5	572	1145.767145656637	90
5	573	1147.78287322007	91
5	574	1149.77664689128	92
5	575	1150.986174228735	93
5	578	1164.698211353398	94
5	579	1167.722805584733	95
5	583	1178.962305966744	96
5	584	1179.285087702038	97
5	585	1180.889686705963	98
5	586	1183.938087064024	99
5	591	1190.327798755117	100
5	592	1190.708081896343	101
5	595	1196.691240644231	102
5	596	1197.320726833962	103
5	601	1206.363690155085	104
5	608	1221.289311800979	105
5	611	1226.930500391024	106
5	612	1227.437578098908	107
5	613	1227.693284493184	108
5	616	1235.210171826788	109
5	619	1241.578784873388	110
5	626	1261.856916822315	111
5	641	1283.920238435503	112
5	642	1284.076254024795	113
5	648	1297.671924646124	114
5	653	1306.022407322725	115
5	654	1306.392139458403	116
5	655	1306.963087526671	117
5	656	1307.518936991371	118
5	659	1322.771795196505	119
5	660	1327.379372325827	120
5	661	1331.930428435964	121
5	666	1339.364426476448	122
5	669	1343.149658885535	123
5	670	1344.451165123231	124
5	671	1346.637526211612	125
5	672	1347.522585821408	126
5	673	1349.202892321689	127
5	674	1352.443443629957	128
5	680	1358.392299570376	129
5	681	1359.091382483647	130
5	688	1370.34791663323	131
5	726	1462.786839697237	132
5	727	1468.383693109161	133
5	728	1469.591675028309	134
5	729	1471.504528437887	135
5	733	1474.086842852781	136
5	734	1477.790744624798	137
5	735	1478.005750597781	138
5	736	1479.575392736984	139
5	737	1480.699306696386	140
5	748	1512.82194805456	141
5	749	1513.699698101149	142
5	756	1540.966508900985	143
5	760	1544.288302018861	144
5	763	1549.202231100563	145
5	764	1553.526823407829	146
5	765	1554.208409167165	147
5	766	1558.836822350979	148
5	767	1572.906589007246	149
5	768	1576.602833671227	150
5	769	1578.387139808818	151
5	772	1582.227560272866	152
5	773	1585.373679123353	153
5	791	1618.285581228622	154
5	792	1620.410891121084	155
5	798	1643.481326349544	156
5	801	1651.393709715359	157
5	807	1667.336569208229	158
5	808	1671.938690636117	159
5	815	1689.421654626083	160
5	816	1689.506647928479	161
5	817	1690.520402957758	162
5	818	1691.589142613304	163
5	821	1696.718368490742	164
5	824	1701.214420158353	165
5	825	1703.637165196934	166
5	831	1716.725530900726	167
5	848	1757.805548843733	168
5	851	1760.278400141767	169
5	852	1763.762787253498	170
5	853	1768.617425976228	171
5	854	1768.871195197056	172
5	855	1771.060704917385	173
5	863	1782.293634310693	174
5	864	1783.73146714506	175
5	873	1806.775226699645	176
5	876	1810.026651955227	177
5	879	1815.945892783631	178
5	882	1820.615929055076	179
5	889	1837.48904804443	180
5	890	1838.523541520606	181
5	891	1840.610599311118	182
5	915	1916.02571791426	183
5	916	1925.863831509198	184
5	920	1939.741503005237	185
5	921	1940.563089509693	186
5	930	1956.272682940976	187
5	938	1973.016226217503	188
5	951	2008.95541815603	189
5	967	2036.780522783404	190
5	971	2041.183145027401	191
5	972	2044.992354121144	192
5	975	2047.959622531819	193
5	976	2050.534148075617	194
5	1035	2180.024484233265	195
5	1038	2183.33090307534	196
5	1039	2184.292601902407	197
5	1047	2194.343604474891	198
5	1063	2226.051136526625	199
5	1064	2229.407132361761	200
5	1065	2231.804232500505	201
5	1076	2248.750845275826	202
5	1086	2258.847177212966	203
5	1087	2268.576487831796	204
5	1092	2278.630592510358	205
5	1093	2278.968219316724	206
5	1094	2280.07445612042	207
5	1095	2287.994540565257	208
5	1096	2288.215072135963	209
5	1097	2294.657646846644	210
5	1101	2301.421267677708	211
5	1102	2303.165153787301	212
5	1110	2315.605385151054	213
5	1111	2317.002086698689	214
5	1114	2318.55545106434	215
5	1115	2321.701322397829	216
5	1118	2323.246553281014	217
5	1123	2326.062056305245	218
5	1128	2342.969464669701	219
5	1135	2351.502343313718	220
5	1138	2354.116325020092	221
5	1141	2358.158884749711	222
5	1142	2359.624348208059	223
5	1151	2373.127007909484	224
5	1161	2393.028199184461	225
5	1162	2394.183007584179	226
5	1163	2394.385146916967	227
5	1166	2396.064798495021	228
5	1175	2415.8257614805	229
5	1180	2424.810429712382	230
5	1181	2425.659799016245	231
5	1182	2427.242856613618	232
5	1188	2430.815802853876	233
5	1189	2432.48291670446	234
5	1190	2436.821119110302	235
5	1191	2437.035979186819	236
5	1199	2454.293742886064	237
5	1218	2484.290347125456	238
5	1219	2484.596772611646	239
5	1220	2489.828530731696	240
5	1221	2490.754356460133	241
5	1222	2498.183084798163	242
6	153	367.109370962037	6
6	155	368.8046549948	6
6	157	369.032996633138	7
6	161	376.020278319792	7
6	162	377.772183051373	6
6	163	381.061085238157	5
6	164	381.910858964329	4
6	166	385.435273342652	4
6	170	391.140788423221	4
6	175	395.504937079227	4
6	176	396.81814065412	4
6	177	399.20768239601	3
6	187	406.002142878933	3
6	189	408.543864616083	4
6	192	412.164437928249	5
6	193	415.256342196951	5
6	194	416.158802263892	4
6	196	417.244564880827	4
6	197	417.277347296493	4
6	198	421.916963314317	3
6	199	422.447621301921	2
6	206	435.069822641035	2
6	208	438.823110447617	2
6	210	444.73253469601	2
6	211	448.381478357736	2
6	212	453.647170552471	1
6	213	454.891218257897	0
6	215	455.434219047854	0
6	217	455.45372300501	1
6	218	458.247658193553	1
6	219	458.775616836414	0
6	223	478.347216278201	0
6	225	478.710433170724	1
6	228	480.515052140072	2
6	232	485.243762285156	3
6	234	496.430731378896	4
6	238	498.869864410954	5
6	240	500.849184752619	6
6	244	506.038526886384	7
6	249	529.03255173219	8
6	253	547.647177626942	8
6	255	549.13126875251	8
6	257	549.829030414174	9
6	259	552.782456114895	10
6	260	553.886890572657	10
6	261	556.369359994846	9
6	262	556.937591665209	8
6	264	558.884773278836	8
6	268	568.083617207115	9
6	270	568.383343501675	10
6	273	570.956829549864	11
6	274	573.219136819176	11
6	276	576.920273206442	11
6	278	579.228099088614	12
6	280	580.025927210517	13
6	282	581.960803174712	14
6	284	583.433851699979	15
6	285	585.368967399985	15
6	286	585.935461166898	14
6	290	597.009494214968	13
6	291	600.275205054883	12
6	292	603.228833209537	11
6	294	605.380070849932	11
6	295	608.804474657971	11
6	296	610.741973593817	10
6	297	611.732522608004	9
6	298	613.080033813445	8
6	300	616.36163040096	8
6	302	627.496320317452	9
6	306	639.307590623169	9
6	307	644.749313949585	8
6	308	644.791714014335	7
6	309	649.764710668514	6
6	310	650.715095423879	5
6	311	651.128246363952	4
6	324	668.91895575793	4
6	328	673.632126531543	5
6	335	692.737293312491	6
6	337	692.918810680698	7
6	339	698.208839881957	8
6	341	702.555790210454	9
6	345	710.703307436593	10
6	350	714.356468550313	11
6	352	730.564882389523	11
6	353	730.716855605823	10
6	354	731.196605339348	9
6	355	732.602521690342	8
6	356	733.577929885345	7
6	357	734.137009593805	6
6	359	737.620965960018	6
6	361	743.1260328442	7
6	362	749.657772119632	7
6	363	751.810215237838	6
6	372	765.352438260707	6
6	375	770.032000697213	6
6	377	770.362943641312	6
6	379	772.590606204854	7
6	383	779.151451868671	7
6	385	781.007393373859	7
6	389	785.519972651797	8
6	391	793.794058015001	8
6	393	794.080819717003	8
6	394	796.148540747449	8
6	395	809.509160261809	7
6	397	810.378030875903	7
6	398	811.872277954701	7
6	405	820.140635894339	7
6	421	841.166212997282	8
6	427	844.039921077412	9
6	433	848.302603167896	10
6	435	849.706097178447	11
6	437	858.520764046529	12
6	439	861.33210841493	13
6	448	881.28589739406	14
6	463	926.689134492761	15
6	466	952.159183579918	16
6	470	958.818777181426	16
6	471	972.209194548773	15
6	479	983.615274297069	15
6	480	984.198224562397	15
6	484	985.450572638088	15
6	488	997.883823659565	16
6	492	1005.253755993298	17
6	499	1019.847206502666	18
6	501	1025.906087628769	19
6	503	1026.815700418062	20
6	508	1030.751785346012	21
6	516	1054.062849771534	22
6	518	1058.815979373604	22
6	519	1061.460847174949	21
6	523	1069.199323993526	21
6	528	1073.823339788004	21
6	529	1075.469484560931	20
6	531	1076.910443218145	20
6	532	1078.113214279601	20
6	536	1084.231908290189	19
6	537	1084.535894893311	18
6	541	1088.016501996055	18
6	543	1089.058385482649	19
6	547	1093.245356086608	20
6	551	1109.990164271915	21
6	555	1111.495252375282	22
6	558	1119.046614610703	23
6	561	1129.048153925745	24
6	565	1140.924912413329	25
6	567	1141.176407268333	26
6	568	1143.172282285774	26
6	569	1144.111952464872	25
6	571	1145.209157071525	25
6	572	1145.767145656637	25
6	573	1147.78287322007	24
6	574	1149.77664689128	23
6	575	1150.986174228735	22
6	577	1153.208662393435	22
6	578	1164.698211353398	22
6	579	1167.722805584733	21
6	583	1178.962305966744	20
6	584	1179.285087702038	19
6	585	1180.889686705963	18
6	586	1183.938087064024	17
6	588	1186.892623908681	17
6	590	1189.393137052777	18
6	591	1190.327798755117	18
6	592	1190.708081896343	17
6	594	1192.271530187622	17
6	595	1196.691240644231	17
6	596	1197.320726833962	16
6	598	1197.484946457018	16
6	600	1200.247521930234	17
6	601	1206.363690155085	17
6	603	1212.314244647592	17
6	605	1213.33421831449	18
6	607	1214.745160013319	19
6	608	1221.289311800979	19
6	610	1224.217229415423	19
6	611	1226.930500391024	19
6	612	1227.437578098908	18
6	613	1227.693284493184	17
6	615	1232.030075498215	17
6	616	1235.210171826788	17
6	618	1239.324803119424	17
6	619	1241.578784873388	17
6	621	1241.921592407204	17
6	623	1248.182563811562	18
6	625	1249.989371655212	19
6	626	1261.856916822315	19
6	628	1268.583645825222	19
6	634	1269.903191477051	20
6	638	1275.699501245044	21
6	640	1276.539094628564	22
6	641	1283.920238435503	22
6	642	1284.076254024795	21
6	647	1295.103409452435	21
6	648	1297.671924646124	21
6	650	1304.605261721148	21
6	652	1305.27584812283	22
6	653	1306.022407322725	22
6	654	1306.392139458403	21
6	655	1306.963087526671	20
6	656	1307.518936991371	19
6	658	1315.638127851192	19
6	659	1322.771795196505	19
6	660	1327.379372325827	18
6	661	1331.930428435964	17
6	663	1334.215975512914	17
6	665	1336.216146553867	18
6	666	1339.364426476448	18
6	668	1340.202387362151	18
6	669	1343.149658885535	18
6	670	1344.451165123231	17
6	671	1346.637526211612	16
6	672	1347.522585821408	15
6	673	1349.202892321689	14
6	674	1352.443443629957	13
6	679	1354.930411622285	13
6	680	1358.392299570376	13
6	681	1359.091382483647	12
6	683	1360.587040029986	12
6	685	1365.372416060755	13
6	687	1368.420623397465	14
6	688	1370.34791663323	14
6	692	1370.786550902306	14
6	698	1381.304519843128	15
6	704	1393.562697652392	16
6	706	1394.377663390847	17
6	717	1434.496305583305	18
6	719	1435.634050048171	19
6	723	1454.156554264205	20
6	725	1457.51916996784	21
6	726	1462.786839697237	21
6	727	1468.383693109161	20
6	728	1469.591675028309	19
6	729	1471.504528437887	18
6	733	1474.086842852781	17
6	734	1477.790744624798	16
6	735	1478.005750597781	15
6	736	1479.575392736984	14
6	737	1480.699306696386	13
6	743	1491.331558083045	13
6	745	1491.798302433568	14
6	748	1512.82194805456	14
6	749	1513.699698101149	13
6	756	1540.966508900985	12
6	760	1544.288302018861	11
6	762	1549.162095721887	11
6	763	1549.202231100563	11
6	764	1553.526823407829	10
6	765	1554.208409167165	9
6	766	1558.836822350979	8
6	767	1572.906589007246	7
6	768	1576.602833671227	6
6	769	1578.387139808818	5
6	771	1581.557356075964	5
6	772	1582.227560272866	5
6	773	1585.373679123353	4
6	777	1589.131202587709	4
6	779	1589.294164742861	5
6	781	1590.705176290522	6
6	785	1599.956013350065	7
6	791	1618.285581228622	7
6	792	1620.410891121084	6
6	796	1636.95698598887	6
6	798	1643.481326349544	6
6	800	1648.144304386084	6
6	801	1651.393709715359	6
6	806	1666.226233340729	6
6	807	1667.336569208229	6
6	808	1671.938690636117	5
6	815	1689.421654626083	4
6	816	1689.506647928479	3
6	817	1690.520402957758	2
6	818	1691.589142613304	1
6	820	1694.649658107823	1
6	821	1696.718368490742	1
6	823	1697.371471155653	1
6	824	1701.214420158353	1
6	825	1703.637165196934	0
6	830	1709.751706419028	0
6	831	1716.725530900726	0
6	835	1746.230053122328	0
6	837	1750.168781653657	1
6	841	1750.854767205996	2
6	843	1751.925694445872	3
6	846	1753.15717556659	4
6	848	1757.805548843733	4
6	850	1759.551241949131	4
6	851	1760.278400141767	4
6	852	1763.762787253498	3
6	853	1768.617425976228	2
6	854	1768.871195197056	1
6	855	1771.060704917385	0
6	859	1775.91823188014	0
6	861	1779.585498614743	1
6	863	1782.293634310693	1
6	864	1783.73146714506	0
6	870	1800.827451251764	0
6	873	1806.775226699645	0
6	875	1808.974265082063	0
6	876	1810.026651955227	0
6	878	1813.470520932614	0
6	879	1815.945892783631	0
6	881	1817.480747434096	0
6	882	1820.615929055076	0
6	884	1828.11134490128	0
6	886	1832.033704236289	1
6	888	1832.306448773937	2
6	889	1837.48904804443	2
6	890	1838.523541520606	1
6	891	1840.610599311118	0
6	895	1871.163604866137	0
6	897	1873.230586242004	1
6	903	1889.171303031015	2
6	912	1908.390896428453	3
6	915	1916.02571791426	3
6	916	1925.863831509198	2
6	920	1939.741503005237	1
6	921	1940.563089509693	0
6	929	1953.154341822785	0
6	930	1956.272682940976	0
6	934	1957.958807211611	0
6	936	1958.78621161249	1
6	938	1973.016226217503	1
6	945	1982.118910009493	1
6	947	1988.259230996169	2
6	949	1989.254752134088	3
6	951	2008.95541815603	3
6	953	2009.415578530733	3
6	957	2019.676921367552	4
6	964	2026.199892969346	5
6	967	2036.780522783404	5
6	971	2041.183145027401	4
6	972	2044.992354121144	3
6	974	2046.095534625078	3
6	975	2047.959622531819	3
6	976	2050.534148075617	2
6	980	2062.559819886271	2
6	984	2067.97077610183	3
6	986	2068.207186465525	4
6	988	2070.390746796148	5
6	992	2079.613808485977	6
6	1004	2106.43432796086	7
6	1006	2107.23919062207	8
6	1013	2121.979406440984	9
6	1019	2129.836419138046	10
6	1024	2139.755152732331	11
6	1026	2140.259631609512	12
6	1029	2157.627423304001	13
6	1031	2171.095969015303	14
6	1034	2175.570323536926	15
6	1035	2180.024484233265	15
6	1037	2182.56237537649	15
6	1038	2183.33090307534	15
6	1039	2184.292601902407	14
6	1044	2190.052476805452	14
6	1046	2190.534655587643	15
6	1047	2194.343604474891	15
6	1051	2199.206720632074	15
6	1053	2199.435648587307	16
6	1060	2218.126545013904	17
6	1063	2226.051136526625	17
6	1064	2229.407132361761	16
6	1065	2231.804232500505	15
6	1067	2235.641893261106	15
6	1069	2235.989629010231	16
6	1071	2240.700158213268	17
6	1073	2246.420518575202	18
6	1075	2246.492313956009	19
6	1076	2248.750845275826	19
6	1078	2249.465598681333	19
6	1080	2249.982771900026	20
6	1085	2254.26808561051	21
6	1086	2258.847177212966	21
6	1087	2268.576487831796	20
6	1089	2271.570851785134	20
6	1091	2272.325738493696	21
6	1092	2278.630592510358	21
6	1093	2278.968219316724	20
6	1094	2280.07445612042	19
6	1095	2287.994540565257	18
6	1096	2288.215072135963	17
6	1097	2294.657646846644	16
6	1101	2301.421267677708	15
6	1102	2303.165153787301	14
6	1104	2306.930094956021	14
6	1106	2309.771897382743	15
6	1110	2315.605385151054	15
6	1111	2317.002086698689	14
6	1113	2317.243445888437	14
6	1114	2318.55545106434	14
6	1115	2321.701322397829	13
6	1117	2323.095494087291	13
6	1118	2323.246553281014	13
6	1120	2324.853037154747	13
6	1122	2325.960436090938	14
6	1123	2326.062056305245	14
6	1125	2332.419764879063	14
6	1127	2336.351130649538	15
6	1128	2342.969464669701	15
6	1130	2343.03888059311	15
6	1132	2343.960495122872	16
6	1134	2345.60143337475	17
6	1135	2351.502343313718	17
6	1137	2352.841460758396	17
6	1138	2354.116325020092	17
6	1140	2355.388540674754	17
6	1141	2358.158884749711	17
6	1142	2359.624348208059	16
6	1144	2360.859292971737	16
6	1146	2364.480158459102	17
6	1148	2366.840552200106	18
6	1150	2370.056817384359	19
6	1151	2373.127007909484	19
6	1153	2374.281138577653	19
6	1157	2379.331653338291	20
6	1159	2383.233276973216	21
6	1161	2393.028199184461	21
6	1162	2394.183007584179	20
6	1163	2394.385146916967	19
6	1165	2395.553949359182	19
6	1166	2396.064798495021	19
6	1171	2399.420097252837	19
6	1175	2415.8257614805	19
6	1177	2417.268262125275	19
6	1179	2419.133451329679	20
6	1180	2424.810429712382	20
6	1181	2425.659799016245	19
6	1182	2427.242856613618	18
6	1187	2429.232149905465	18
6	1188	2430.815802853876	18
6	1189	2432.48291670446	17
6	1190	2436.821119110302	16
6	1191	2437.035979186819	15
6	1193	2441.783611930452	15
6	1197	2452.309464931063	16
6	1199	2454.293742886064	16
6	1203	2455.406009742327	16
6	1205	2455.559475358924	17
6	1211	2462.114056386014	18
6	1213	2466.330720422387	19
6	1215	2467.218619836442	20
6	1217	2480.211963592418	21
6	1218	2484.290347125456	21
6	1219	2484.596772611646	20
6	1220	2489.828530731696	19
6	1221	2490.754356460133	18
6	1222	2498.183084798163	17
7	153	367.109370962037	98.169456527371
7	161	376.020278319792	101.06029718057
7	162	377.772183051373	72.767765937158
7	163	381.061085238157	75.75952488899
7	164	381.910858964329	47.833452531193
7	170	391.140788423221	22.336133428421
7	176	396.81814065412	27.679190898226
7	177	399.20768239601	13.772409053358
7	193	415.256342196951	22.708529140107
7	194	416.158802263892	20.653865184665
7	197	417.277347296493	17.038470310062
7	198	421.916963314317	15.914820435384
7	199	422.447621301921	13.903756685838
7	208	438.823110447617	14.010569755098
7	211	448.381478357736	18.440002540939
7	212	453.647170552471	18.577347911436
7	213	454.891218257897	10.158683561887
7	218	458.247658193553	2.813439145699
7	219	458.775616836414	3.321893831404
7	253	547.647177626942	68.936744456218
7	260	553.886890572657	73.371838432585
7	261	556.369359994846	73.153812481667
7	262	556.937591665209	71.693829380053
7	274	573.219136819176	74.349272408222
7	285	585.368967399985	84.519782647366
7	286	585.935461166898	79.896934280514
7	290	597.009494214968	47.878225462458
7	291	600.275205054883	50.446174640709
7	292	603.228833209537	50.446377094642
7	295	608.804474657971	49.919701379135
7	296	610.741973593817	43.319438626043
7	297	611.732522608004	43.648905400889
7	298	613.080033813445	44.69669031177
7	306	639.307590623169	62.387317416727
7	307	644.749313949585	65.521214860971
7	308	644.791714014335	64.765786803818
7	309	649.764710668514	67.803907493802
7	310	650.715095423879	67.2812437239
7	311	651.128246363952	61.873324717066
7	352	730.564882389523	114.20325198856
7	353	730.716855605823	103.22053528837
7	354	731.196605339348	97.584269576072
7	355	732.602521690342	78.884645122951
7	356	733.577929885345	64.658974127415
7	357	734.137009593805	60.504883062262
7	362	749.657772119632	56.920478807141
7	363	751.810215237838	58.89140455714
7	375	770.032000697213	67.476210486759
7	383	779.151451868671	64.794983318358
7	391	793.794058015001	50.668025170801
7	394	796.148540747449	42.429349961038
7	395	809.509160261809	44.156722001102
7	398	811.872277954701	41.509334313389
7	470	958.818777181426	185.22626989204
7	471	972.209194548773	191.20180117491
7	480	984.198224562397	190.11740484539
7	518	1058.815979373604	246.73275121025
7	519	1061.460847174949	241.32021128061
7	528	1073.823339788004	229.78341871059
7	529	1075.469484560931	227.16688139303
7	532	1078.113214279601	228.40711710115
7	536	1084.231908290189	222.89979987526
7	537	1084.535894893311	203.24999749925
7	568	1143.172282285774	191.01309870586
7	569	1144.111952464872	171.27999048634
7	572	1145.767145656637	166.40677060843
7	573	1147.78287322007	164.167598923
7	574	1149.77664689128	165.53627345981
7	575	1150.986174228735	165.53560159065
7	578	1164.698211353398	166.81438769383
7	579	1167.722805584733	162.46904959144
7	583	1178.962305966744	153.05621833797
7	584	1179.285087702038	152.46938728398
7	585	1180.889686705963	150.13790135995
7	586	1183.938087064024	129.87523729249
7	591	1190.327798755117	124.66198346674
7	592	1190.708081896343	121.50875790282
7	595	1196.691240644231	119.78079742609
7	596	1197.320726833962	114.30116577316
7	601	1206.363690155085	120.64697779069
7	608	1221.289311800979	133.27280980492
7	611	1226.930500391024	137.87211490838
7	612	1227.437578098908	134.1922220123
7	613	1227.693284493184	117.70312022127
7	616	1235.210171826788	123.71491945151
7	619	1241.578784873388	122.53217026268
7	626	1261.856916822315	132.80876289657
7	641	1283.920238435503	142.74383116717
7	642	1284.076254024795	138.86709695327
7	648	1297.671924646124	129.14184740103
7	653	1306.022407322725	119.12978341404
7	654	1306.392139458403	116.99900240563
7	655	1306.963087526671	114.69155733905
7	656	1307.518936991371	110.03399053435
7	659	1322.771795196505	122.52427326627
7	660	1327.379372325827	115.06512767824
7	661	1331.930428435964	118.59621012147
7	666	1339.364426476448	124.61926646313
7	669	1343.149658885535	118.93242947011
7	670	1344.451165123231	112.42108962502
7	671	1346.637526211612	107.31272309219
7	672	1347.522585821408	105.6009934142
7	673	1349.202892321689	101.02032851013
7	674	1352.443443629957	102.45407197474
7	680	1358.392299570376	89.470244186081
7	681	1359.091382483647	89.188191006596
7	688	1370.34791663323	94.648415388186
7	726	1462.786839697237	173.22974400995
7	727	1468.383693109161	173.28028365673
7	728	1469.591675028309	164.98641330716
7	729	1471.504528437887	166.22868031506
7	733	1474.086842852781	139.87086733987
7	734	1477.790744624798	141.57459807093
7	735	1478.005750597781	137.80336323563
7	736	1479.575392736984	127.06853700404
7	737	1480.699306696386	125.7688950741
7	748	1512.82194805456	147.44953199381
7	749	1513.699698101149	145.27907470368
7	756	1540.966508900985	170.17995799868
7	760	1544.288302018861	150.72560436647
7	763	1549.202231100563	154.82456770972
7	764	1553.526823407829	119.03051782452
7	765	1554.208409167165	118.57435911899
7	766	1558.836822350979	104.68026808677
7	767	1572.906589007246	115.38741903941
7	768	1576.602833671227	103.35204599238
7	769	1578.387139808818	93.841681184878
7	772	1582.227560272866	90.896002189821
7	773	1585.373679123353	93.575376689785
7	791	1618.285581228622	76.957489725973
7	792	1620.410891121084	71.248795399197
7	798	1643.481326349544	54.482497895399
7	801	1651.393709715359	62.26250712765
7	807	1667.336569208229	76.631392917707
7	808	1671.938690636117	71.982677286052
7	815	1689.421654626083	52.464668637213
7	816	1689.506647928479	41.362343542395
7	817	1690.520402957758	36.328387659387
7	818	1691.589142613304	25.362909272575
7	821	1696.718368490742	22.67877146897
7	824	1701.214420158353	6.56476205053
7	825	1703.637165196934	6.265694041281
7	831	1716.725530900726	6.973824481698
7	848	1757.805548843733	11.575495721405
7	851	1760.278400141767	10.10961848811
7	852	1763.762787253498	12.908020047502
7	853	1768.617425976228	16.691731530356
7	854	1768.871195197056	15.714019630466
7	855	1771.060704917385	11.509462968254
7	863	1782.293634310693	6.375402430553
7	864	1783.73146714506	4.145968530317
7	873	1806.775226699645	5.947775447881
7	876	1810.026651955227	1.052386873164
7	879	1815.945892783631	2.475371851017
7	882	1820.615929055076	3.13518162098
7	889	1837.48904804443	9.37770314315
7	890	1838.523541520606	6.489837284317
7	891	1840.610599311118	8.304150537181
7	915	1916.02571791426	44.862113048123
7	916	1925.863831509198	52.633245267194
7	920	1939.741503005237	31.350606576784
7	921	1940.563089509693	14.197634691244
7	930	1956.272682940976	3.118341118191
7	938	1973.016226217503	15.057419005892
7	951	2008.95541815603	32.330902042059
7	967	2036.780522783404	47.525770649316
7	971	2041.183145027401	29.802236653662
7	972	2044.992354121144	25.315432753592
7	975	2047.959622531819	23.068489431699
7	976	2050.534148075617	24.334255106271
7	1035	2180.024484233265	133.92894960819
7	1038	2183.33090307534	128.40459309537
7	1039	2184.292601902407	121.73278201614
7	1047	2194.343604474891	126.13641800937
7	1063	2226.051136526625	146.43732804065
7	1064	2229.407132361761	122.9728044009
7	1065	2231.804232500505	124.56504187843
7	1076	2248.750845275826	126.77143883484
7	1086	2258.847177212966	119.09202448064
7	1087	2268.576487831796	128.31685622228
7	1092	2278.630592510358	121.00316920636
7	1093	2278.968219316724	107.87225030142
7	1094	2280.07445612042	104.50413258349
7	1095	2287.994540565257	105.43216518877
7	1096	2288.215072135963	101.82952126247
7	1097	2294.657646846644	104.60517004119
7	1101	2301.421267677708	104.43294108466
7	1102	2303.165153787301	103.95843315523
7	1110	2315.605385151054	97.47884013715
7	1111	2317.002086698689	81.360193437583
7	1114	2318.55545106434	82.565822054109
7	1115	2321.701322397829	81.001164184561
7	1118	2323.246553281014	76.826034705812
7	1123	2326.062056305245	79.569742349236
7	1128	2342.969464669701	93.503865988368
7	1135	2351.502343313718	101.51957141369
7	1138	2354.116325020092	102.88421879303
7	1141	2358.158884749711	103.8907991392
7	1142	2359.624348208059	88.053496422925
7	1151	2373.127007909484	100.80126941579
7	1161	2393.028199184461	86.09810422844
7	1162	2394.183007584179	84.411110201436
7	1163	2394.385146916967	83.538756474108
7	1166	2396.064798495021	78.821352606584
7	1175	2415.8257614805	89.865325389562
7	1180	2424.810429712382	92.390664833319
7	1181	2425.659799016245	89.308668366707
7	1182	2427.242856613618	84.203976020508
7	1188	2430.815802853876	85.214369479126
7	1189	2432.48291670446	79.641455946064
7	1190	2436.821119110302	81.432578435548
7	1191	2437.035979186819	76.176686215082
7	1199	2454.293742886064	87.453190685958
7	1218	2484.290347125456	106.01273001331
7	1219	2484.596772611646	105.26511927335
7	1220	2489.828530731696	106.59525375848
7	1221	2490.754356460133	95.200407100951
7	1222	2498.183084798163	99.074633256067
8	155	368.8046549948	7
8	157	369.032996633138	8
8	166	385.435273342652	5
8	175	395.504937079227	5
8	187	406.002142878933	4
8	189	408.543864616083	5
8	192	412.164437928249	6
8	196	417.244564880827	5
8	206	435.069822641035	3
8	210	444.73253469601	3
8	215	455.434219047854	1
8	217	455.45372300501	2
8	223	478.347216278201	1
8	225	478.710433170724	2
8	228	480.515052140072	3
8	232	485.243762285156	4
8	234	496.430731378896	5
8	238	498.869864410954	6
8	240	500.849184752619	7
8	244	506.038526886384	8
8	249	529.03255173219	9
8	255	549.13126875251	9
8	257	549.829030414174	10
8	259	552.782456114895	11
8	264	558.884773278836	9
8	268	568.083617207115	10
8	270	568.383343501675	11
8	273	570.956829549864	12
8	276	576.920273206442	12
8	278	579.228099088614	13
8	280	580.025927210517	14
8	282	581.960803174712	15
8	284	583.433851699979	16
8	294	605.380070849932	12
8	300	616.36163040096	9
8	302	627.496320317452	10
8	324	668.91895575793	5
8	328	673.632126531543	6
8	335	692.737293312491	7
8	337	692.918810680698	8
8	339	698.208839881957	9
8	341	702.555790210454	10
8	345	710.703307436593	11
8	350	714.356468550313	12
8	359	737.620965960018	7
8	361	743.1260328442	8
8	372	765.352438260707	7
8	377	770.362943641312	7
8	379	772.590606204854	8
8	385	781.007393373859	8
8	389	785.519972651797	9
8	393	794.080819717003	9
8	397	810.378030875903	8
8	405	820.140635894339	8
8	421	841.166212997282	9
8	427	844.039921077412	10
8	433	848.302603167896	11
8	435	849.706097178447	12
8	437	858.520764046529	13
8	439	861.33210841493	14
8	448	881.28589739406	15
8	463	926.689134492761	16
8	466	952.159183579918	17
8	479	983.615274297069	16
8	484	985.450572638088	16
8	488	997.883823659565	17
8	492	1005.253755993298	18
8	499	1019.847206502666	19
8	501	1025.906087628769	20
8	503	1026.815700418062	21
8	508	1030.751785346012	22
8	516	1054.062849771534	23
8	523	1069.199323993526	22
8	531	1076.910443218145	21
8	541	1088.016501996055	19
8	543	1089.058385482649	20
8	547	1093.245356086608	21
8	551	1109.990164271915	22
8	555	1111.495252375282	23
8	558	1119.046614610703	24
8	561	1129.048153925745	25
8	565	1140.924912413329	26
8	567	1141.176407268333	27
8	571	1145.209157071525	26
8	577	1153.208662393435	23
8	588	1186.892623908681	18
8	590	1189.393137052777	19
8	594	1192.271530187622	18
8	598	1197.484946457018	17
8	600	1200.247521930234	18
8	603	1212.314244647592	18
8	605	1213.33421831449	19
8	607	1214.745160013319	20
8	610	1224.217229415423	20
8	615	1232.030075498215	18
8	618	1239.324803119424	18
8	621	1241.921592407204	18
8	623	1248.182563811562	19
8	625	1249.989371655212	20
8	628	1268.583645825222	20
8	634	1269.903191477051	21
8	638	1275.699501245044	22
8	640	1276.539094628564	23
8	647	1295.103409452435	22
8	650	1304.605261721148	22
8	652	1305.27584812283	23
8	658	1315.638127851192	20
8	663	1334.215975512914	18
8	665	1336.216146553867	19
8	668	1340.202387362151	19
8	679	1354.930411622285	14
8	683	1360.587040029986	13
8	685	1365.372416060755	14
8	687	1368.420623397465	15
8	692	1370.786550902306	15
8	698	1381.304519843128	16
8	704	1393.562697652392	17
8	706	1394.377663390847	18
8	717	1434.496305583305	19
8	719	1435.634050048171	20
8	723	1454.156554264205	21
8	725	1457.51916996784	22
8	743	1491.331558083045	14
8	745	1491.798302433568	15
8	762	1549.162095721887	12
8	771	1581.557356075964	6
8	777	1589.131202587709	5
8	779	1589.294164742861	6
8	781	1590.705176290522	7
8	785	1599.956013350065	8
8	796	1636.95698598887	7
8	800	1648.144304386084	7
8	806	1666.226233340729	7
8	820	1694.649658107823	2
8	823	1697.371471155653	2
8	830	1709.751706419028	1
8	835	1746.230053122328	1
8	837	1750.168781653657	2
8	841	1750.854767205996	3
8	843	1751.925694445872	4
8	846	1753.15717556659	5
8	850	1759.551241949131	5
8	859	1775.91823188014	1
8	861	1779.585498614743	2
8	870	1800.827451251764	1
8	875	1808.974265082063	1
8	878	1813.470520932614	1
8	881	1817.480747434096	1
8	884	1828.11134490128	1
8	886	1832.033704236289	2
8	888	1832.306448773937	3
8	895	1871.163604866137	1
8	897	1873.230586242004	2
8	903	1889.171303031015	3
8	912	1908.390896428453	4
8	929	1953.154341822785	1
8	934	1957.958807211611	1
8	936	1958.78621161249	2
8	945	1982.118910009493	2
8	947	1988.259230996169	3
8	949	1989.254752134088	4
8	953	2009.415578530733	4
8	957	2019.676921367552	5
8	964	2026.199892969346	6
8	974	2046.095534625078	4
8	980	2062.559819886271	3
8	984	2067.97077610183	4
8	986	2068.207186465525	5
8	988	2070.390746796148	6
8	992	2079.613808485977	7
8	1004	2106.43432796086	8
8	1006	2107.23919062207	9
8	1013	2121.979406440984	10
8	1019	2129.836419138046	11
8	1024	2139.755152732331	12
8	1026	2140.259631609512	13
8	1029	2157.627423304001	14
8	1031	2171.095969015303	15
8	1034	2175.570323536926	16
8	1037	2182.56237537649	16
8	1044	2190.052476805452	15
8	1046	2190.534655587643	16
8	1051	2199.206720632074	16
8	1053	2199.435648587307	17
8	1060	2218.126545013904	18
8	1067	2235.641893261106	16
8	1069	2235.989629010231	17
8	1071	2240.700158213268	18
8	1073	2246.420518575202	19
8	1075	2246.492313956009	20
8	1078	2249.465598681333	20
8	1080	2249.982771900026	21
8	1085	2254.26808561051	22
8	1089	2271.570851785134	21
8	1091	2272.325738493696	22
8	1104	2306.930094956021	15
8	1106	2309.771897382743	16
8	1113	2317.243445888437	15
8	1117	2323.095494087291	14
8	1120	2324.853037154747	14
8	1122	2325.960436090938	15
8	1125	2332.419764879063	15
8	1127	2336.351130649538	16
8	1130	2343.03888059311	16
8	1132	2343.960495122872	17
8	1134	2345.60143337475	18
8	1137	2352.841460758396	18
8	1140	2355.388540674754	18
8	1144	2360.859292971737	17
8	1146	2364.480158459102	18
8	1148	2366.840552200106	19
8	1150	2370.056817384359	20
8	1153	2374.281138577653	20
8	1157	2379.331653338291	21
8	1159	2383.233276973216	22
8	1165	2395.553949359182	20
8	1171	2399.420097252837	20
8	1177	2417.268262125275	20
8	1179	2419.133451329679	21
8	1187	2429.232149905465	19
8	1193	2441.783611930452	16
8	1197	2452.309464931063	17
8	1203	2455.406009742327	17
8	1205	2455.559475358924	18
8	1211	2462.114056386014	19
8	1213	2466.330720422387	20
8	1215	2467.218619836442	21
8	1217	2480.211963592418	22
9	159	369.138949755894	1
9	168	385.453117749827	1
9	172	392.547813056844	1
9	179	400.238876986431	1
9	181	400.875830780534	2
9	184	402.148108483634	2
9	201	424.812540692519	1
9	204	429.941475816797	1
9	221	476.703449272382	1
9	230	483.215547513179	1
9	236	497.665056686089	2
9	242	502.518415000999	3
9	246	518.010136143749	4
9	266	567.422534967774	1
9	288	589.254921646886	1
9	304	633.612335763276	1
9	313	653.717876567391	1
9	315	656.162405383807	2
9	318	664.883556027538	2
9	320	665.805119266422	3
9	322	666.345196335487	4
9	331	681.955333536092	2
9	333	685.56874799801	3
9	347	711.427100791882	2
9	365	753.719190786411	1
9	367	758.457762291243	2
9	370	759.862359115068	2
9	381	773.592507289388	1
9	387	782.804215248613	1
9	400	812.083228163358	1
9	402	814.53789680283	2
9	407	821.314613689265	2
9	409	823.339640693145	3
9	411	824.380758877111	4
9	414	826.130509309885	4
9	418	840.108369561828	3
9	423	841.927159132011	3
9	425	843.753911163271	4
9	429	844.204056085925	5
9	431	844.767347024862	6
9	443	874.251744450862	5
9	450	881.630829256108	3
9	452	882.640125728282	4
9	456	895.753310537335	3
9	458	908.271428453241	4
9	460	916.148443900527	5
9	473	972.831961978536	1
9	476	979.360375048207	1
9	482	984.240373431469	1
9	486	994.891896571427	2
9	490	1003.858883076407	3
9	495	1015.591232681327	3
9	497	1016.22762365404	4
9	510	1037.619457588496	2
9	513	1044.868849600906	2
9	521	1065.665815288377	1
9	525	1069.837508154843	2
9	534	1083.0195610608	1
9	539	1085.716712364398	1
9	545	1091.165896348159	2
9	549	1101.862008106945	3
9	553	1110.640880361671	4
9	581	1168.530077245097	1
9	630	1268.922055384295	1
9	632	1269.704014982941	2
9	644	1289.557095687291	1
9	676	1352.506855732944	1
9	690	1370.404388530883	1
9	694	1373.105114693269	2
9	696	1380.113067217977	3
9	701	1381.736131665	3
9	708	1398.191573523998	3
9	710	1401.824001929381	4
9	714	1411.331822722844	3
9	731	1473.250787678847	1
9	739	1484.54545862394	1
9	741	1490.786627567511	2
9	751	1515.939404877614	1
9	753	1518.058639666684	2
9	758	1541.328091502649	1
9	775	1588.998828454145	1
9	783	1591.826544490865	2
9	787	1607.947249559554	3
9	794	1626.570445940533	1
9	803	1654.192015298371	1
9	810	1674.039597021772	1
9	812	1676.296778732605	2
9	827	1704.085550962152	1
9	833	1734.959901667771	1
9	839	1750.512206608145	2
9	857	1772.016630625158	1
9	866	1784.953323999097	1
9	868	1793.940302291954	2
9	893	1863.116674614531	1
9	899	1884.1048210951	2
9	901	1886.579840852465	3
9	905	1891.821254052115	4
9	908	1901.129284237924	4
9	918	1926.365454818449	1
9	923	1944.433785012692	1
9	926	1950.622018393725	1
9	932	1957.125124651231	1
9	940	1976.624516113971	1
9	942	1977.707499429506	2
9	955	2011.380908373739	1
9	960	2024.89113310012	1
9	962	2025.694562311325	2
9	969	2037.032684837172	1
9	978	2054.92630997997	1
9	982	2066.558161474897	2
9	990	2074.312271274971	3
9	994	2085.148294294305	4
9	998	2099.473183195357	3
9	1000	2102.146138877737	4
9	1009	2116.145782370907	2
9	1011	2121.486056362826	3
9	1017	2128.938193055579	2
9	1022	2138.670385373158	2
9	1041	2186.38555087349	1
9	1049	2196.988326593044	1
9	1055	2203.396636789965	2
9	1058	2217.082690419149	2
9	1082	2251.232106227058	1
9	1099	2294.752183040791	1
9	1108	2310.846390442859	1
9	1155	2378.277617112147	1
9	1168	2399.108451542096	1
9	1173	2403.159387325714	1
9	1184	2427.431392732234	1
9	1195	2444.598988443805	1
9	1201	2455.21295102021	1
9	1208	2458.382625969776	1
10	159	369.138949755894	4
10	168	385.453117749827	5
10	172	392.547813056844	6
10	179	400.238876986431	7
10	201	424.812540692519	8
10	204	429.941475816797	9
10	230	483.215547513179	10
10	266	567.422534967774	11
10	288	589.254921646886	12
10	304	633.612335763276	13
10	313	653.717876567391	14
10	365	753.719190786411	15
10	381	773.592507289388	16
10	387	782.804215248613	17
10	400	812.083228163358	18
10	473	972.831961978536	19
10	476	979.360375048207	20
10	482	984.240373431469	21
10	521	1065.665815288377	22
10	534	1083.0195610608	23
10	539	1085.716712364398	24
10	581	1168.530077245097	25
10	630	1268.922055384295	26
10	644	1289.557095687291	27
10	676	1352.506855732944	28
10	690	1370.404388530883	29
10	731	1473.250787678847	30
10	739	1484.54545862394	31
10	751	1515.939404877614	32
10	758	1541.328091502649	33
10	775	1588.998828454145	34
10	794	1626.570445940533	35
10	803	1654.192015298371	36
10	810	1674.039597021772	37
10	918	1926.365454818449	38
10	940	1976.624516113971	39
10	955	2011.380908373739	40
10	960	2024.89113310012	41
10	969	2037.032684837172	42
10	978	2054.92630997997	43
10	1041	2186.38555087349	44
10	1049	2196.988326593044	45
10	1082	2251.232106227058	46
10	1099	2294.752183040791	47
10	1108	2310.846390442859	48
10	1155	2378.277617112147	49
10	1168	2399.108451542096	50
10	1173	2403.159387325714	51
10	1184	2427.431392732234	52
10	1195	2444.598988443805	53
10	1201	2455.21295102021	54
10	1208	2458.382625969776	55
11	1223	2500	0.0968
12	1223	2500	0.0616

