version 2
run experiments_medium_game_mode1-1665-20230311-09:46:04-17024
attr configname experiments_medium_game_mode1
attr datetime 20230311-09:46:04
attr experiment experiments_medium_game_mode1
attr inifile omnetpp.ini
attr iterationvars "$0=7.5, $1=5, $2=100"
attr iterationvarsf 7.5,5,100-
attr measurement "$0=7.5, $1=5, $2=100"
attr network Network
attr processid 17024
attr repetition 15
attr replication #15
attr resultdir results
attr runnumber 1665
attr seedset 15
param *.boss.arrival_mean 20
param *.boss.service_mean 7.5
param *.minion.arrival_mean 10
param *.minion.service_mean 5
param *.player.recover_rate_x 100
param **.minion.arrival_distribution 0
param **.minion.service_distribution 0
param **.boss.arrival_distribution 0
param **.boss.service_distribution 0

vector 0 Network.player minion_defeated_stat:vector ETV
attr source signal_minion_defeated
vector 1 Network.player minion_jobs_queue_number_stat:vector ETV
attr source signal_minion_jobs_queue_number
vector 2 Network.player minion_response_time_stat:vector ETV
attr source signal_minion_response_time
vector 3 Network.player minion_jobs_number_stat:vector ETV
attr source signal_minion_jobs_number
vector 4 Network.player minion_waiting_time_stat:vector ETV
attr source signal_minion_waiting_time
vector 5 Network.player boss_jobs_number_stat:vector ETV
attr source signal_boss_jobs_number
vector 6 Network.player boss_jobs_queue_number_stat:vector ETV
attr source signal_boss_jobs_queue_number
vector 7 Network.player boss_waiting_time_stat:vector ETV
attr source signal_boss_waiting_time
vector 8 Network.player boss_defeated_stat:vector ETV
attr source signal_boss_defeated
vector 9 Network.player boss_response_time_stat:vector ETV
attr source signal_boss_response_time
vector 10 Network.player minion_recovered_stat:vector ETV
attr source signal_minion_recovered
vector 11 Network.player minion_throughput:vector ETV
attr source signal_minion_throughput
vector 12 Network.player boss_throughput:vector ETV
attr source signal_boss_throughput
0	156	358.070021417551	31
0	159	374.627992963498	32
0	168	380.709267344662	33
0	169	385.551993628103	34
0	170	385.97885047072	35
0	173	387.634366136071	36
0	174	387.775455267467	37
0	188	418.309827329325	38
0	189	424.557460470308	39
0	192	431.505841578587	40
0	195	447.289655365939	41
0	202	455.468496391919	42
0	203	455.671945844768	43
0	206	464.379479034464	44
0	209	467.516357187618	45
0	210	477.441213528976	46
0	213	485.016678381286	47
0	216	491.918441230632	48
0	221	497.891856881116	49
0	222	498.778723935301	50
0	239	568.798827499288	51
0	240	574.875069786267	52
0	248	591.593496457984	53
0	249	592.005492140502	54
0	266	640.324292921226	55
0	269	646.717997215233	56
0	276	658.699963198273	57
0	277	660.045500307649	58
0	278	661.695708090622	59
0	282	682.414184076704	60
0	289	700.551268350777	61
0	290	700.732090552958	62
0	293	705.376996293543	63
0	294	714.728757929407	64
0	335	801.764355109775	65
0	336	804.825248512217	66
0	349	848.514387769572	67
0	350	851.438296542323	68
0	351	852.114890257709	69
0	360	871.899607733407	70
0	361	873.936211316448	71
0	362	875.659153178741	72
0	363	878.628883181956	73
0	372	903.041469215816	74
0	373	905.816861924059	75
0	374	908.198622183004	76
0	375	912.986677382988	77
0	376	916.967736812958	78
0	377	918.81284548775	79
0	380	926.15452109853	80
0	381	932.759063004802	81
0	382	935.876447369177	82
0	383	948.644469498022	83
0	384	955.88653971051	84
0	405	1024.909478674606	85
0	408	1031.15507617198	86
0	409	1032.884085160769	87
0	410	1034.225879563674	88
0	411	1035.298495696982	89
0	414	1046.001255126735	90
0	417	1048.423134255082	91
0	420	1055.247889124491	92
0	426	1075.723334174045	93
0	429	1102.41542439734	94
0	432	1107.276500273021	95
0	502	1253.752470925386	96
0	503	1258.971470577118	97
0	506	1269.088476561265	98
0	507	1274.230778330521	99
0	508	1275.414887644077	100
0	509	1275.466883458523	101
0	510	1286.101921594525	102
0	513	1293.417896185454	103
0	514	1294.343377425009	104
0	515	1295.836555099165	105
0	521	1303.045712914379	106
0	540	1321.73661363717	107
0	541	1326.970949177265	108
0	546	1328.383690669536	109
0	547	1330.361896563197	110
0	548	1331.740182674254	111
0	549	1334.073525492011	112
0	550	1336.217966399972	113
0	555	1356.046441213149	114
0	556	1356.563212793506	115
0	567	1374.491195150136	116
0	582	1397.90152765583	117
0	583	1406.848570209857	118
0	584	1414.44284969491	119
0	585	1415.188062584886	120
0	586	1417.308876739776	121
0	589	1428.808821297363	122
0	590	1430.891040372724	123
0	591	1434.581760775625	124
0	597	1484.961096869881	125
0	600	1502.721856904472	126
0	603	1507.591095630196	127
0	667	1660.36515911181	128
0	668	1662.121233161387	129
0	721	1759.089714114195	130
0	722	1762.342672422107	131
0	746	1841.778548463968	132
0	749	1843.186132957624	133
0	759	1856.782910943507	134
0	768	1875.329563994525	135
0	784	1917.99600483122	136
0	787	1924.51570404221	137
0	788	1929.898165735933	138
0	789	1931.12025981847	139
0	792	1952.313799000994	140
0	795	1954.412189712358	141
0	804	1978.350369478729	142
0	807	1986.246049495241	143
0	810	1990.972125524377	144
0	811	1994.193052928256	145
0	812	1994.492010475804	146
0	815	1998.184644937404	147
0	823	2009.388181788212	148
0	824	2017.627951664345	149
0	827	2018.268902102413	150
0	828	2024.894533806515	151
0	834	2040.553672766278	152
0	835	2045.746171193523	153
0	847	2056.24753373902	154
0	848	2057.386469896762	155
0	849	2058.728892634765	156
0	850	2058.997987106986	157
0	851	2064.398684115832	158
0	855	2085.485587826552	159
0	856	2086.653792734019	160
0	861	2098.919213402955	161
0	862	2099.010105814273	162
0	863	2099.097772720132	163
0	864	2099.248119489514	164
0	865	2099.308937605556	165
0	866	2109.918198560891	166
0	872	2119.219054723659	167
0	873	2123.889381645549	168
0	874	2125.789666536728	169
0	877	2128.190910982612	170
0	880	2130.902520751681	171
0	930	2242.766278122531	172
0	940	2261.957148702846	173
0	941	2263.924426982443	174
0	942	2275.072765523529	175
0	943	2287.779171084207	176
0	944	2289.350243303045	177
0	947	2295.079368605557	178
0	952	2301.3687993994	179
0	957	2307.180425556792	180
0	960	2311.962280916224	181
0	1039	2494.427472003835	182
1	156	358.070021417551	0
1	158	371.826817875947	0
1	159	374.627992963498	0
1	161	375.204235405122	0
1	163	377.298172037204	1
1	165	379.790286642821	2
1	167	380.230609116032	3
1	168	380.709267344662	3
1	169	385.551993628103	2
1	170	385.97885047072	1
1	172	387.203879098344	1
1	173	387.634366136071	1
1	174	387.775455267467	0
1	181	391.229347065333	0
1	184	401.337079352643	1
1	188	418.309827329325	1
1	189	424.557460470308	0
1	191	430.971627895514	0
1	192	431.505841578587	0
1	194	441.068770733571	0
1	195	447.289655365939	0
1	197	448.050399855302	0
1	199	448.888924557964	1
1	201	454.227556541109	2
1	202	455.468496391919	2
1	203	455.671945844768	1
1	205	462.936757577674	1
1	206	464.379479034464	1
1	208	464.451762827932	1
1	209	467.516357187618	1
1	210	477.441213528976	0
1	212	482.727133777193	0
1	213	485.016678381286	0
1	215	489.852602183629	0
1	216	491.918441230632	0
1	218	493.320106480804	0
1	220	493.914777834505	1
1	221	497.891856881116	1
1	222	498.778723935301	0
1	229	538.084897973558	0
1	238	568.068108626093	1
1	239	568.798827499288	1
1	240	574.875069786267	0
1	244	575.990958400427	0
1	246	578.702573058361	1
1	248	591.593496457984	1
1	249	592.005492140502	0
1	251	610.7389707722	0
1	257	624.032723864378	1
1	259	628.437748163353	2
1	261	632.97263080099	3
1	265	640.254734341694	4
1	266	640.324292921226	4
1	268	640.695887759089	4
1	269	646.717997215233	4
1	276	658.699963198273	3
1	277	660.045500307649	2
1	278	661.695708090622	1
1	282	682.414184076704	0
1	284	684.935548120622	0
1	286	687.234352540307	1
1	288	689.519080182014	2
1	289	700.551268350777	2
1	290	700.732090552958	1
1	292	704.200972879936	1
1	293	705.376996293543	1
1	294	714.728757929407	0
1	299	741.520039975603	0
1	304	747.111872888968	1
1	306	747.519356020626	2
1	310	754.49598639057	3
1	312	754.691145169041	4
1	322	776.699738878353	5
1	324	778.856667503739	6
1	327	788.444303878967	7
1	329	788.560835663689	8
1	331	795.722673952149	9
1	334	801.644344775313	10
1	335	801.764355109775	10
1	336	804.825248512217	9
1	340	815.141148630596	9
1	342	825.694875277944	10
1	347	840.294067758125	11
1	349	848.514387769572	11
1	350	851.438296542323	10
1	351	852.114890257709	9
1	353	852.718307106967	9
1	355	858.599080122192	10
1	357	861.542904145574	11
1	359	868.457770801584	12
1	360	871.899607733407	12
1	361	873.936211316448	11
1	362	875.659153178741	10
1	363	878.628883181956	9
1	367	882.893554056111	9
1	372	903.041469215816	9
1	373	905.816861924059	8
1	374	908.198622183004	7
1	375	912.986677382988	6
1	376	916.967736812958	5
1	377	918.81284548775	4
1	379	926.05279973746	4
1	380	926.15452109853	4
1	381	932.759063004802	3
1	382	935.876447369177	2
1	383	948.644469498022	1
1	384	955.88653971051	0
1	388	960.038896334033	0
1	393	979.668927684915	1
1	399	987.320910046105	2
1	404	1020.590508529909	3
1	405	1024.909478674606	3
1	407	1026.226935838068	3
1	408	1031.15507617198	3
1	409	1032.884085160769	2
1	410	1034.225879563674	1
1	411	1035.298495696982	0
1	413	1039.984277950511	0
1	414	1046.001255126735	0
1	416	1046.913666967642	0
1	417	1048.423134255082	0
1	419	1052.038364967622	0
1	420	1055.247889124491	0
1	422	1066.569557467056	0
1	426	1075.723334174045	0
1	428	1100.326045239576	0
1	429	1102.41542439734	0
1	431	1104.2466734304	0
1	432	1107.276500273021	0
1	436	1112.442587626326	0
1	439	1114.2299387861	1
1	443	1118.135647238971	2
1	449	1127.76818682258	3
1	454	1140.20729168527	4
1	458	1150.419259773635	5
1	460	1150.904448295814	6
1	467	1166.309069574946	7
1	469	1170.082336151848	8
1	486	1196.357768476444	9
1	491	1215.008798311394	10
1	496	1233.215973103957	11
1	502	1253.752470925386	11
1	503	1258.971470577118	10
1	505	1260.276741563288	10
1	506	1269.088476561265	10
1	507	1274.230778330521	9
1	508	1275.414887644077	8
1	509	1275.466883458523	7
1	510	1286.101921594525	6
1	512	1293.194243100738	6
1	513	1293.417896185454	6
1	514	1294.343377425009	5
1	515	1295.836555099165	4
1	519	1300.896968081943	4
1	521	1303.045712914379	4
1	526	1308.945778575265	4
1	528	1308.979044421299	5
1	530	1309.277159462544	6
1	534	1314.520331515862	7
1	537	1316.066788270936	8
1	539	1320.765333269527	9
1	540	1321.73661363717	9
1	541	1326.970949177265	8
1	543	1327.150645960059	8
1	545	1328.031127684426	9
1	546	1328.383690669536	9
1	547	1330.361896563197	8
1	548	1331.740182674254	7
1	549	1334.073525492011	6
1	550	1336.217966399972	5
1	552	1339.491585654236	5
1	554	1352.475114614365	6
1	555	1356.046441213149	6
1	556	1356.563212793506	5
1	560	1364.13363146199	5
1	564	1371.158285571832	6
1	567	1374.491195150136	6
1	573	1384.107141602338	6
1	582	1397.90152765583	6
1	583	1406.848570209857	5
1	584	1414.44284969491	4
1	585	1415.188062584886	3
1	586	1417.308876739776	2
1	588	1418.936885028479	2
1	589	1428.808821297363	2
1	590	1430.891040372724	1
1	591	1434.581760775625	0
1	593	1464.418027804221	0
1	597	1484.961096869881	0
1	599	1501.945029561977	0
1	600	1502.721856904472	0
1	602	1506.932012075696	0
1	603	1507.591095630196	0
1	605	1517.880315896348	0
1	612	1525.082716663788	1
1	617	1543.972980506721	2
1	628	1569.345582476976	3
1	630	1579.443043964117	4
1	632	1584.329791524	5
1	636	1600.799091286596	6
1	638	1606.721743988844	7
1	641	1613.949102073124	8
1	644	1619.887335542117	9
1	648	1621.238325743434	10
1	652	1624.293827027984	11
1	656	1627.074985573891	12
1	662	1653.501067248497	13
1	664	1656.343140671346	14
1	667	1660.36515911181	14
1	668	1662.121233161387	13
1	670	1663.600535998356	13
1	677	1674.147678786224	14
1	682	1685.057938417324	15
1	684	1686.872387944786	16
1	692	1704.727388513786	17
1	702	1720.817587341622	18
1	704	1720.851821911813	19
1	706	1721.875092015846	20
1	710	1730.623533501388	21
1	713	1740.494285760169	22
1	715	1747.191320148696	23
1	721	1759.089714114195	23
1	722	1762.342672422107	22
1	726	1769.041783171634	22
1	728	1772.238368202655	23
1	730	1783.865888442547	24
1	734	1787.116090628544	25
1	737	1801.548290900282	26
1	741	1817.786885588567	27
1	744	1836.472723805444	28
1	746	1841.778548463968	28
1	748	1842.333637209256	28
1	749	1843.186132957624	28
1	753	1849.089516210132	28
1	755	1853.02858545257	29
1	757	1853.230025866942	30
1	759	1856.782910943507	30
1	763	1862.920968399841	30
1	768	1875.329563994525	30
1	775	1890.057369822562	30
1	777	1899.315603681918	31
1	783	1914.229000570631	32
1	784	1917.99600483122	32
1	786	1921.035654512079	32
1	787	1924.51570404221	32
1	788	1929.898165735933	31
1	789	1931.12025981847	30
1	791	1940.076656379331	30
1	792	1952.313799000994	30
1	794	1952.507178452678	30
1	795	1954.412189712358	30
1	802	1970.708264125649	30
1	804	1978.350369478729	30
1	806	1979.686709005919	30
1	807	1986.246049495241	30
1	809	1988.849426758076	30
1	810	1990.972125524377	30
1	811	1994.193052928256	29
1	812	1994.492010475804	28
1	814	1995.314312408796	28
1	815	1998.184644937404	28
1	817	1999.052205509423	28
1	821	2004.408034673664	29
1	823	2009.388181788212	29
1	824	2017.627951664345	28
1	826	2017.972186517163	28
1	827	2018.268902102413	28
1	828	2024.894533806515	27
1	832	2032.090965977135	27
1	834	2040.553672766278	27
1	835	2045.746171193523	26
1	837	2048.900328082947	26
1	839	2049.16753866172	27
1	843	2050.848902930746	28
1	846	2055.903255434299	29
1	847	2056.24753373902	29
1	848	2057.386469896762	28
1	849	2058.728892634765	27
1	850	2058.997987106986	26
1	851	2064.398684115832	25
1	855	2085.485587826552	24
1	856	2086.653792734019	23
1	858	2089.551820567039	23
1	860	2096.610071908613	24
1	861	2098.919213402955	24
1	862	2099.010105814273	23
1	863	2099.097772720132	22
1	864	2099.248119489514	21
1	865	2099.308937605556	20
1	866	2109.918198560891	19
1	870	2114.163439664741	19
1	872	2119.219054723659	19
1	873	2123.889381645549	18
1	874	2125.789666536728	17
1	876	2127.71405147405	17
1	877	2128.190910982612	17
1	879	2130.232032826984	17
1	880	2130.902520751681	17
1	884	2137.018954725423	17
1	886	2142.337046105647	18
1	890	2160.789530527783	19
1	893	2162.834948109455	20
1	895	2162.884150066935	21
1	897	2168.535605100417	22
1	899	2170.37907985514	23
1	903	2171.509863828659	24
1	907	2180.715420786649	25
1	909	2182.527633875887	26
1	914	2192.935543579677	27
1	916	2205.443338955943	28
1	921	2216.213132329422	29
1	929	2238.31625459085	30
1	930	2242.766278122531	30
1	934	2246.193608276171	30
1	936	2256.730833752014	31
1	938	2258.836453060927	32
1	940	2261.957148702846	32
1	941	2263.924426982443	31
1	942	2275.072765523529	30
1	943	2287.779171084207	29
1	944	2289.350243303045	28
1	946	2294.968714434799	28
1	947	2295.079368605557	28
1	949	2296.719792457182	28
1	951	2299.294790536736	29
1	952	2301.3687993994	29
1	954	2301.667201606868	29
1	956	2305.487069274372	30
1	957	2307.180425556792	30
1	959	2311.782884945681	30
1	960	2311.962280916224	30
1	962	2314.310374183725	30
1	964	2314.622892967314	31
1	968	2320.559193660386	32
1	972	2324.498304216889	33
1	974	2330.581500241578	34
1	979	2335.259599055678	35
1	981	2344.568282050413	36
1	986	2368.737787171397	37
1	990	2369.786074804619	38
1	994	2372.326647240349	39
1	1000	2377.320734082424	40
1	1002	2378.947451240048	41
1	1008	2395.340590741336	42
1	1010	2406.174800840362	43
1	1021	2443.066247245712	44
1	1025	2460.981316128341	45
1	1028	2466.82704072236	46
1	1030	2469.544771188598	47
1	1033	2472.798552947363	48
1	1035	2479.385398736609	49
1	1038	2485.321044617593	50
1	1039	2494.427472003835	50
2	156	358.070021417551	10.699803367479
2	159	374.627992963498	2.801175087551
2	168	380.709267344662	5.50503193954
2	169	385.551993628103	8.253821590899
2	170	385.97885047072	6.188563827899
2	173	387.634366136071	7.403757020039
2	174	387.775455267467	0.571576169123
2	188	418.309827329325	16.972747976682
2	189	424.557460470308	17.117928248399
2	192	431.505841578587	0.534213683073
2	195	447.289655365939	6.220884632368
2	202	455.468496391919	7.418096536617
2	203	455.671945844768	6.783021286804
2	206	464.379479034464	10.151922493355
2	209	467.516357187618	4.579599609944
2	210	477.441213528976	12.989450701044
2	213	485.016678381286	2.289544604093
2	216	491.918441230632	2.065839047003
2	221	497.891856881116	4.571750400312
2	222	498.778723935301	4.863946100796
2	239	568.798827499288	20.050010766171
2	240	574.875069786267	6.806961160174
2	248	591.593496457984	15.602538057557
2	249	592.005492140502	13.302919082141
2	266	640.324292921226	27.482192743718
2	269	646.717997215233	22.685273350855
2	276	658.699963198273	18.445228856579
2	277	660.045500307649	19.34961254856
2	278	661.695708090622	14.624515579046
2	282	682.414184076704	17.148435524774
2	289	700.551268350777	15.615720230155
2	290	700.732090552958	13.497738012651
2	293	705.376996293543	15.857916111529
2	294	714.728757929407	10.527785049471
2	335	801.764355109775	54.652482220807
2	336	804.825248512217	57.305892491591
2	349	848.514387769572	93.823242600531
2	350	851.438296542323	74.73855766397
2	351	852.114890257709	73.25822275397
2	360	871.899607733407	83.45530385444
2	361	873.936211316448	85.375375652759
2	362	875.659153178741	79.936479226592
2	363	878.628883181956	76.984538406643
2	372	903.041469215816	87.90032058522
2	373	905.816861924059	80.121986646115
2	374	908.198622183004	72.085894918974
2	375	912.986677382988	72.692609624863
2	376	916.967736812958	64.249429705991
2	377	918.81284548775	60.213765365558
2	380	926.15452109853	64.611616952956
2	381	932.759063004802	64.301292203218
2	382	935.876447369177	55.775409645401
2	383	948.644469498022	65.750915441911
2	384	955.88653971051	29.83373997305
2	405	1024.909478674606	64.870582340573
2	408	1031.15507617198	51.486148487065
2	409	1032.884085160769	45.563175114664
2	410	1034.225879563674	13.635371033765
2	411	1035.298495696982	9.071559858914
2	414	1046.001255126735	6.016977176224
2	417	1048.423134255082	1.50946728744
2	420	1055.247889124491	3.209524156869
2	426	1075.723334174045	4.025805981916
2	429	1102.41542439734	2.089379157764
2	432	1107.276500273021	3.029826842621
2	502	1253.752470925386	139.52253213929
2	503	1258.971470577118	141.18762104883
2	506	1269.088476561265	150.95282932229
2	507	1274.230778330521	146.46259150794
2	508	1275.414887644077	135.20759595881
2	509	1275.466883458523	125.04762368489
2	510	1286.101921594525	135.19747329871
2	513	1293.417896185454	127.10882661051
2	514	1294.343377425009	124.26104127316
2	515	1295.836555099165	99.478786622721
2	521	1303.045712914379	69.829739810422
2	540	1321.73661363717	23.086224345291
2	541	1326.970949177265	26.073981095322
2	546	1328.383690669536	20.258604593495
2	547	1330.361896563197	21.416117987932
2	548	1331.740182674254	22.761138252955
2	549	1334.073525492011	24.796366029467
2	550	1336.217966399972	25.929593395222
2	555	1356.046441213149	41.526109697287
2	556	1356.563212793506	40.49642452257
2	567	1374.491195150136	47.340549190077
2	582	1397.90152765583	58.409942001594
2	583	1406.848570209857	54.373455595492
2	584	1414.44284969491	54.646300691669
2	585	1415.188062584886	51.054431122896
2	586	1417.308876739776	46.150591167944
2	589	1428.808821297363	50.64911394984
2	590	1430.891040372724	46.783898770386
2	591	1434.581760775625	15.644875747146
2	597	1484.961096869881	19.767813699005
2	600	1502.721856904472	0.776827342495
2	603	1507.591095630196	0.6590835545
2	667	1660.36515911181	103.30770056964
2	668	1662.121233161387	93.789681568459
2	721	1759.089714114195	145.14061204107
2	722	1762.342672422107	142.45533687999
2	746	1841.778548463968	220.54022272053
2	749	1843.186132957624	218.89230592964
2	759	1856.782910943507	203.28184369501
2	768	1875.329563994525	210.8390855648
2	784	1917.99600483122	243.848326045
2	787	1924.51570404221	249.24859698066
2	788	1929.898165735933	244.84022731861
2	789	1931.12025981847	244.24787187368
2	792	1952.313799000994	249.56688548146
2	795	1954.412189712358	249.68480119857
2	804	1978.350369478729	256.47527746288
2	807	1986.246049495241	255.62251599385
2	810	1990.972125524377	250.47783976421
2	811	1994.193052928256	247.00173277956
2	812	1994.492010475804	239.08616667901
2	815	1998.184644937404	235.72351723517
2	823	2009.388181788212	237.14981358556
2	824	2017.627951664345	233.7620632218
2	827	2018.268902102413	231.15281147387
2	828	2024.894533806515	223.34624290623
2	834	2040.553672766278	204.08094896083
2	835	2045.746171193523	203.41253398427
2	847	2056.24753373902	207.15801752889
2	848	2057.386469896762	204.35788444419
2	849	2058.728892634765	205.49886676782
2	850	2058.997987106986	201.77293824056
2	851	2064.398684115832	201.47771571599
2	855	2085.485587826552	206.90752033416
2	856	2086.653792734019	196.59642291146
2	861	2098.919213402955	199.60360972104
2	862	2099.010105814273	184.78110524364
2	863	2099.097772720132	178.06211820805
2	864	2099.248119489514	159.17146311018
2	865	2099.308937605556	146.80175915288
2	866	2109.918198560891	153.49279869059
2	872	2119.219054723659	148.51079059801
2	873	2123.889381645549	144.20267263963
2	874	2125.789666536728	136.94023977865
2	877	2128.190910982612	132.87659857382
2	880	2130.902520751681	131.85031524226
2	930	2242.766278122531	224.79409160537
2	940	2261.957148702846	229.86618272571
2	941	2263.924426982443	215.0240988995
2	942	2275.072765523529	225.90522686181
2	943	2287.779171084207	238.37583322291
2	944	2289.350243303045	238.5013403723
2	947	2295.079368605557	239.17611317126
2	952	2301.3687993994	232.21989532863
2	957	2307.180425556792	217.62860498975
2	960	2311.962280916224	215.35220900761
2	1039	2494.427472003835	366.71342052978
3	158	371.826817875947	1
3	161	375.204235405122	1
3	163	377.298172037204	2
3	165	379.790286642821	3
3	167	380.230609116032	4
3	172	387.203879098344	2
3	181	391.229347065333	1
3	184	401.337079352643	2
3	191	430.971627895514	1
3	194	441.068770733571	1
3	197	448.050399855302	1
3	199	448.888924557964	2
3	201	454.227556541109	3
3	205	462.936757577674	2
3	208	464.451762827932	2
3	212	482.727133777193	1
3	215	489.852602183629	1
3	218	493.320106480804	1
3	220	493.914777834505	2
3	229	538.084897973558	1
3	238	568.068108626093	2
3	244	575.990958400427	1
3	246	578.702573058361	2
3	251	610.7389707722	1
3	257	624.032723864378	2
3	259	628.437748163353	3
3	261	632.97263080099	4
3	265	640.254734341694	5
3	268	640.695887759089	5
3	284	684.935548120622	1
3	286	687.234352540307	2
3	288	689.519080182014	3
3	292	704.200972879936	2
3	299	741.520039975603	1
3	304	747.111872888968	2
3	306	747.519356020626	3
3	310	754.49598639057	4
3	312	754.691145169041	5
3	322	776.699738878353	6
3	324	778.856667503739	7
3	327	788.444303878967	8
3	329	788.560835663689	9
3	331	795.722673952149	10
3	334	801.644344775313	11
3	340	815.141148630596	10
3	342	825.694875277944	11
3	347	840.294067758125	12
3	353	852.718307106967	10
3	355	858.599080122192	11
3	357	861.542904145574	12
3	359	868.457770801584	13
3	367	882.893554056111	10
3	379	926.05279973746	5
3	388	960.038896334033	1
3	393	979.668927684915	2
3	399	987.320910046105	3
3	404	1020.590508529909	4
3	407	1026.226935838068	4
3	413	1039.984277950511	1
3	416	1046.913666967642	1
3	419	1052.038364967622	1
3	422	1066.569557467056	1
3	428	1100.326045239576	1
3	431	1104.2466734304	1
3	436	1112.442587626326	1
3	439	1114.2299387861	2
3	443	1118.135647238971	3
3	449	1127.76818682258	4
3	454	1140.20729168527	5
3	458	1150.419259773635	6
3	460	1150.904448295814	7
3	467	1166.309069574946	8
3	469	1170.082336151848	9
3	486	1196.357768476444	10
3	491	1215.008798311394	11
3	496	1233.215973103957	12
3	505	1260.276741563288	11
3	512	1293.194243100738	7
3	519	1300.896968081943	5
3	526	1308.945778575265	5
3	528	1308.979044421299	6
3	530	1309.277159462544	7
3	534	1314.520331515862	8
3	537	1316.066788270936	9
3	539	1320.765333269527	10
3	543	1327.150645960059	9
3	545	1328.031127684426	10
3	552	1339.491585654236	6
3	554	1352.475114614365	7
3	560	1364.13363146199	6
3	564	1371.158285571832	7
3	573	1384.107141602338	7
3	588	1418.936885028479	3
3	593	1464.418027804221	1
3	599	1501.945029561977	1
3	602	1506.932012075696	1
3	605	1517.880315896348	1
3	612	1525.082716663788	2
3	617	1543.972980506721	3
3	628	1569.345582476976	4
3	630	1579.443043964117	5
3	632	1584.329791524	6
3	636	1600.799091286596	7
3	638	1606.721743988844	8
3	641	1613.949102073124	9
3	644	1619.887335542117	10
3	648	1621.238325743434	11
3	652	1624.293827027984	12
3	656	1627.074985573891	13
3	662	1653.501067248497	14
3	664	1656.343140671346	15
3	670	1663.600535998356	14
3	677	1674.147678786224	15
3	682	1685.057938417324	16
3	684	1686.872387944786	17
3	692	1704.727388513786	18
3	702	1720.817587341622	19
3	704	1720.851821911813	20
3	706	1721.875092015846	21
3	710	1730.623533501388	22
3	713	1740.494285760169	23
3	715	1747.191320148696	24
3	726	1769.041783171634	23
3	728	1772.238368202655	24
3	730	1783.865888442547	25
3	734	1787.116090628544	26
3	737	1801.548290900282	27
3	741	1817.786885588567	28
3	744	1836.472723805444	29
3	748	1842.333637209256	29
3	753	1849.089516210132	29
3	755	1853.02858545257	30
3	757	1853.230025866942	31
3	763	1862.920968399841	31
3	775	1890.057369822562	31
3	777	1899.315603681918	32
3	783	1914.229000570631	33
3	786	1921.035654512079	33
3	791	1940.076656379331	31
3	794	1952.507178452678	31
3	802	1970.708264125649	31
3	806	1979.686709005919	31
3	809	1988.849426758076	31
3	814	1995.314312408796	29
3	817	1999.052205509423	29
3	821	2004.408034673664	30
3	826	2017.972186517163	29
3	832	2032.090965977135	28
3	837	2048.900328082947	27
3	839	2049.16753866172	28
3	843	2050.848902930746	29
3	846	2055.903255434299	30
3	858	2089.551820567039	24
3	860	2096.610071908613	25
3	870	2114.163439664741	20
3	876	2127.71405147405	18
3	879	2130.232032826984	18
3	884	2137.018954725423	18
3	886	2142.337046105647	19
3	890	2160.789530527783	20
3	893	2162.834948109455	21
3	895	2162.884150066935	22
3	897	2168.535605100417	23
3	899	2170.37907985514	24
3	903	2171.509863828659	25
3	907	2180.715420786649	26
3	909	2182.527633875887	27
3	914	2192.935543579677	28
3	916	2205.443338955943	29
3	921	2216.213132329422	30
3	929	2238.31625459085	31
3	934	2246.193608276171	31
3	936	2256.730833752014	32
3	938	2258.836453060927	33
3	946	2294.968714434799	29
3	949	2296.719792457182	29
3	951	2299.294790536736	30
3	954	2301.667201606868	30
3	956	2305.487069274372	31
3	959	2311.782884945681	31
3	962	2314.310374183725	31
3	964	2314.622892967314	32
3	968	2320.559193660386	33
3	972	2324.498304216889	34
3	974	2330.581500241578	35
3	979	2335.259599055678	36
3	981	2344.568282050413	37
3	986	2368.737787171397	38
3	990	2369.786074804619	39
3	994	2372.326647240349	40
3	1000	2377.320734082424	41
3	1002	2378.947451240048	42
3	1008	2395.340590741336	43
3	1010	2406.174800840362	44
3	1021	2443.066247245712	45
3	1025	2460.981316128341	46
3	1028	2466.82704072236	47
3	1030	2469.544771188598	48
3	1033	2472.798552947363	49
3	1035	2479.385398736609	50
3	1038	2485.321044617593	51
4	158	371.826817875947	0
4	161	375.204235405122	0
4	168	380.709267344662	3.411095307458
4	169	385.551993628103	5.761706985282
4	170	385.97885047072	5.748241354688
4	173	387.634366136071	0.430487037727
4	182	395.39598591132	4.166638845987
4	187	411.944401367677	10.607322015034
4	188	418.309827329325	10.870295107416
4	191	430.971627895514	0
4	194	441.068770733571	0
4	197	448.050399855302	0
4	202	455.468496391919	6.579571833955
4	203	455.671945844768	1.444389303659
4	206	464.379479034464	1.44272145679
4	209	467.516357187618	3.064594359686
4	212	482.727133777193	0
4	215	489.852602183629	0
4	218	493.320106480804	0
4	221	497.891856881116	3.977079046611
4	230	546.630651383796	8.545753410238
4	236	563.045284266103	14.296467532986
4	239	568.798827499288	0.730718873195
4	247	590.527608701758	14.536650301331
4	248	591.593496457984	12.890923399623
4	251	610.7389707722	0
4	263	637.745652123466	24.903551945958
4	266	640.324292921226	16.291569056848
4	269	646.717997215233	18.28024905188
4	272	649.481165870716	16.508535069726
4	275	657.948806044292	17.694071702598
4	276	658.699963198273	18.004075439184
4	277	660.045500307649	12.974307796073
4	278	661.695708090622	10.066915739966
4	281	680.487289294748	15.221540742818
4	284	684.935548120622	0
4	289	700.551268350777	13.31691581047
4	290	700.732090552958	11.213010370944
4	293	705.376996293543	1.176023413607
4	299	741.520039975603	0
4	302	746.885354193537	0.165150810118
4	332	797.435803216474	50.323930327506
4	335	801.764355109775	54.244999089149
4	336	804.825248512217	53.020846424991
4	343	831.783432607493	77.287446216923
4	348	848.292104977379	93.600959808338
4	349	848.514387769572	71.814648891219
4	350	851.438296542323	72.581629038584
4	351	852.114890257709	63.670586378742
4	360	871.899607733407	83.338772069718
4	361	873.936211316448	78.213537364299
4	362	875.659153178741	74.014808403428
4	363	878.628883181956	68.629919892316
4	371	902.296903836822	87.155755206226
4	372	903.041469215816	77.346593937872
4	373	905.816861924059	69.704134660029
4	374	908.198622183004	67.904554424879
4	375	912.986677382988	60.268370276021
4	376	916.967736812958	58.368656690766
4	377	918.81284548775	57.269941342176
4	380	926.15452109853	57.696750296946
4	381	932.759063004802	52.658025281026
4	382	935.876447369177	52.982893313066
4	383	948.644469498022	22.591669760562
4	402	1017.984196885053	57.94530055102
4	405	1024.909478674606	45.240550989691
4	408	1031.15507617198	43.834166125875
4	409	1032.884085160769	12.29357663086
4	410	1034.225879563674	7.998943725606
4	413	1039.984277950511	0
4	416	1046.913666967642	0
4	419	1052.038364967622	0
4	422	1066.569557467056	0
4	425	1073.310056062072	1.612527869943
4	428	1100.326045239576	0
4	431	1104.2466734304	0
4	437	1113.125668917941	0.683081291615
4	501	1252.814152505673	138.58421371957
4	502	1253.752470925386	135.9686213971
4	503	1258.971470577118	140.83582333815
4	506	1269.088476561265	141.32028973869
4	507	1274.230778330521	134.02348664525
4	508	1275.414887644077	124.99562787044
4	509	1275.466883458523	124.56243516271
4	510	1286.101921594525	119.79285201958
4	513	1293.417896185454	123.33556003361
4	514	1294.343377425009	97.985608948565
4	515	1295.836555099165	80.827756787771
4	520	1301.484013919507	68.26804081555
4	521	1303.045712914379	42.768971351091
4	524	1308.318592502374	15.124349401636
4	535	1315.354605564073	16.704216272194
4	540	1321.73661363717	20.839645555227
4	541	1326.970949177265	18.845863101224
4	546	1328.383690669536	19.437912094271
4	547	1330.361896563197	21.382852141898
4	548	1331.740182674254	22.46302321171
4	549	1334.073525492011	23.785152487261
4	550	1336.217966399972	21.69763488411
4	555	1356.046441213149	39.979652942213
4	556	1356.563212793506	35.797879523979
4	566	1374.292655682223	47.142009722164
4	567	1374.491195150136	46.46006746571
4	581	1396.863780484347	57.372194830111
4	582	1397.90152765583	45.426413041465
4	583	1406.848570209857	47.052021206616
4	584	1414.44284969491	50.30921823292
4	585	1415.188062584886	44.029777013054
4	586	1417.308876739776	39.149169392253
4	589	1428.808821297363	44.701679695025
4	590	1430.891040372724	11.954155344245
4	593	1464.418027804221	0
4	596	1467.731092864187	2.537809693311
4	599	1501.945029561977	0
4	602	1506.932012075696	0
4	605	1517.880315896348	0
4	608	1520.066087351671	2.017553539222
4	613	1534.012440540213	11.897139621099
4	618	1550.448585985756	25.365869321968
4	621	1551.527679737684	10.098784183369
4	624	1560.252400956197	16.279420449476
4	642	1616.76394071605	66.025829975326
4	666	1658.318636312934	101.26117777076
4	667	1660.36515911181	92.033607518882
4	668	1662.121233161387	92.775650684411
4	673	1668.395404651438	88.952360687321
4	678	1675.233656987395	90.903865463395
4	688	1692.235915434872	91.436824148276
4	717	1752.619704413352	145.89796042451
4	720	1756.904109017224	142.9550069441
4	721	1759.089714114195	139.20237857208
4	722	1762.342672422107	142.44793407285
4	745	1837.602944206533	216.3646184631
4	746	1841.778548463968	217.48472143598
4	749	1843.186132957624	216.11114738373
4	758	1856.109130995139	202.60806374664
4	759	1856.782910943507	200.43977027216
4	764	1865.678811386581	202.07827538822
4	767	1872.397069638534	207.90659120881
4	768	1875.329563994525	203.94790874081
4	781	1910.872203568767	236.72452478254
4	784	1917.99600483122	242.72889776967
4	787	1924.51570404221	239.45776562489
4	788	1929.898165735933	243.02577779115
4	789	1931.12025981847	228.37334629893
4	792	1952.313799000994	247.58641048721
4	795	1954.412189712358	233.59460237074
4	798	1964.76030018953	243.90847827772
4	803	1978.117780007531	256.24268799168
4	804	1978.350369478729	247.72683597734
4	807	1986.246049495241	245.75176373507
4	810	1990.972125524377	243.78080537568
4	811	1994.193052928256	238.78720913147
4	812	1994.492010475804	232.03088277357
4	815	1998.184644937404	229.14286176577
4	822	2006.539668128646	234.30129992599
4	823	2009.388181788212	225.52229334566
4	824	2017.627951664345	230.5118610358
4	827	2018.268902102413	216.72061120213
4	828	2024.894533806515	207.10764821795
4	833	2039.225431528104	202.75270772266
4	834	2040.553672766278	198.22003555702
4	835	2045.746171193523	198.35501841211
4	844	2053.299796253838	204.21028004371
4	847	2056.24753373902	203.21894828645
4	848	2057.386469896762	204.15644402982
4	849	2058.728892634765	201.50384376834
4	850	2058.997987106986	196.07701870714
4	851	2064.398684115832	198.12685331782
4	854	2073.81039446196	195.23232696957
4	855	2085.485587826552	195.42821800399
4	856	2086.653792734019	187.3381890521
4	861	2098.919213402955	184.69021283232
4	862	2099.010105814273	177.97445130219
4	863	2099.097772720132	159.0211163408
4	864	2099.248119489514	146.74094103684
4	865	2099.308937605556	142.88353773526
4	866	2109.918198560891	140.0836957676
4	871	2118.656911068981	147.94864694333
4	872	2119.219054723659	139.53234571774
4	873	2123.889381645549	135.03995488747
4	874	2125.789666536728	130.47535412793
4	877	2128.190910982612	129.13870547319
4	880	2130.902520751681	131.3233445887
4	919	2211.584590347614	207.17655567395
4	927	2237.872089452624	219.89990293546
4	930	2242.766278122531	211.23570246915
4	939	2259.742849565506	227.65188358837
4	940	2261.957148702846	213.0568206199
4	941	2263.924426982443	214.75688832072
4	942	2275.072765523529	225.66942766224
4	943	2287.779171084207	236.93026815346
4	944	2289.350243303045	233.44698786875
4	947	2295.079368605557	225.93046453478
4	952	2301.3687993994	211.81697883236
4	957	2307.180425556792	210.57035364818
4	960	2311.962280916224	199.09513141756
4	988	2369.184955572797	255.02151590806
4	1036	2482.464912851755	354.75086137771
4	1039	2494.427472003835	364.19543917685
5	176	390.19208526962	1
5	178	390.552455599804	2
5	186	407.439532221909	1
5	224	518.507968548388	1
5	226	522.173620324886	2
5	232	548.748816733117	1
5	234	550.067618500052	2
5	242	575.666162275779	1
5	253	612.842100177508	1
5	255	623.411592726827	2
5	271	647.071192511576	1
5	274	651.628792350656	1
5	280	665.26574855193	1
5	296	730.723164477223	1
5	301	746.720203383419	1
5	308	751.804402087226	1
5	314	761.533052013322	2
5	316	762.512293667094	3
5	318	766.941994342124	4
5	338	809.99896328964	1
5	345	836.11272726403	1
5	365	880.101037723776	1
5	369	893.1674807599	2
5	386	958.986682587974	1
5	390	961.113788177775	2
5	395	980.006287846102	2
5	397	986.58770618071	3
5	424	1071.697528192129	1
5	434	1107.464074333445	1
5	441	1117.78384952829	1
5	445	1121.017381211308	2
5	447	1124.43115273652	3
5	452	1130.82600363503	3
5	456	1148.533918641737	4
5	465	1164.363948844049	2
5	471	1174.071106898272	3
5	474	1175.776090639092	3
5	477	1182.736178667829	3
5	480	1185.782939051587	3
5	483	1186.137599269998	3
5	489	1214.244314790628	2
5	494	1226.823743164412	2
5	499	1250.476709292462	2
5	517	1298.650389291879	1
5	523	1308.125086076041	1
5	532	1310.28837300475	1
5	558	1359.796549003241	1
5	562	1370.990339914893	2
5	569	1378.159707347523	1
5	571	1380.964876480297	2
5	575	1386.732170890961	3
5	578	1389.108069391996	3
5	595	1465.193283170876	1
5	607	1518.048533812449	1
5	610	1522.115300919114	1
5	615	1541.428895554315	1
5	620	1550.738110740724	1
5	623	1557.057458542175	1
5	626	1568.331551592928	1
5	634	1594.882472076587	2
5	646	1619.894738349259	1
5	650	1624.084042264992	2
5	654	1626.210616034251	3
5	658	1632.846757884736	4
5	672	1664.490478429722	1
5	675	1671.38165525371	1
5	680	1675.267107061551	1
5	686	1689.847971375368	2
5	690	1702.746913519538	1
5	694	1712.497602514756	2
5	697	1714.363548584924	2
5	699	1719.6409964056	3
5	708	1722.58306476235	3
5	719	1755.40584379679	1
5	724	1762.461127702236	1
5	732	1787.059466435055	2
5	739	1809.486314153089	2
5	751	1847.391152781413	1
5	761	1857.225048866429	1
5	766	1866.271830798015	1
5	770	1878.578067492393	1
5	772	1886.757159903634	2
5	779	1903.265596083928	2
5	797	1956.425399870298	1
5	800	1969.834502793289	1
5	819	1999.57917616298	1
5	830	2031.530575653383	1
5	841	2049.403337861292	1
5	853	2069.148904070772	1
5	868	2112.867149498668	1
5	882	2134.440791909142	1
5	888	2157.212802221385	2
5	901	2171.380613717592	2
5	905	2171.740503012916	3
5	911	2187.341514577323	4
5	923	2219.535531233618	1
5	925	2223.8424989331	2
5	932	2245.658919910221	1
5	966	2315.1814443388	1
5	970	2322.283976249027	2
5	976	2331.248097080117	3
5	983	2346.228359067299	3
5	992	2370.716186367381	1
5	996	2375.068077861533	2
5	998	2375.806323096909	3
5	1004	2379.965256529779	4
5	1006	2385.250852286311	5
5	1013	2413.808996696861	5
5	1015	2423.704403934987	6
5	1019	2439.323409864084	5
6	176	390.19208526962	0
6	178	390.552455599804	1
6	179	390.886670064108	1
6	182	395.39598591132	0
6	186	407.439532221909	0
6	187	411.944401367677	0
6	224	518.507968548388	0
6	226	522.173620324886	1
6	227	529.641722735419	1
6	230	546.630651383796	0
6	232	548.748816733117	0
6	234	550.067618500052	1
6	235	557.344300490781	1
6	236	563.045284266103	0
6	242	575.666162275779	0
6	247	590.527608701758	0
6	253	612.842100177508	0
6	255	623.411592726827	1
6	262	633.209258723716	1
6	263	637.745652123466	0
6	271	647.071192511576	0
6	272	649.481165870716	0
6	274	651.628792350656	0
6	275	657.948806044292	0
6	280	665.26574855193	0
6	281	680.487289294748	0
6	296	730.723164477223	0
6	297	730.762810196682	0
6	301	746.720203383419	0
6	302	746.885354193537	0
6	308	751.804402087226	0
6	314	761.533052013322	1
6	316	762.512293667094	2
6	318	766.941994342124	3
6	319	767.371720922611	3
6	320	776.455082737918	2
6	325	782.92356335714	1
6	332	797.435803216474	0
6	338	809.99896328964	0
6	343	831.783432607493	0
6	345	836.11272726403	0
6	348	848.292104977379	0
6	365	880.101037723776	0
6	369	893.1674807599	1
6	370	896.778432315333	1
6	371	902.296903836822	0
6	386	958.986682587974	0
6	390	961.113788177775	1
6	391	967.576622791191	1
6	395	980.006287846102	1
6	397	986.58770618071	2
6	400	1001.245606069521	2
6	401	1017.82413266571	1
6	402	1017.984196885053	0
6	424	1071.697528192129	0
6	425	1073.310056062072	0
6	434	1107.464074333445	0
6	437	1113.125668917941	0
6	441	1117.78384952829	0
6	445	1121.017381211308	1
6	447	1124.43115273652	2
6	450	1129.951233691347	2
6	452	1130.82600363503	2
6	456	1148.533918641737	3
6	461	1152.924329728578	3
6	462	1153.101995999427	2
6	463	1156.085995333801	1
6	465	1164.363948844049	1
6	471	1174.071106898272	2
6	472	1175.070330146464	2
6	474	1175.776090639092	2
6	475	1177.008350566346	2
6	477	1182.736178667829	2
6	478	1185.302992654773	2
6	480	1185.782939051587	2
6	481	1186.131295458429	2
6	483	1186.137599269998	2
6	484	1196.29659010985	2
6	487	1197.92714668533	1
6	489	1214.244314790628	1
6	492	1223.26282874798	1
6	494	1226.823743164412	1
6	497	1248.690866859136	1
6	499	1250.476709292462	1
6	500	1252.51989687219	1
6	501	1252.814152505673	0
6	517	1298.650389291879	0
6	520	1301.484013919507	0
6	523	1308.125086076041	0
6	524	1308.318592502374	0
6	532	1310.28837300475	0
6	535	1315.354605564073	0
6	558	1359.796549003241	0
6	562	1370.990339914893	1
6	565	1371.66421719857	1
6	566	1374.292655682223	0
6	569	1378.159707347523	0
6	571	1380.964876480297	1
6	575	1386.732170890961	2
6	576	1386.960241213097	2
6	578	1389.108069391996	2
6	579	1392.807671684868	2
6	580	1394.262363459473	1
6	581	1396.863780484347	0
6	595	1465.193283170876	0
6	596	1467.731092864187	0
6	607	1518.048533812449	0
6	608	1520.066087351671	0
6	610	1522.115300919114	0
6	613	1534.012440540213	0
6	615	1541.428895554315	0
6	618	1550.448585985756	0
6	620	1550.738110740724	0
6	621	1551.527679737684	0
6	623	1557.057458542175	0
6	624	1560.252400956197	0
6	626	1568.331551592928	0
6	634	1594.882472076587	1
6	639	1612.158306160482	1
6	642	1616.76394071605	0
6	646	1619.894738349259	0
6	650	1624.084042264992	1
6	654	1626.210616034251	2
6	658	1632.846757884736	3
6	659	1633.4249814073	3
6	660	1640.34246526008	2
6	665	1657.442659063255	1
6	666	1658.318636312934	0
6	672	1664.490478429722	0
6	673	1668.395404651438	0
6	675	1671.38165525371	0
6	678	1675.233656987395	0
6	680	1675.267107061551	0
6	686	1689.847971375368	1
6	687	1689.95867862979	1
6	688	1692.235915434872	0
6	690	1702.746913519538	0
6	694	1712.497602514756	1
6	695	1713.829368420709	1
6	697	1714.363548584924	1
6	699	1719.6409964056	2
6	700	1720.675670691263	2
6	708	1722.58306476235	2
6	711	1732.415731456567	2
6	716	1750.487930183346	1
6	717	1752.619704413352	0
6	719	1755.40584379679	0
6	720	1756.904109017224	0
6	724	1762.461127702236	0
6	732	1787.059466435055	1
6	735	1796.477649640863	1
6	739	1809.486314153089	1
6	742	1828.739452336738	1
6	745	1837.602944206533	0
6	751	1847.391152781413	0
6	758	1856.109130995139	0
6	761	1857.225048866429	0
6	764	1865.678811386581	0
6	766	1866.271830798015	0
6	767	1872.397069638534	0
6	770	1878.578067492393	0
6	772	1886.757159903634	1
6	773	1889.276363514772	1
6	779	1903.265596083928	1
6	780	1910.608716081677	1
6	781	1910.872203568767	0
6	797	1956.425399870298	0
6	798	1964.76030018953	0
6	800	1969.834502793289	0
6	803	1978.117780007531	0
6	819	1999.57917616298	0
6	822	2006.539668128646	0
6	830	2031.530575653383	0
6	833	2039.225431528104	0
6	841	2049.403337861292	0
6	844	2053.299796253838	0
6	853	2069.148904070772	0
6	854	2073.81039446196	0
6	868	2112.867149498668	0
6	871	2118.656911068981	0
6	882	2134.440791909142	0
6	888	2157.212802221385	1
6	891	2162.06552698431	1
6	901	2171.380613717592	1
6	905	2171.740503012916	2
6	911	2187.341514577323	3
6	912	2187.827414254189	3
6	917	2208.89093103677	2
6	918	2209.313069457938	1
6	919	2211.584590347614	0
6	923	2219.535531233618	0
6	925	2223.8424989331	1
6	926	2237.801175621272	1
6	927	2237.872089452624	0
6	932	2245.658919910221	0
6	939	2259.742849565506	0
6	966	2315.1814443388	0
6	970	2322.283976249027	1
6	976	2331.248097080117	2
6	977	2331.473101730265	2
6	983	2346.228359067299	2
6	984	2354.405288602965	2
6	987	2369.165581887684	1
6	988	2369.184955572797	0
6	992	2370.716186367381	0
6	996	2375.068077861533	1
6	998	2375.806323096909	2
6	1004	2379.965256529779	3
6	1006	2385.250852286311	4
6	1011	2406.806995639866	4
6	1013	2413.808996696861	4
6	1015	2423.704403934987	5
6	1016	2425.547978012242	5
6	1017	2433.700283288556	4
6	1019	2439.323409864084	4
6	1022	2446.718917067725	4
6	1023	2455.286117303141	3
6	1026	2461.300565596631	2
6	1031	2472.449932804364	1
6	1036	2482.464912851755	0
7	176	390.19208526962	0
7	179	390.886670064108	0.334214464304
7	186	407.439532221909	0
7	224	518.507968548388	0
7	227	529.641722735419	7.468102410533
7	232	548.748816733117	0
7	235	557.344300490781	7.276681990729
7	242	575.666162275779	0
7	253	612.842100177508	0
7	262	633.209258723716	9.797665996889
7	271	647.071192511576	0
7	274	651.628792350656	0
7	280	665.26574855193	0
7	296	730.723164477223	0
7	301	746.720203383419	0
7	308	751.804402087226	0
7	319	767.371720922611	5.838668909289
7	320	776.455082737918	13.942789070824
7	325	782.92356335714	15.981569015016
7	338	809.99896328964	0
7	345	836.11272726403	0
7	365	880.101037723776	0
7	370	896.778432315333	3.610951555433
7	386	958.986682587974	0
7	391	967.576622791191	6.462834613416
7	400	1001.245606069521	21.239318223419
7	401	1017.82413266571	31.236426485
7	424	1071.697528192129	0
7	434	1107.464074333445	0
7	441	1117.78384952829	0
7	450	1129.951233691347	8.933852480039
7	461	1152.924329728578	28.493176992058
7	462	1153.101995999427	22.275992364397
7	463	1156.085995333801	7.552076692064
7	472	1175.070330146464	10.706381302415
7	475	1177.008350566346	2.937243668074
7	478	1185.302992654773	9.526902015681
7	481	1186.131295458429	3.3951167906
7	484	1196.29659010985	10.513651058263
7	487	1197.92714668533	11.789547415332
7	492	1223.26282874798	9.018513957352
7	497	1248.690866859136	21.867123694724
7	500	1252.51989687219	2.043187579728
7	517	1298.650389291879	0
7	523	1308.125086076041	0
7	532	1310.28837300475	0
7	558	1359.796549003241	0
7	565	1371.66421719857	0.673877283677
7	569	1378.159707347523	0
7	576	1386.960241213097	5.9953647328
7	579	1392.807671684868	6.075500793907
7	580	1394.262363459473	5.154294067477
7	595	1465.193283170876	0
7	607	1518.048533812449	0
7	610	1522.115300919114	0
7	615	1541.428895554315	0
7	620	1550.738110740724	0
7	623	1557.057458542175	0
7	626	1568.331551592928	0
7	639	1612.158306160482	17.275834083895
7	646	1619.894738349259	0
7	659	1633.4249814073	9.340939142308
7	660	1640.34246526008	14.131849225829
7	665	1657.442659063255	24.595901178519
7	672	1664.490478429722	0
7	675	1671.38165525371	0
7	680	1675.267107061551	0
7	687	1689.95867862979	0.110707254422
7	690	1702.746913519538	0
7	695	1713.829368420709	1.331765905953
7	700	1720.675670691263	6.312122106339
7	711	1732.415731456567	12.774735050967
7	716	1750.487930183346	27.904865420996
7	719	1755.40584379679	0
7	724	1762.461127702236	0
7	735	1796.477649640863	9.418183205808
7	742	1828.739452336738	19.253138183649
7	751	1847.391152781413	0
7	761	1857.225048866429	0
7	766	1866.271830798015	0
7	770	1878.578067492393	0
7	773	1889.276363514772	2.519203611138
7	780	1910.608716081677	7.343119997749
7	797	1956.425399870298	0
7	800	1969.834502793289	0
7	819	1999.57917616298	0
7	830	2031.530575653383	0
7	841	2049.403337861292	0
7	853	2069.148904070772	0
7	868	2112.867149498668	0
7	882	2134.440791909142	0
7	891	2162.06552698431	4.852724762925
7	912	2187.827414254189	16.446800536597
7	917	2208.89093103677	37.150428023854
7	918	2209.313069457938	21.971554880615
7	923	2219.535531233618	0
7	926	2237.801175621272	13.958676688172
7	932	2245.658919910221	0
7	966	2315.1814443388	0
7	977	2331.473101730265	9.189125481238
7	984	2354.405288602965	23.157191522848
7	987	2369.165581887684	22.937222820385
7	992	2370.716186367381	0
7	1011	2406.806995639866	31.738917778333
7	1016	2425.547978012242	49.741654915333
7	1017	2433.700283288556	53.735026758777
7	1022	2446.718917067725	61.468064781414
7	1023	2455.286117303141	41.47712060628
7	1026	2461.300565596631	37.596161661644
7	1031	2472.449932804364	33.12652294028
8	179	390.886670064108	22
8	182	395.39598591132	23
8	187	411.944401367677	24
8	227	529.641722735419	25
8	230	546.630651383796	26
8	235	557.344300490781	27
8	236	563.045284266103	28
8	247	590.527608701758	29
8	262	633.209258723716	30
8	263	637.745652123466	31
8	272	649.481165870716	32
8	275	657.948806044292	33
8	281	680.487289294748	34
8	297	730.762810196682	35
8	302	746.885354193537	36
8	319	767.371720922611	37
8	320	776.455082737918	38
8	325	782.92356335714	39
8	332	797.435803216474	40
8	343	831.783432607493	41
8	348	848.292104977379	42
8	370	896.778432315333	43
8	371	902.296903836822	44
8	391	967.576622791191	45
8	400	1001.245606069521	46
8	401	1017.82413266571	47
8	402	1017.984196885053	48
8	425	1073.310056062072	49
8	437	1113.125668917941	50
8	450	1129.951233691347	51
8	461	1152.924329728578	52
8	462	1153.101995999427	53
8	463	1156.085995333801	54
8	472	1175.070330146464	55
8	475	1177.008350566346	56
8	478	1185.302992654773	57
8	481	1186.131295458429	58
8	484	1196.29659010985	59
8	487	1197.92714668533	60
8	492	1223.26282874798	61
8	497	1248.690866859136	62
8	500	1252.51989687219	63
8	501	1252.814152505673	64
8	520	1301.484013919507	65
8	524	1308.318592502374	66
8	535	1315.354605564073	67
8	565	1371.66421719857	68
8	566	1374.292655682223	69
8	576	1386.960241213097	70
8	579	1392.807671684868	71
8	580	1394.262363459473	72
8	581	1396.863780484347	73
8	596	1467.731092864187	74
8	608	1520.066087351671	75
8	613	1534.012440540213	76
8	618	1550.448585985756	77
8	621	1551.527679737684	78
8	624	1560.252400956197	79
8	639	1612.158306160482	80
8	642	1616.76394071605	81
8	659	1633.4249814073	82
8	660	1640.34246526008	83
8	665	1657.442659063255	84
8	666	1658.318636312934	85
8	673	1668.395404651438	86
8	678	1675.233656987395	87
8	687	1689.95867862979	88
8	688	1692.235915434872	89
8	695	1713.829368420709	90
8	700	1720.675670691263	91
8	711	1732.415731456567	92
8	716	1750.487930183346	93
8	717	1752.619704413352	94
8	720	1756.904109017224	95
8	735	1796.477649640863	96
8	742	1828.739452336738	97
8	745	1837.602944206533	98
8	758	1856.109130995139	99
8	764	1865.678811386581	100
8	767	1872.397069638534	101
8	773	1889.276363514772	102
8	780	1910.608716081677	103
8	781	1910.872203568767	104
8	798	1964.76030018953	105
8	803	1978.117780007531	106
8	822	2006.539668128646	107
8	833	2039.225431528104	108
8	844	2053.299796253838	109
8	854	2073.81039446196	110
8	871	2118.656911068981	111
8	891	2162.06552698431	112
8	912	2187.827414254189	113
8	917	2208.89093103677	114
8	918	2209.313069457938	115
8	919	2211.584590347614	116
8	926	2237.801175621272	117
8	927	2237.872089452624	118
8	939	2259.742849565506	119
8	977	2331.473101730265	120
8	984	2354.405288602965	121
8	987	2369.165581887684	122
8	988	2369.184955572797	123
8	1011	2406.806995639866	124
8	1016	2425.547978012242	125
8	1017	2433.700283288556	126
8	1022	2446.718917067725	127
8	1023	2455.286117303141	128
8	1026	2461.300565596631	129
8	1031	2472.449932804364	130
8	1036	2482.464912851755	131
9	179	390.886670064108	0.694584794488
9	182	395.39598591132	4.843530311516
9	187	411.944401367677	4.504869145768
9	227	529.641722735419	11.133754187031
9	230	546.630651383796	24.45703105891
9	235	557.344300490781	8.595483757664
9	236	563.045284266103	12.977665766051
9	247	590.527608701758	14.861446425979
9	262	633.209258723716	20.367158546208
9	263	637.745652123466	14.334059396639
9	272	649.481165870716	2.40997335914
9	275	657.948806044292	6.320013693636
9	281	680.487289294748	15.221540742818
9	297	730.762810196682	0.039645719459
9	302	746.885354193537	0.165150810118
9	319	767.371720922611	15.567318835385
9	320	776.455082737918	14.922030724596
9	325	782.92356335714	20.411269690046
9	332	797.435803216474	30.49380887435
9	343	831.783432607493	21.784469317853
9	348	848.292104977379	12.179377713349
9	370	896.778432315333	16.677394591557
9	371	902.296903836822	9.129423076922
9	391	967.576622791191	8.589940203217
9	400	1001.245606069521	40.131817891746
9	401	1017.82413266571	37.817844819608
9	402	1017.984196885053	31.396490704343
9	425	1073.310056062072	1.612527869943
9	437	1113.125668917941	5.661594584496
9	450	1129.951233691347	12.167384163057
9	461	1152.924329728578	31.90694851727
9	462	1153.101995999427	28.670843262907
9	463	1156.085995333801	25.259991698771
9	472	1175.070330146464	26.536411504727
9	475	1177.008350566346	12.644401722297
9	478	1185.302992654773	11.231885756501
9	481	1186.131295458429	10.355204819337
9	484	1196.29659010985	13.560411442021
9	487	1197.92714668533	12.144207633743
9	492	1223.26282874798	37.125229477982
9	497	1248.690866859136	34.446552068508
9	500	1252.51989687219	25.696153707778
9	501	1252.814152505673	2.337443213211
9	520	1301.484013919507	2.833624627628
9	524	1308.318592502374	0.193506426333
9	535	1315.354605564073	5.066232559323
9	565	1371.66421719857	11.867668195329
9	566	1374.292655682223	3.30231576733
9	576	1386.960241213097	8.800533865574
9	579	1392.807671684868	11.842795204571
9	580	1394.262363459473	7.530192568512
9	581	1396.863780484347	7.755711092351
9	596	1467.731092864187	2.537809693311
9	608	1520.066087351671	2.017553539222
9	613	1534.012440540213	11.897139621099
9	618	1550.448585985756	9.019690431441
9	621	1551.527679737684	0.78956899696
9	624	1560.252400956197	3.194942414022
9	639	1612.158306160482	43.826754567554
9	642	1616.76394071605	21.881468639463
9	659	1633.4249814073	13.530243058041
9	660	1640.34246526008	16.258422995088
9	665	1657.442659063255	31.232043029004
9	666	1658.318636312934	25.471878428198
9	673	1668.395404651438	3.904926221716
9	678	1675.233656987395	3.852001733685
9	687	1689.95867862979	14.691571568239
9	688	1692.235915434872	2.387944059504
9	695	1713.829368420709	11.082454901171
9	700	1720.675670691263	8.178068176507
9	711	1732.415731456567	18.052182871643
9	716	1750.487930183346	30.846933777746
9	717	1752.619704413352	30.036639651002
9	720	1756.904109017224	1.498265220434
9	735	1796.477649640863	34.016521938627
9	742	1828.739452336738	41.679985901683
9	745	1837.602944206533	28.116630053444
9	758	1856.109130995139	8.717978213726
9	764	1865.678811386581	8.453762520152
9	767	1872.397069638534	6.125238840519
9	773	1889.276363514772	10.698296022379
9	780	1910.608716081677	23.851556178043
9	781	1910.872203568767	7.606607484839
9	798	1964.76030018953	8.334900319232
9	803	1978.117780007531	8.283277214242
9	822	2006.539668128646	6.960491965666
9	833	2039.225431528104	7.694855874721
9	844	2053.299796253838	3.896458392546
9	854	2073.81039446196	4.661490391188
9	871	2118.656911068981	5.789761570313
9	891	2162.06552698431	27.624735075168
9	912	2187.827414254189	30.614612032804
9	917	2208.89093103677	37.510317319178
9	918	2209.313069457938	37.572566445022
9	919	2211.584590347614	24.243075770291
9	926	2237.801175621272	18.265644387654
9	927	2237.872089452624	14.029590519524
9	939	2259.742849565506	14.083929655285
9	977	2331.473101730265	16.291657391465
9	984	2354.405288602965	32.121312353938
9	987	2369.165581887684	37.917484807567
9	988	2369.184955572797	22.956596505498
9	1011	2406.806995639866	36.090809272485
9	1016	2425.547978012242	50.479900150709
9	1017	2433.700283288556	57.893960191647
9	1022	2446.718917067725	66.753660537946
9	1023	2455.286117303141	70.03526501683
9	1026	2461.300565596631	47.49156889977
9	1031	2472.449932804364	48.745528869377
9	1036	2482.464912851755	43.141502987671
10	186	407.439532221909	9
10	232	548.748816733117	10
10	253	612.842100177508	11
10	271	647.071192511576	12
10	274	651.628792350656	13
10	280	665.26574855193	14
10	301	746.720203383419	15
10	308	751.804402087226	16
10	338	809.99896328964	17
10	345	836.11272726403	18
10	365	880.101037723776	19
10	424	1071.697528192129	20
10	441	1117.78384952829	21
10	517	1298.650389291879	22
10	523	1308.125086076041	23
10	532	1310.28837300475	24
10	558	1359.796549003241	25
10	569	1378.159707347523	26
10	595	1465.193283170876	27
10	607	1518.048533812449	28
10	610	1522.115300919114	29
10	615	1541.428895554315	30
10	620	1550.738110740724	31
10	623	1557.057458542175	32
10	626	1568.331551592928	33
10	646	1619.894738349259	34
10	672	1664.490478429722	35
10	675	1671.38165525371	36
10	680	1675.267107061551	37
10	690	1702.746913519538	38
10	719	1755.40584379679	39
10	724	1762.461127702236	40
10	751	1847.391152781413	41
10	761	1857.225048866429	42
10	766	1866.271830798015	43
10	770	1878.578067492393	44
10	797	1956.425399870298	45
10	800	1969.834502793289	46
10	819	1999.57917616298	47
10	830	2031.530575653383	48
10	841	2049.403337861292	49
10	853	2069.148904070772	50
10	868	2112.867149498668	51
10	882	2134.440791909142	52
10	923	2219.535531233618	53
10	932	2245.658919910221	54
10	966	2315.1814443388	55
10	992	2370.716186367381	56
11	1040	2500	0.0728
12	1040	2500	0.0524

