version 2
run experiments_medium_game_mode1-1125-20230311-09:43:54-14316
attr configname experiments_medium_game_mode1
attr datetime 20230311-09:43:54
attr experiment experiments_medium_game_mode1
attr inifile omnetpp.ini
attr iterationvars "$0=6.5, $1=6, $2=100"
attr iterationvarsf 6.5,6,100-
attr measurement "$0=6.5, $1=6, $2=100"
attr network Network
attr processid 14316
attr repetition 15
attr replication #15
attr resultdir results
attr runnumber 1125
attr seedset 15
param *.boss.arrival_mean 20
param *.boss.service_mean 6.5
param *.minion.arrival_mean 10
param *.minion.service_mean 6
param *.player.recover_rate_x 100
param **.minion.arrival_distribution 0
param **.minion.service_distribution 0
param **.boss.arrival_distribution 0
param **.boss.service_distribution 0

vector 0 Network.player minion_defeated_stat:vector ETV
attr source signal_minion_defeated
vector 1 Network.player minion_jobs_queue_number_stat:vector ETV
attr source signal_minion_jobs_queue_number
vector 2 Network.player minion_response_time_stat:vector ETV
attr source signal_minion_response_time
vector 3 Network.player minion_jobs_number_stat:vector ETV
attr source signal_minion_jobs_number
vector 4 Network.player minion_waiting_time_stat:vector ETV
attr source signal_minion_waiting_time
vector 5 Network.player boss_jobs_number_stat:vector ETV
attr source signal_boss_jobs_number
vector 6 Network.player boss_jobs_queue_number_stat:vector ETV
attr source signal_boss_jobs_queue_number
vector 7 Network.player minion_recovered_stat:vector ETV
attr source signal_minion_recovered
vector 8 Network.player boss_waiting_time_stat:vector ETV
attr source signal_boss_waiting_time
vector 9 Network.player boss_defeated_stat:vector ETV
attr source signal_boss_defeated
vector 10 Network.player boss_response_time_stat:vector ETV
attr source signal_boss_response_time
vector 11 Network.player minion_throughput:vector ETV
attr source signal_minion_throughput
vector 12 Network.player boss_throughput:vector ETV
attr source signal_boss_throughput
0	156	360.530107189419	31
0	159	375.188227981008	32
0	168	381.810273732571	33
0	171	387.621545272701	34
0	172	388.133773483841	35
0	173	390.120392282262	36
0	182	394.841081073174	37
0	188	418.982263302219	38
0	189	429.164070601723	39
0	192	431.612684315202	40
0	197	448.533832292413	41
0	202	457.435548136354	42
0	203	457.679687479773	43
0	208	468.128727307408	44
0	209	471.892981091193	45
0	212	483.802808700822	46
0	213	486.550262225734	47
0	216	492.331609040033	48
0	221	498.806206961179	49
0	222	499.870447426201	50
0	237	564.429083255212	51
0	240	575.359599370468	52
0	248	589.825147819099	53
0	249	590.31954263812	54
0	264	637.951319598326	55
0	269	645.623764751134	56
0	276	658.007526136584	57
0	277	659.622170667836	58
0	278	660.675824428533	59
0	282	680.422371347319	60
0	289	703.674412396808	61
0	290	703.891399039425	62
0	293	709.465285928127	63
0	294	720.687399891164	64
0	333	796.545878671201	65
0	334	800.218950754131	66
0	344	835.696011476914	67
0	345	835.962750827545	68
0	351	847.480100407396	69
0	360	871.221761378233	70
0	361	873.665685677883	71
0	362	875.733215912635	72
0	363	879.296891916493	73
0	372	900.230933476542	74
0	373	903.561404726433	75
0	374	907.063684619531	76
0	375	912.809350859512	77
0	376	917.586622175476	78
0	377	919.800752585226	79
0	380	928.610763318161	80
0	381	936.536213605688	81
0	382	937.838499553744	82
0	383	953.160126108358	83
0	402	1014.901916820703	84
0	405	1023.212254968166	85
0	408	1030.706971965014	86
0	409	1032.781782751561	87
0	410	1034.391936035047	88
0	411	1035.679075395016	89
0	416	1047.20465056198	90
0	417	1049.016011306908	91
0	420	1055.889793955864	92
0	426	1077.480160027649	93
0	429	1102.833300228892	94
0	437	1113.159425586507	95
0	472	1170.237732531595	96
0	500	1246.443728682864	97
0	501	1247.864659859132	98
0	502	1247.927054836467	99
0	506	1259.510900350596	100
0	509	1260.621477838062	101
0	510	1265.904130515207	102
0	511	1277.997146215118	103
0	512	1279.788959424105	104
0	513	1288.72347956292	105
0	514	1290.597518356767	106
0	522	1308.107747262041	107
0	541	1320.96031053761	108
0	542	1324.938136466925	109
0	545	1327.311983539318	110
0	548	1328.965926872586	111
0	549	1331.765938253895	112
0	550	1338.153808598098	113
0	560	1370.701987335622	114
0	566	1373.506567295555	115
0	581	1395.615200671884	116
0	582	1406.351651736717	117
0	583	1410.459981802246	118
0	584	1411.354237270217	119
0	587	1421.887625693267	120
0	588	1424.432602679135	121
0	589	1438.081904964572	122
0	590	1440.580567855005	123
0	591	1445.009432338486	124
0	597	1488.081487405157	125
0	600	1502.877222372971	126
0	603	1507.722912341096	127
0	643	1616.567786818773	128
0	668	1657.306789561473	129
0	669	1662.409789376363	130
0	690	1694.444302722805	131
0	691	1698.347852692299	132
0	692	1699.405296817735	133
0	725	1757.512876259208	134
0	726	1758.228921094582	135
0	752	1843.143490158239	136
0	770	1878.039325158933	137
0	784	1909.12556840818	138
0	785	1911.907793262329	139
0	788	1914.425862115965	140
0	789	1916.102361969177	141
0	792	1929.276490513672	142
0	793	1939.631323017583	143
0	794	1939.91043038302	144
0	797	1949.385246402834	145
0	800	1955.056537637797	146
0	811	1985.990034378837	147
0	816	1997.550904044133	148
0	824	2015.499326384583	149
0	825	2016.268466910265	150
0	828	2024.219224955188	151
0	834	2039.793340230616	152
0	835	2046.024338343309	153
0	840	2049.390341118965	154
0	846	2054.146991857456	155
0	847	2055.75789914306	156
0	850	2063.699256852135	157
0	858	2103.70925022625	158
0	859	2104.9778492153	159
0	860	2106.37969510426	160
0	866	2117.994013753188	161
0	867	2118.099214040219	162
0	868	2118.279630163477	163
0	869	2118.352611902727	164
0	870	2121.732930716016	165
0	875	2131.804052326907	166
0	876	2132.478624712521	167
0	914	2203.579092425233	168
0	917	2206.460585760294	169
0	918	2209.714517483177	170
0	919	2211.929215045827	171
0	930	2241.300241427312	172
0	940	2260.522151242943	173
0	941	2262.88288517846	174
0	942	2276.260891427763	175
0	943	2279.798128657168	176
0	944	2281.683415319774	177
0	945	2288.558365682788	178
0	946	2290.456667845296	179
0	951	2297.430619234166	180
0	956	2303.168845665485	181
0	965	2315.027884436589	182
0	1040	2487.039855640252	183
0	1041	2491.957268895592	184
0	1042	2497.769607770867	185
1	156	360.530107189419	0
1	158	371.826817875947	0
1	159	375.188227981008	0
1	161	375.204235405122	0
1	163	377.298172037204	1
1	165	379.790286642821	2
1	167	380.230609116032	3
1	168	381.810273732571	3
1	170	387.203879098344	3
1	171	387.621545272701	3
1	172	388.133773483841	2
1	173	390.120392282262	1
1	180	391.229347065333	1
1	182	394.841081073174	1
1	184	401.337079352643	1
1	188	418.982263302219	1
1	189	429.164070601723	0
1	191	430.971627895514	0
1	192	431.612684315202	0
1	194	441.068770733571	0
1	196	448.050399855302	1
1	197	448.533832292413	1
1	199	448.888924557964	1
1	201	454.227556541109	2
1	202	457.435548136354	2
1	203	457.679687479773	1
1	205	462.936757577674	1
1	207	464.451762827932	2
1	208	468.128727307408	2
1	209	471.892981091193	1
1	211	482.727133777193	1
1	212	483.802808700822	1
1	213	486.550262225734	0
1	215	489.852602183629	0
1	216	492.331609040033	0
1	218	493.320106480804	0
1	220	493.914777834505	1
1	221	498.806206961179	1
1	222	499.870447426201	0
1	229	538.084897973558	0
1	237	564.429083255212	0
1	239	568.068108626093	0
1	240	575.359599370468	0
1	244	575.990958400427	0
1	246	578.702573058361	1
1	248	589.825147819099	1
1	249	590.31954263812	0
1	251	610.7389707722	0
1	257	624.032723864378	1
1	259	628.437748163353	2
1	262	632.97263080099	3
1	264	637.951319598326	3
1	266	640.254734341694	3
1	268	640.695887759089	4
1	269	645.623764751134	4
1	276	658.007526136584	3
1	277	659.622170667836	2
1	278	660.675824428533	1
1	282	680.422371347319	0
1	284	684.935548120622	0
1	286	687.234352540307	1
1	288	689.519080182014	2
1	289	703.674412396808	2
1	290	703.891399039425	1
1	292	704.200972879936	1
1	293	709.465285928127	1
1	294	720.687399891164	0
1	299	741.520039975603	0
1	304	747.111872888968	1
1	306	747.519356020626	2
1	310	754.49598639057	3
1	312	754.691145169041	4
1	322	776.699738878353	5
1	325	778.856667503739	6
1	327	788.444303878967	7
1	329	788.560835663689	8
1	332	795.722673952149	9
1	333	796.545878671201	9
1	334	800.218950754131	8
1	336	801.644344775313	8
1	340	815.141148630596	9
1	342	825.694875277944	10
1	344	835.696011476914	10
1	345	835.962750827545	9
1	349	840.294067758125	9
1	351	847.480100407396	9
1	353	852.718307106967	9
1	355	858.599080122192	10
1	357	861.542904145574	11
1	359	868.457770801584	12
1	360	871.221761378233	12
1	361	873.665685677883	11
1	362	875.733215912635	10
1	363	879.296891916493	9
1	367	882.893554056111	9
1	372	900.230933476542	9
1	373	903.561404726433	8
1	374	907.063684619531	7
1	375	912.809350859512	6
1	376	917.586622175476	5
1	377	919.800752585226	4
1	379	926.05279973746	4
1	380	928.610763318161	4
1	381	936.536213605688	3
1	382	937.838499553744	2
1	383	953.160126108358	1
1	387	960.038896334033	1
1	392	979.668927684915	2
1	398	987.320910046105	3
1	402	1014.901916820703	3
1	404	1020.590508529909	3
1	405	1023.212254968166	3
1	407	1026.226935838068	3
1	408	1030.706971965014	3
1	409	1032.781782751561	2
1	410	1034.391936035047	1
1	411	1035.679075395016	0
1	413	1039.984277950511	0
1	415	1046.913666967642	1
1	416	1047.20465056198	1
1	417	1049.016011306908	0
1	419	1052.038364967622	0
1	420	1055.889793955864	0
1	422	1066.569557467056	0
1	426	1077.480160027649	0
1	428	1100.326045239576	0
1	429	1102.833300228892	0
1	431	1104.2466734304	0
1	436	1112.442587626326	1
1	437	1113.159425586507	1
1	439	1114.2299387861	1
1	443	1118.135647238971	2
1	449	1127.76818682258	3
1	454	1140.20729168527	4
1	460	1150.419259773635	5
1	462	1150.904448295814	6
1	467	1166.309069574946	7
1	471	1170.082336151848	8
1	472	1170.237732531595	8
1	488	1196.357768476444	8
1	493	1215.008798311394	9
1	497	1233.215973103957	10
1	500	1246.443728682864	10
1	501	1247.864659859132	9
1	502	1247.927054836467	8
1	506	1259.510900350596	7
1	508	1260.276741563288	7
1	509	1260.621477838062	7
1	510	1265.904130515207	6
1	511	1277.997146215118	5
1	512	1279.788959424105	4
1	513	1288.72347956292	3
1	514	1290.597518356767	2
1	516	1293.194243100738	2
1	520	1300.896968081943	3
1	522	1308.107747262041	3
1	527	1308.945778575265	3
1	529	1308.979044421299	4
1	531	1309.277159462544	5
1	535	1314.520331515862	6
1	538	1316.066788270936	7
1	540	1320.765333269527	8
1	541	1320.96031053761	8
1	542	1324.938136466925	7
1	544	1327.150645960059	7
1	545	1327.311983539318	7
1	547	1328.031127684426	7
1	548	1328.965926872586	7
1	549	1331.765938253895	6
1	550	1338.153808598098	5
1	552	1339.491585654236	5
1	554	1352.475114614365	6
1	558	1364.13363146199	7
1	560	1370.701987335622	7
1	564	1371.158285571832	7
1	566	1373.506567295555	7
1	572	1384.107141602338	7
1	581	1395.615200671884	7
1	582	1406.351651736717	6
1	583	1410.459981802246	5
1	584	1411.354237270217	4
1	586	1418.936885028479	4
1	587	1421.887625693267	4
1	588	1424.432602679135	3
1	589	1438.081904964572	2
1	590	1440.580567855005	1
1	591	1445.009432338486	0
1	593	1464.418027804221	0
1	597	1488.081487405157	0
1	599	1501.945029561977	0
1	600	1502.877222372971	0
1	602	1506.932012075696	0
1	603	1507.722912341096	0
1	605	1517.880315896348	0
1	612	1525.082716663788	1
1	617	1543.972980506721	2
1	628	1569.345582476976	3
1	630	1579.443043964117	4
1	632	1584.329791524	5
1	636	1600.799091286596	6
1	639	1606.721743988844	7
1	642	1613.949102073124	8
1	643	1616.567786818773	8
1	645	1619.887335542117	8
1	649	1621.238325743434	9
1	653	1624.293827027984	10
1	657	1627.074985573891	11
1	665	1653.501067248497	12
1	667	1656.343140671346	13
1	668	1657.306789561473	13
1	669	1662.409789376363	12
1	671	1663.600535998356	12
1	678	1674.147678786224	13
1	683	1685.057938417324	14
1	685	1686.872387944786	15
1	690	1694.444302722805	15
1	691	1698.347852692299	14
1	692	1699.405296817735	13
1	696	1704.727388513786	13
1	706	1720.817587341622	14
1	708	1720.851821911813	15
1	710	1721.875092015846	16
1	715	1730.623533501388	17
1	717	1740.494285760169	18
1	721	1747.191320148696	19
1	725	1757.512876259208	19
1	726	1758.228921094582	18
1	730	1769.041783171634	18
1	732	1772.238368202655	19
1	734	1783.865888442547	20
1	738	1787.116090628544	21
1	741	1801.548290900282	22
1	745	1817.786885588567	23
1	749	1836.472723805444	24
1	751	1842.333637209256	25
1	752	1843.143490158239	25
1	756	1849.089516210132	25
1	758	1853.02858545257	26
1	760	1853.230025866942	27
1	765	1862.920968399841	28
1	770	1878.039325158933	28
1	777	1890.057369822562	28
1	779	1899.315603681918	29
1	784	1909.12556840818	29
1	785	1911.907793262329	28
1	787	1914.229000570631	28
1	788	1914.425862115965	28
1	789	1916.102361969177	27
1	791	1921.035654512079	27
1	792	1929.276490513672	27
1	793	1939.631323017583	26
1	794	1939.91043038302	25
1	796	1940.076656379331	25
1	797	1949.385246402834	25
1	799	1952.507178452678	25
1	800	1955.056537637797	25
1	807	1970.708264125649	25
1	810	1979.686709005919	26
1	811	1985.990034378837	26
1	813	1988.849426758076	26
1	815	1995.314312408796	27
1	816	1997.550904044133	27
1	818	1999.052205509423	27
1	822	2004.408034673664	28
1	824	2015.499326384583	28
1	825	2016.268466910265	27
1	827	2017.972186517163	27
1	828	2024.219224955188	27
1	832	2032.090965977135	27
1	834	2039.793340230616	27
1	835	2046.024338343309	26
1	837	2048.900328082947	26
1	839	2049.16753866172	27
1	840	2049.390341118965	27
1	844	2050.848902930746	27
1	846	2054.146991857456	27
1	847	2055.75789914306	26
1	849	2055.903255434299	26
1	850	2063.699256852135	26
1	855	2089.551820567039	26
1	857	2096.610071908613	27
1	858	2103.70925022625	27
1	859	2104.9778492153	26
1	860	2106.37969510426	25
1	864	2114.163439664741	25
1	866	2117.994013753188	25
1	867	2118.099214040219	24
1	868	2118.279630163477	23
1	869	2118.352611902727	22
1	870	2121.732930716016	21
1	872	2127.71405147405	21
1	874	2130.232032826984	22
1	875	2131.804052326907	22
1	876	2132.478624712521	21
1	880	2137.018954725423	21
1	882	2142.337046105647	22
1	887	2160.789530527783	23
1	889	2162.834948109455	24
1	891	2162.884150066935	25
1	893	2168.535605100417	26
1	895	2170.37907985514	27
1	899	2171.509863828659	28
1	904	2180.715420786649	29
1	906	2182.527633875887	30
1	910	2192.935543579677	31
1	914	2203.579092425233	31
1	916	2205.443338955943	31
1	917	2206.460585760294	31
1	918	2209.714517483177	30
1	919	2211.929215045827	29
1	921	2216.213132329422	29
1	929	2238.31625459085	30
1	930	2241.300241427312	30
1	934	2246.193608276171	30
1	936	2256.730833752014	31
1	939	2258.836453060927	32
1	940	2260.522151242943	32
1	941	2262.88288517846	31
1	942	2276.260891427763	30
1	943	2279.798128657168	29
1	944	2281.683415319774	28
1	945	2288.558365682788	27
1	946	2290.456667845296	26
1	948	2294.968714434799	26
1	950	2296.719792457182	27
1	951	2297.430619234166	27
1	953	2299.294790536736	27
1	955	2301.667201606868	28
1	956	2303.168845665485	28
1	958	2305.487069274372	28
1	960	2311.782884945681	29
1	962	2314.310374183725	30
1	964	2314.622892967314	31
1	965	2315.027884436589	31
1	969	2320.559193660386	31
1	973	2324.498304216889	32
1	976	2330.581500241578	33
1	980	2335.259599055678	34
1	982	2344.568282050413	35
1	989	2368.737787171397	36
1	991	2369.786074804619	37
1	995	2372.326647240349	38
1	1001	2377.320734082424	39
1	1003	2378.947451240048	40
1	1009	2395.340590741336	41
1	1012	2406.174800840362	42
1	1023	2443.066247245712	43
1	1028	2460.981316128341	44
1	1030	2466.82704072236	45
1	1033	2469.544771188598	46
1	1035	2472.798552947363	47
1	1037	2479.385398736609	48
1	1039	2485.321044617593	49
1	1040	2487.039855640252	49
1	1041	2491.957268895592	48
1	1042	2497.769607770867	47
2	156	360.530107189419	13.159889139347
2	159	375.188227981008	3.361410105061
2	168	381.810273732571	6.606038327449
2	171	387.621545272701	10.323373235497
2	172	388.133773483841	8.34348684102
2	173	390.120392282262	9.88978316623
2	182	394.841081073174	4.648995803554
2	188	418.982263302219	17.645183949576
2	189	429.164070601723	21.724538379814
2	192	431.612684315202	0.641056419688
2	197	448.533832292413	7.465061558842
2	202	457.435548136354	9.385148281052
2	203	457.679687479773	8.790762921809
2	208	468.128727307408	13.901170766299
2	209	471.892981091193	8.956223513519
2	212	483.802808700822	19.35104587289
2	213	486.550262225734	3.823128448541
2	216	492.331609040033	2.479006856404
2	221	498.806206961179	5.486100480375
2	222	499.870447426201	5.955669591696
2	237	564.429083255212	15.680266522095
2	240	575.359599370468	7.291490744375
2	248	589.825147819099	13.834189418672
2	249	590.31954263812	11.616969579759
2	264	637.951319598326	25.109219420818
2	269	645.623764751134	21.591040886756
2	276	658.007526136584	17.75279179489
2	277	659.622170667836	18.926282908747
2	278	660.675824428533	13.604631916957
2	282	680.422371347319	15.156622795389
2	289	703.674412396808	18.738864276186
2	290	703.891399039425	16.657046499118
2	293	709.465285928127	19.946205746113
2	294	720.687399891164	16.486427011228
2	333	796.545878671201	49.434005782233
2	334	800.218950754131	52.699594733505
2	344	835.696011476914	81.200025086344
2	345	835.962750827545	81.271605658504
2	351	847.480100407396	68.623432903657
2	360	871.221761378233	82.777457499266
2	361	873.665685677883	85.104850014194
2	362	875.733215912635	80.010541960486
2	363	879.296891916493	77.65254714118
2	372	900.230933476542	85.089784845946
2	373	903.561404726433	77.866529448489
2	374	907.063684619531	70.950957355501
2	375	912.809350859512	72.515283101387
2	376	917.586622175476	64.868315068509
2	377	919.800752585226	61.201672463034
2	380	928.610763318161	67.067859172587
2	381	936.536213605688	68.078442804104
2	382	937.838499553744	57.737461829968
2	383	953.160126108358	70.266572052247
2	402	1014.901916820703	55.915234232729
2	405	1023.212254968166	63.173358634133
2	408	1030.706971965014	51.038044280099
2	409	1032.781782751561	45.460872705456
2	410	1034.391936035047	13.801427505138
2	411	1035.679075395016	9.452139556948
2	416	1047.20465056198	7.220372611469
2	417	1049.016011306908	2.102344339266
2	420	1055.889793955864	3.851428988242
2	426	1077.480160027649	5.78263183552
2	429	1102.833300228892	2.507254989316
2	437	1113.159425586507	5.695351253062
2	472	1170.237732531595	56.007793745495
2	500	1246.443728682864	118.67554186028
2	501	1247.864659859132	107.65736817386
2	502	1247.927054836467	97.507795062832
2	506	1259.510900350596	93.20183077565
2	509	1260.621477838062	90.539141686214
2	510	1265.904130515207	91.833023616935
2	511	1277.997146215118	95.260967547289
2	512	1279.788959424105	83.431190947661
2	513	1288.72347956292	73.714681251526
2	514	1290.597518356767	57.38154525281
2	522	1308.107747262041	47.831005698753
2	541	1320.96031053761	20.063342455667
2	542	1324.938136466925	16.813050390884
2	545	1327.311983539318	18.366204964053
2	548	1328.965926872586	19.986882451287
2	549	1331.765938253895	22.488778791351
2	550	1338.153808598098	27.865435593348
2	560	1370.701987335622	54.635199064686
2	566	1373.506567295555	46.355921335496
2	581	1395.615200671884	56.123615017648
2	582	1406.351651736717	53.876537122352
2	583	1410.459981802246	50.663432799005
2	584	1411.354237270217	47.220605808227
2	587	1421.887625693267	50.897285778374
2	588	1424.432602679135	53.274317107303
2	589	1438.081904964572	59.922197617049
2	590	1440.580567855005	56.473426252667
2	591	1445.009432338486	26.072547310007
2	597	1488.081487405157	22.888204234281
2	600	1502.877222372971	0.932192810994
2	603	1507.722912341096	0.7909002654
2	643	1616.567786818773	65.829676078049
2	668	1657.306789561473	88.975237968545
2	669	1662.409789376363	93.064206899387
2	690	1694.444302722805	80.495200649681
2	691	1698.347852692299	78.460517150182
2	692	1699.405296817735	79.510558468476
2	725	1757.512876259208	104.01180901071
2	726	1758.228921094582	101.88578042324
2	752	1843.143490158239	178.65301172852
2	770	1878.039325158933	192.98138674161
2	784	1909.12556840818	219.27759703281
2	785	1911.907793262329	209.16087974279
2	788	1914.425862115965	209.69847360218
2	789	1916.102361969177	203.60475945442
2	792	1929.276490513672	208.45890317205
2	793	1939.631323017583	218.77950110577
2	794	1939.91043038302	218.03533836717
2	797	1949.385246402834	218.76171290145
2	800	1955.056537637797	214.56225187763
2	811	1985.990034378837	223.5289066766
2	816	1997.550904044133	228.5091208725
2	824	2015.499326384583	231.63343794204
2	825	2016.268466910265	229.15237628172
2	828	2024.219224955188	222.67093405491
2	834	2039.793340230616	203.32061642517
2	835	2046.024338343309	203.69070113405
2	840	2049.390341118965	201.99918833755
2	846	2054.146991857456	201.11840640489
2	847	2055.75789914306	202.52787327612
2	850	2063.699256852135	206.47420798571
2	858	2103.70925022625	237.43741942823
2	859	2104.9778492153	226.39978172291
2	860	2106.37969510426	216.3223252817
2	866	2117.994013753188	203.76501318256
2	867	2118.099214040219	197.06355952814
2	868	2118.279630163477	178.20297378415
2	869	2118.352611902727	165.84543345005
2	870	2121.732930716016	165.30753084572
2	875	2131.804052326907	161.96954953362
2	876	2132.478624712521	161.77036058687
2	914	2203.579092425233	214.72966566716
2	917	2206.460585760294	211.1462733515
2	918	2209.714517483177	210.66231197375
2	919	2211.929215045827	212.35003888285
2	930	2241.300241427312	223.32805491015
2	940	2260.522151242943	228.43118526581
2	941	2262.88288517846	213.98255709551
2	942	2276.260891427763	227.09335276604
2	943	2279.798128657168	230.39479079588
2	944	2281.683415319774	230.83451238903
2	945	2288.558365682788	232.65511024849
2	946	2290.456667845296	221.30776377452
2	951	2297.430619234166	207.87879866713
2	956	2303.168845665485	206.55877375687
2	965	2315.027884436589	202.16073493792
2	1040	2487.039855640252	356.80782281327
2	1041	2491.957268895592	357.51647698645
2	1042	2497.769607770867	360.75065304544
3	158	371.826817875947	1
3	161	375.204235405122	1
3	163	377.298172037204	2
3	165	379.790286642821	3
3	167	380.230609116032	4
3	170	387.203879098344	4
3	180	391.229347065333	2
3	184	401.337079352643	2
3	191	430.971627895514	1
3	194	441.068770733571	1
3	196	448.050399855302	2
3	199	448.888924557964	2
3	201	454.227556541109	3
3	205	462.936757577674	2
3	207	464.451762827932	3
3	211	482.727133777193	2
3	215	489.852602183629	1
3	218	493.320106480804	1
3	220	493.914777834505	2
3	229	538.084897973558	1
3	239	568.068108626093	1
3	244	575.990958400427	1
3	246	578.702573058361	2
3	251	610.7389707722	1
3	257	624.032723864378	2
3	259	628.437748163353	3
3	262	632.97263080099	4
3	266	640.254734341694	4
3	268	640.695887759089	5
3	284	684.935548120622	1
3	286	687.234352540307	2
3	288	689.519080182014	3
3	292	704.200972879936	2
3	299	741.520039975603	1
3	304	747.111872888968	2
3	306	747.519356020626	3
3	310	754.49598639057	4
3	312	754.691145169041	5
3	322	776.699738878353	6
3	325	778.856667503739	7
3	327	788.444303878967	8
3	329	788.560835663689	9
3	332	795.722673952149	10
3	336	801.644344775313	9
3	340	815.141148630596	10
3	342	825.694875277944	11
3	349	840.294067758125	10
3	353	852.718307106967	10
3	355	858.599080122192	11
3	357	861.542904145574	12
3	359	868.457770801584	13
3	367	882.893554056111	10
3	379	926.05279973746	5
3	387	960.038896334033	2
3	392	979.668927684915	3
3	398	987.320910046105	4
3	404	1020.590508529909	4
3	407	1026.226935838068	4
3	413	1039.984277950511	1
3	415	1046.913666967642	2
3	419	1052.038364967622	1
3	422	1066.569557467056	1
3	428	1100.326045239576	1
3	431	1104.2466734304	1
3	436	1112.442587626326	2
3	439	1114.2299387861	2
3	443	1118.135647238971	3
3	449	1127.76818682258	4
3	454	1140.20729168527	5
3	460	1150.419259773635	6
3	462	1150.904448295814	7
3	467	1166.309069574946	8
3	471	1170.082336151848	9
3	488	1196.357768476444	9
3	493	1215.008798311394	10
3	497	1233.215973103957	11
3	508	1260.276741563288	8
3	516	1293.194243100738	3
3	520	1300.896968081943	4
3	527	1308.945778575265	4
3	529	1308.979044421299	5
3	531	1309.277159462544	6
3	535	1314.520331515862	7
3	538	1316.066788270936	8
3	540	1320.765333269527	9
3	544	1327.150645960059	8
3	547	1328.031127684426	8
3	552	1339.491585654236	6
3	554	1352.475114614365	7
3	558	1364.13363146199	8
3	564	1371.158285571832	8
3	572	1384.107141602338	8
3	586	1418.936885028479	5
3	593	1464.418027804221	1
3	599	1501.945029561977	1
3	602	1506.932012075696	1
3	605	1517.880315896348	1
3	612	1525.082716663788	2
3	617	1543.972980506721	3
3	628	1569.345582476976	4
3	630	1579.443043964117	5
3	632	1584.329791524	6
3	636	1600.799091286596	7
3	639	1606.721743988844	8
3	642	1613.949102073124	9
3	645	1619.887335542117	9
3	649	1621.238325743434	10
3	653	1624.293827027984	11
3	657	1627.074985573891	12
3	665	1653.501067248497	13
3	667	1656.343140671346	14
3	671	1663.600535998356	13
3	678	1674.147678786224	14
3	683	1685.057938417324	15
3	685	1686.872387944786	16
3	696	1704.727388513786	14
3	706	1720.817587341622	15
3	708	1720.851821911813	16
3	710	1721.875092015846	17
3	715	1730.623533501388	18
3	717	1740.494285760169	19
3	721	1747.191320148696	20
3	730	1769.041783171634	19
3	732	1772.238368202655	20
3	734	1783.865888442547	21
3	738	1787.116090628544	22
3	741	1801.548290900282	23
3	745	1817.786885588567	24
3	749	1836.472723805444	25
3	751	1842.333637209256	26
3	756	1849.089516210132	26
3	758	1853.02858545257	27
3	760	1853.230025866942	28
3	765	1862.920968399841	29
3	777	1890.057369822562	29
3	779	1899.315603681918	30
3	787	1914.229000570631	29
3	791	1921.035654512079	28
3	796	1940.076656379331	26
3	799	1952.507178452678	26
3	807	1970.708264125649	26
3	810	1979.686709005919	27
3	813	1988.849426758076	27
3	815	1995.314312408796	28
3	818	1999.052205509423	28
3	822	2004.408034673664	29
3	827	2017.972186517163	28
3	832	2032.090965977135	28
3	837	2048.900328082947	27
3	839	2049.16753866172	28
3	844	2050.848902930746	28
3	849	2055.903255434299	27
3	855	2089.551820567039	27
3	857	2096.610071908613	28
3	864	2114.163439664741	26
3	872	2127.71405147405	22
3	874	2130.232032826984	23
3	880	2137.018954725423	22
3	882	2142.337046105647	23
3	887	2160.789530527783	24
3	889	2162.834948109455	25
3	891	2162.884150066935	26
3	893	2168.535605100417	27
3	895	2170.37907985514	28
3	899	2171.509863828659	29
3	904	2180.715420786649	30
3	906	2182.527633875887	31
3	910	2192.935543579677	32
3	916	2205.443338955943	32
3	921	2216.213132329422	30
3	929	2238.31625459085	31
3	934	2246.193608276171	31
3	936	2256.730833752014	32
3	939	2258.836453060927	33
3	948	2294.968714434799	27
3	950	2296.719792457182	28
3	953	2299.294790536736	28
3	955	2301.667201606868	29
3	958	2305.487069274372	29
3	960	2311.782884945681	30
3	962	2314.310374183725	31
3	964	2314.622892967314	32
3	969	2320.559193660386	32
3	973	2324.498304216889	33
3	976	2330.581500241578	34
3	980	2335.259599055678	35
3	982	2344.568282050413	36
3	989	2368.737787171397	37
3	991	2369.786074804619	38
3	995	2372.326647240349	39
3	1001	2377.320734082424	40
3	1003	2378.947451240048	41
3	1009	2395.340590741336	42
3	1012	2406.174800840362	43
3	1023	2443.066247245712	44
3	1028	2460.981316128341	45
3	1030	2466.82704072236	46
3	1033	2469.544771188598	47
3	1035	2472.798552947363	48
3	1037	2479.385398736609	49
3	1039	2485.321044617593	50
4	158	371.826817875947	0
4	161	375.204235405122	0
4	168	381.810273732571	4.512101695367
4	171	387.621545272701	7.83125862988
4	172	388.133773483841	7.903164367809
4	173	390.120392282262	2.916513183918
4	181	394.702132492426	4.510047222806
4	182	394.841081073174	3.611734007841
4	187	411.343752148241	10.006672795598
4	188	418.982263302219	11.54273108031
4	191	430.971627895514	0
4	194	441.068770733571	0
4	197	448.533832292413	0.483432437111
4	202	457.435548136354	8.54662357839
4	203	457.679687479773	3.452130938664
4	208	468.128727307408	5.191969729734
4	209	471.892981091193	7.441218263261
4	212	483.802808700822	1.075674923629
4	215	489.852602183629	0
4	218	493.320106480804	0
4	221	498.806206961179	4.891429126674
4	230	542.880960339075	4.796062365517
4	236	561.139088595038	12.390271861921
4	239	568.068108626093	0
4	247	588.546082511628	12.555124111201
4	248	589.825147819099	11.122574760738
4	251	610.7389707722	0
4	263	634.425178530671	21.583078353163
4	264	637.951319598326	13.918595733948
4	269	645.623764751134	17.186016587781
4	272	649.159836089497	16.187205288507
4	275	657.106137551807	16.851403210113
4	276	658.007526136584	17.311638377495
4	277	659.622170667836	12.55097815626
4	278	660.675824428533	9.047032077877
4	281	678.457750529039	13.192001977109
4	284	684.935548120622	0
4	289	703.674412396808	16.440059856501
4	290	703.891399039425	14.372318857411
4	293	709.465285928127	5.264313048191
4	299	741.520039975603	0
4	302	746.863334085522	0.143130702103
4	330	791.35161639924	44.239743510272
4	333	796.545878671201	49.026522650575
4	334	800.218950754131	48.414548666905
4	343	828.878836698446	74.382850307876
4	344	835.696011476914	81.004866307873
4	345	835.962750827545	59.263011949192
4	350	846.668187948933	67.811520445194
4	351	847.480100407396	59.035796528429
4	360	871.221761378233	82.660925714544
4	361	873.665685677883	77.943011725734
4	362	875.733215912635	74.088871137322
4	363	879.296891916493	69.297928626853
4	371	899.337455021749	84.196306391153
4	372	900.230933476542	74.536058198598
4	373	903.561404726433	67.448677462403
4	374	907.063684619531	66.769616861406
4	375	912.809350859512	60.091043752545
4	376	917.586622175476	58.987542053284
4	377	919.800752585226	58.257848439652
4	380	928.610763318161	60.152992516577
4	381	936.536213605688	56.435175881912
4	382	937.838499553744	54.944945497633
4	383	953.160126108358	27.107326370898
4	401	1010.117861645442	51.131179057468
4	402	1014.901916820703	54.86302048667
4	405	1023.212254968166	43.543327283251
4	408	1030.706971965014	43.386061918909
4	409	1032.781782751561	12.191274221652
4	410	1034.391936035047	8.165000196979
4	413	1039.984277950511	0
4	416	1047.20465056198	0.290983594338
4	419	1052.038364967622	0
4	422	1066.569557467056	0
4	425	1073.095052346079	1.39752415395
4	428	1100.326045239576	0
4	431	1104.2466734304	0
4	434	1112.370789640009	4.906715306564
4	437	1113.159425586507	0.716837960181
4	469	1169.111750427939	54.881811641839
4	472	1170.237732531595	52.453883003305
4	478	1181.977659138077	63.842011899106
4	499	1240.272966559756	112.50477973718
4	500	1246.443728682864	106.23643699759
4	501	1247.864659859132	97.445400085497
4	502	1247.927054836467	97.022606540653
4	505	1250.731730841481	84.422661266535
4	506	1259.510900350596	89.428564198748
4	509	1260.621477838062	86.55037093979
4	510	1265.904130515207	83.167951847378
4	511	1277.997146215118	81.639377738674
4	512	1279.788959424105	64.780161112711
4	513	1288.72347956292	55.507506458963
4	514	1290.597518356767	40.120809064305
4	521	1301.10619730249	40.829455739202
4	522	1308.107747262041	14.913504161303
4	525	1308.292791645529	9.64240235365
4	536	1314.679107889496	13.782139807553
4	541	1320.96031053761	12.835224461569
4	542	1324.938136466925	15.99235789166
4	545	1327.311983539318	18.332939118019
4	548	1328.965926872586	19.688767410042
4	549	1331.765938253895	21.477565249145
4	550	1338.153808598098	23.633477082236
4	559	1370.081861439193	54.015073168257
4	560	1370.701987335622	49.936654066095
4	565	1373.268319934059	46.117673974
4	566	1373.506567295555	45.475439611129
4	580	1394.369904066105	54.878318411869
4	581	1395.615200671884	43.140086057519
4	582	1406.351651736717	46.555102733476
4	583	1410.459981802246	46.326350340256
4	584	1411.354237270217	40.363897355324
4	587	1421.887625693267	50.729340121435
4	588	1424.432602679135	46.272895331612
4	589	1438.081904964572	53.974763362234
4	590	1440.580567855005	21.643682826526
4	593	1464.418027804221	0
4	596	1467.392718238412	2.199435067536
4	599	1501.945029561977	0
4	602	1506.932012075696	0
4	605	1517.880315896348	0
4	608	1519.797080213108	1.748546400659
4	613	1532.4261552574	10.310854338286
4	618	1549.245960594897	24.163243931109
4	621	1551.422403871423	9.993508317108
4	624	1559.826408634328	15.853428127607
4	640	1610.306288832967	59.568178092243
4	643	1616.567786818773	59.510328276598
4	663	1653.195449917777	84.863898324849
4	668	1657.306789561473	87.961207084497
4	669	1662.409789376363	82.966745412246
4	674	1667.874747821875	83.544956297875
4	679	1674.720056756237	73.920965469641
4	686	1687.999802420692	81.278058431848
4	689	1691.821576606439	77.872474533315
4	690	1694.444302722805	74.556967180688
4	691	1698.347852692299	78.45311434304
4	692	1699.405296817735	78.166971074301
4	697	1712.35170776722	88.057880739236
4	719	1746.11589370838	119.04090813449
4	724	1756.704340321166	103.20327307267
4	725	1757.512876259208	101.16973558786
4	726	1758.228921094582	94.628385096226
4	747	1827.584035339293	163.09355690957
4	752	1843.143490158239	171.76183490453
4	761	1854.946733899976	180.79905511375
4	766	1864.551643050561	189.28453598901
4	769	1871.580371126465	186.52243270914
4	770	1878.039325158933	191.16693721415
4	783	1906.566318758583	216.71834738321
4	784	1909.12556840818	206.37865488864
4	785	1911.907793262329	207.18040474854
4	788	1914.425862115965	201.92825960121
4	789	1916.102361969177	195.28477462756
4	792	1929.276490513672	208.42466860186
4	793	1939.631323017583	217.75623100174
4	794	1939.91043038302	209.28689688163
4	797	1949.385246402834	208.89096064266
4	800	1955.056537637797	207.8652174891
4	803	1963.648980146965	208.24313635018
4	808	1977.013343045632	214.5522153434
4	811	1985.990034378837	216.9482512072
4	816	1997.550904044133	225.31253584148
4	823	2005.611602533224	221.74571409068
4	824	2015.499326384583	228.38323575604
4	825	2016.268466910265	214.72017600998
4	828	2024.219224955188	206.43233936662
4	833	2038.199450744808	201.72672693936
4	834	2039.793340230616	197.45970302136
4	835	2046.024338343309	198.6331855619
4	840	2049.390341118965	200.30082490883
4	845	2052.780268468166	199.7516830156
4	846	2054.146991857456	200.91696599051
4	847	2055.75789914306	198.53285027663
4	850	2063.699256852135	200.77828845229
4	853	2073.188862409802	206.91703161179
4	858	2103.70925022625	225.13118273386
4	859	2104.9778492153	214.92047939274
4	860	2106.37969510426	207.06409142234
4	865	2117.884942859606	203.65594228897
4	866	2117.994013753188	196.95835924111
4	867	2118.099214040219	178.02255766089
4	868	2118.279630163477	165.7724517108
4	869	2118.352611902727	161.92721203243
4	870	2121.732930716016	151.89842792273
4	875	2131.804052326907	161.09578820126
4	876	2132.478624712521	152.7919157066
4	913	2201.298750555818	212.44932379774
4	914	2203.579092425233	208.26478001644
4	917	2206.460585760294	207.40838025087
4	918	2209.714517483177	210.1353413202
4	919	2211.929215045827	207.52118037216
4	927	2235.427215023424	217.45502850626
4	930	2241.300241427312	209.76966577393
4	937	2257.864992278135	225.774026301
4	940	2260.522151242943	211.62182316
4	941	2262.88288517846	213.71534651674
4	942	2276.260891427763	226.85755356647
4	943	2279.798128657168	228.94922572642
4	944	2281.683415319774	225.78015988548
4	945	2288.558365682788	219.40946161202
4	946	2290.456667845296	200.90484727826
4	951	2297.430619234166	200.82054732555
4	956	2303.168845665485	190.30169616682
4	965	2315.027884436589	200.86444477185
4	987	2361.984487408263	234.27043593421
4	1031	2467.565082653838	337.33304982685
4	1040	2487.039855640252	352.59906373111
4	1041	2491.957268895592	354.93831417017
4	1042	2497.769607770867	355.43256166522
5	175	390.19208526962	1
5	177	390.552455599804	2
5	186	407.439532221909	1
5	224	518.507968548388	1
5	226	522.173620324886	2
5	232	548.748816733117	1
5	234	550.067618500052	2
5	242	575.666162275779	1
5	253	612.842100177508	1
5	255	623.411592726827	2
5	271	647.071192511576	1
5	274	651.628792350656	1
5	280	665.26574855193	1
5	296	730.723164477223	1
5	301	746.720203383419	1
5	308	751.804402087226	1
5	314	761.533052013322	2
5	316	762.512293667094	3
5	319	766.941994342124	3
5	338	809.99896328964	1
5	347	836.11272726403	1
5	365	880.101037723776	1
5	369	893.1674807599	2
5	385	958.986682587974	1
5	389	961.113788177775	2
5	394	980.006287846102	2
5	396	986.58770618071	3
5	424	1071.697528192129	1
5	433	1107.464074333445	1
5	441	1117.78384952829	1
5	445	1121.017381211308	2
5	447	1124.43115273652	3
5	452	1130.82600363503	3
5	458	1148.533918641737	2
5	465	1164.363948844049	2
5	474	1174.071106898272	1
5	476	1175.776090639092	2
5	480	1182.736178667829	1
5	482	1185.782939051587	2
5	484	1186.137599269998	3
5	490	1214.244314790628	2
5	495	1226.823743164412	2
5	504	1250.476709292462	1
5	518	1298.650389291879	1
5	524	1308.125086076041	1
5	533	1310.28837300475	1
5	556	1359.796549003241	1
5	562	1370.990339914893	1
5	568	1378.159707347523	1
5	570	1380.964876480297	2
5	575	1386.732170890961	2
5	577	1389.108069391996	3
5	595	1465.193283170876	1
5	607	1518.048533812449	1
5	610	1522.115300919114	1
5	615	1541.428895554315	1
5	620	1550.738110740724	1
5	623	1557.057458542175	1
5	626	1568.331551592928	1
5	634	1594.882472076587	2
5	647	1619.894738349259	1
5	651	1624.084042264992	2
5	655	1626.210616034251	3
5	660	1632.846757884736	3
5	673	1664.490478429722	1
5	676	1671.38165525371	1
5	681	1675.267107061551	1
5	688	1689.847971375368	1
5	694	1702.746913519538	1
5	699	1712.497602514756	1
5	701	1714.363548584924	2
5	704	1719.6409964056	2
5	712	1722.58306476235	3
5	723	1755.40584379679	1
5	728	1762.461127702236	1
5	736	1787.059466435055	2
5	743	1809.486314153089	2
5	754	1847.391152781413	1
5	763	1857.225048866429	1
5	768	1866.271830798015	1
5	772	1878.578067492393	1
5	774	1886.757159903634	2
5	781	1903.265596083928	2
5	802	1956.425399870298	1
5	805	1969.834502793289	1
5	820	1999.57917616298	1
5	830	2031.530575653383	1
5	842	2049.403337861292	1
5	852	2069.148904070772	1
5	862	2112.867149498668	1
5	878	2134.440791909142	1
5	884	2157.212802221385	2
5	897	2171.380613717592	2
5	901	2171.740503012916	3
5	908	2187.341514577323	3
5	923	2219.535531233618	1
5	925	2223.8424989331	2
5	932	2245.658919910221	1
5	967	2315.1814443388	1
5	971	2322.283976249027	2
5	978	2331.248097080117	2
5	984	2346.228359067299	3
5	993	2370.716186367381	1
5	997	2375.068077861533	2
5	999	2375.806323096909	3
5	1005	2379.965256529779	4
5	1007	2385.250852286311	5
5	1014	2413.808996696861	5
5	1017	2423.704403934987	5
5	1021	2439.323409864084	4
6	175	390.19208526962	0
6	177	390.552455599804	1
6	178	390.794058758176	1
6	181	394.702132492426	0
6	186	407.439532221909	0
6	187	411.343752148241	0
6	224	518.507968548388	0
6	226	522.173620324886	1
6	227	528.157222177148	1
6	230	542.880960339075	0
6	232	548.748816733117	0
6	234	550.067618500052	1
6	235	556.198235989759	1
6	236	561.139088595038	0
6	242	575.666162275779	0
6	247	588.546082511628	0
6	253	612.842100177508	0
6	255	623.411592726827	1
6	260	630.493637584221	1
6	263	634.425178530671	0
6	271	647.071192511576	0
6	272	649.159836089497	0
6	274	651.628792350656	0
6	275	657.106137551807	0
6	280	665.26574855193	0
6	281	678.457750529039	0
6	296	730.723164477223	0
6	297	730.757524100754	0
6	301	746.720203383419	0
6	302	746.863334085522	0
6	308	751.804402087226	0
6	314	761.533052013322	1
6	316	762.512293667094	2
6	317	765.296078411226	2
6	319	766.941994342124	2
6	320	773.168325317825	2
6	323	778.774341854484	1
6	330	791.35161639924	0
6	338	809.99896328964	0
6	343	828.878836698446	0
6	347	836.11272726403	0
6	350	846.668187948933	0
6	365	880.101037723776	0
6	369	893.1674807599	1
6	370	894.554779703125	1
6	371	899.337455021749	0
6	385	958.986682587974	0
6	389	961.113788177775	1
6	390	966.431297430762	1
6	394	980.006287846102	1
6	396	986.58770618071	2
6	399	995.611082938648	2
6	400	1009.979139322012	1
6	401	1010.117861645442	0
6	424	1071.697528192129	0
6	425	1073.095052346079	0
6	433	1107.464074333445	0
6	434	1112.370789640009	0
6	441	1117.78384952829	0
6	445	1121.017381211308	1
6	447	1124.43115273652	2
6	450	1128.328915802939	2
6	452	1130.82600363503	2
6	455	1148.238932368539	2
6	456	1148.392909803275	1
6	458	1148.533918641737	1
6	463	1150.979042559733	1
6	465	1164.363948844049	1
6	468	1167.432132730708	1
6	469	1169.111750427939	0
6	474	1174.071106898272	0
6	476	1175.776090639092	1
6	477	1181.259796708242	1
6	478	1181.977659138077	0
6	480	1182.736178667829	0
6	482	1185.782939051587	1
6	484	1186.137599269998	2
6	485	1191.546100699061	2
6	486	1192.959249731144	1
6	490	1214.244314790628	1
6	491	1214.916840852107	1
6	495	1226.823743164412	1
6	498	1236.954473881776	1
6	499	1240.272966559756	0
6	504	1250.476709292462	0
6	505	1250.731730841481	0
6	518	1298.650389291879	0
6	521	1301.10619730249	0
6	524	1308.125086076041	0
6	525	1308.292791645529	0
6	533	1310.28837300475	0
6	536	1314.679107889496	0
6	556	1359.796549003241	0
6	559	1370.081861439193	0
6	562	1370.990339914893	0
6	565	1373.268319934059	0
6	568	1378.159707347523	0
6	570	1380.964876480297	1
6	573	1385.786836697688	1
6	575	1386.732170890961	1
6	577	1389.108069391996	2
6	578	1390.854609773223	2
6	579	1392.115342644547	1
6	580	1394.369904066105	0
6	595	1465.193283170876	0
6	596	1467.392718238412	0
6	607	1518.048533812449	0
6	608	1519.797080213108	0
6	610	1522.115300919114	0
6	613	1532.4261552574	0
6	615	1541.428895554315	0
6	618	1549.245960594897	0
6	620	1550.738110740724	0
6	621	1551.422403871423	0
6	623	1557.057458542175	0
6	624	1559.826408634328	0
6	626	1568.331551592928	0
6	634	1594.882472076587	1
6	637	1606.314738884808	1
6	640	1610.306288832967	0
6	647	1619.894738349259	0
6	651	1624.084042264992	1
6	655	1626.210616034251	2
6	658	1631.620948999561	2
6	660	1632.846757884736	2
6	661	1637.61610167197	2
6	662	1652.436269634722	1
6	663	1653.195449917777	0
6	673	1664.490478429722	0
6	674	1667.874747821875	0
6	676	1671.38165525371	0
6	679	1674.720056756237	0
6	681	1675.267107061551	0
6	686	1687.999802420692	0
6	688	1689.847971375368	0
6	689	1691.821576606439	0
6	694	1702.746913519538	0
6	697	1712.35170776722	0
6	699	1712.497602514756	0
6	701	1714.363548584924	1
6	702	1718.43106448257	1
6	704	1719.6409964056	1
6	712	1722.58306476235	2
6	713	1728.6057838125	2
6	718	1744.268356042375	1
6	719	1746.11589370838	0
6	723	1755.40584379679	0
6	724	1756.704340321166	0
6	728	1762.461127702236	0
6	736	1787.059466435055	1
6	739	1791.942113382379	1
6	743	1809.486314153089	1
6	746	1819.90234238547	1
6	747	1827.584035339293	0
6	754	1847.391152781413	0
6	761	1854.946733899976	0
6	763	1857.225048866429	0
6	766	1864.551643050561	0
6	768	1866.271830798015	0
6	769	1871.580371126465	0
6	772	1878.578067492393	0
6	774	1886.757159903634	1
6	775	1887.849924045121	1
6	781	1903.265596083928	1
6	782	1906.337962936439	1
6	783	1906.566318758583	0
6	802	1956.425399870298	0
6	803	1963.648980146965	0
6	805	1969.834502793289	0
6	808	1977.013343045632	0
6	820	1999.57917616298	0
6	823	2005.611602533224	0
6	830	2031.530575653383	0
6	833	2038.199450744808	0
6	842	2049.403337861292	0
6	845	2052.780268468166	0
6	852	2069.148904070772	0
6	853	2073.188862409802	0
6	862	2112.867149498668	0
6	865	2117.884942859606	0
6	878	2134.440791909142	0
6	884	2157.212802221385	1
6	885	2158.382228974288	1
6	897	2171.380613717592	1
6	901	2171.740503012916	2
6	902	2180.709197941517	2
6	908	2187.341514577323	2
6	911	2198.964245819754	2
6	912	2199.330099118099	1
6	913	2201.298750555818	0
6	923	2219.535531233618	0
6	925	2223.8424989331	1
6	926	2235.365756369585	1
6	927	2235.427215023424	0
6	932	2245.658919910221	0
6	937	2257.864992278135	0
6	967	2315.1814443388	0
6	971	2322.283976249027	1
6	974	2329.300880744736	1
6	978	2331.248097080117	1
6	984	2346.228359067299	2
6	985	2349.175442701076	2
6	986	2361.967696881165	1
6	987	2361.984487408263	0
6	993	2370.716186367381	0
6	997	2375.068077861533	1
6	999	2375.806323096909	2
6	1005	2379.965256529779	3
6	1007	2385.250852286311	4
6	1010	2401.994887736868	4
6	1014	2413.808996696861	4
6	1015	2418.237072459594	4
6	1017	2423.704403934987	4
6	1018	2425.302403699066	4
6	1019	2436.585219641012	3
6	1021	2439.323409864084	3
6	1024	2444.010126511706	3
6	1025	2449.222648366064	2
6	1026	2458.885433279433	1
6	1031	2467.565082653838	0
7	175	390.19208526962	14
7	186	407.439532221909	15
7	232	548.748816733117	16
7	253	612.842100177508	17
7	271	647.071192511576	18
7	274	651.628792350656	19
7	280	665.26574855193	20
7	301	746.720203383419	21
7	308	751.804402087226	22
7	338	809.99896328964	23
7	347	836.11272726403	24
7	365	880.101037723776	25
7	385	958.986682587974	26
7	424	1071.697528192129	27
7	433	1107.464074333445	28
7	441	1117.78384952829	29
7	474	1174.071106898272	30
7	480	1182.736178667829	31
7	504	1250.476709292462	32
7	518	1298.650389291879	33
7	524	1308.125086076041	34
7	533	1310.28837300475	35
7	556	1359.796549003241	36
7	562	1370.990339914893	37
7	568	1378.159707347523	38
7	595	1465.193283170876	39
7	607	1518.048533812449	40
7	610	1522.115300919114	41
7	615	1541.428895554315	42
7	620	1550.738110740724	43
7	623	1557.057458542175	44
7	626	1568.331551592928	45
7	647	1619.894738349259	46
7	673	1664.490478429722	47
7	676	1671.38165525371	48
7	681	1675.267107061551	49
7	688	1689.847971375368	50
7	694	1702.746913519538	51
7	699	1712.497602514756	52
7	723	1755.40584379679	53
7	728	1762.461127702236	54
7	754	1847.391152781413	55
7	763	1857.225048866429	56
7	768	1866.271830798015	57
7	772	1878.578067492393	58
7	802	1956.425399870298	59
7	805	1969.834502793289	60
7	820	1999.57917616298	61
7	830	2031.530575653383	62
7	842	2049.403337861292	63
7	852	2069.148904070772	64
7	862	2112.867149498668	65
7	878	2134.440791909142	66
7	923	2219.535531233618	67
7	932	2245.658919910221	68
7	967	2315.1814443388	69
7	993	2370.716186367381	70
8	175	390.19208526962	0
8	178	390.794058758176	0.241603158372
8	186	407.439532221909	0
8	224	518.507968548388	0
8	227	528.157222177148	5.983601852262
8	232	548.748816733117	0
8	235	556.198235989759	6.130617489707
8	242	575.666162275779	0
8	253	612.842100177508	0
8	260	630.493637584221	7.082044857394
8	271	647.071192511576	0
8	274	651.628792350656	0
8	280	665.26574855193	0
8	296	730.723164477223	0
8	301	746.720203383419	0
8	308	751.804402087226	0
8	317	765.296078411226	3.763026397904
8	320	773.168325317825	10.656031650731
8	323	778.774341854484	11.83234751236
8	338	809.99896328964	0
8	347	836.11272726403	0
8	365	880.101037723776	0
8	370	894.554779703125	1.387298943225
8	385	958.986682587974	0
8	390	966.431297430762	5.317509252987
8	399	995.611082938648	15.604795092546
8	400	1009.979139322012	23.391433141302
8	424	1071.697528192129	0
8	433	1107.464074333445	0
8	441	1117.78384952829	0
8	450	1128.328915802939	7.311534591631
8	455	1148.238932368539	23.807779632019
8	456	1148.392909803275	17.566906168245
8	463	1150.979042559733	2.445123917996
8	468	1167.432132730708	3.068183886659
8	474	1174.071106898272	0
8	477	1181.259796708242	5.48370606915
8	480	1182.736178667829	0
8	485	1191.546100699061	5.763161647474
8	486	1192.959249731144	6.821650461146
8	491	1214.916840852107	0.672526061479
8	498	1236.954473881776	10.130730717364
8	504	1250.476709292462	0
8	518	1298.650389291879	0
8	524	1308.125086076041	0
8	533	1310.28837300475	0
8	556	1359.796549003241	0
8	562	1370.990339914893	0
8	568	1378.159707347523	0
8	573	1385.786836697688	4.821960217391
8	578	1390.854609773223	4.122438882262
8	579	1392.115342644547	3.007273252551
8	595	1465.193283170876	0
8	607	1518.048533812449	0
8	610	1522.115300919114	0
8	615	1541.428895554315	0
8	620	1550.738110740724	0
8	623	1557.057458542175	0
8	626	1568.331551592928	0
8	637	1606.314738884808	11.432266808221
8	647	1619.894738349259	0
8	658	1631.620948999561	7.536906734569
8	661	1637.61610167197	11.405485637719
8	662	1652.436269634722	19.589511749986
8	673	1664.490478429722	0
8	676	1671.38165525371	0
8	681	1675.267107061551	0
8	688	1689.847971375368	0
8	694	1702.746913519538	0
8	699	1712.497602514756	0
8	702	1718.43106448257	4.067515897646
8	713	1728.6057838125	8.9647874069
8	718	1744.268356042375	21.685291280025
8	723	1755.40584379679	0
8	728	1762.461127702236	0
8	739	1791.942113382379	4.882646947324
8	746	1819.90234238547	10.416028232381
8	754	1847.391152781413	0
8	763	1857.225048866429	0
8	768	1866.271830798015	0
8	772	1878.578067492393	0
8	775	1887.849924045121	1.092764141487
8	782	1906.337962936439	3.072366852511
8	802	1956.425399870298	0
8	805	1969.834502793289	0
8	820	1999.57917616298	0
8	830	2031.530575653383	0
8	842	2049.403337861292	0
8	852	2069.148904070772	0
8	862	2112.867149498668	0
8	878	2134.440791909142	0
8	885	2158.382228974288	1.169426752903
8	902	2180.709197941517	9.328584223925
8	911	2198.964245819754	27.223742806838
8	912	2199.330099118099	11.988584540776
8	923	2219.535531233618	0
8	926	2235.365756369585	11.523257436485
8	932	2245.658919910221	0
8	967	2315.1814443388	0
8	974	2329.300880744736	7.016904495709
8	985	2349.175442701076	17.927345620959
8	986	2361.967696881165	15.739337813866
8	993	2370.716186367381	0
8	1010	2401.994887736868	26.926809875335
8	1015	2418.237072459594	42.430749362685
8	1018	2425.302403699066	45.337147169287
8	1019	2436.585219641012	51.334367354701
8	1024	2444.010126511706	30.201129814845
8	1025	2449.222648366064	25.518244431077
8	1026	2458.885433279433	19.562023415349
9	178	390.794058758176	22
9	181	394.702132492426	23
9	187	411.343752148241	24
9	227	528.157222177148	25
9	230	542.880960339075	26
9	235	556.198235989759	27
9	236	561.139088595038	28
9	247	588.546082511628	29
9	260	630.493637584221	30
9	263	634.425178530671	31
9	272	649.159836089497	32
9	275	657.106137551807	33
9	281	678.457750529039	34
9	297	730.757524100754	35
9	302	746.863334085522	36
9	317	765.296078411226	37
9	320	773.168325317825	38
9	323	778.774341854484	39
9	330	791.35161639924	40
9	343	828.878836698446	41
9	350	846.668187948933	42
9	370	894.554779703125	43
9	371	899.337455021749	44
9	390	966.431297430762	45
9	399	995.611082938648	46
9	400	1009.979139322012	47
9	401	1010.117861645442	48
9	425	1073.095052346079	49
9	434	1112.370789640009	50
9	450	1128.328915802939	51
9	455	1148.238932368539	52
9	456	1148.392909803275	53
9	463	1150.979042559733	54
9	468	1167.432132730708	55
9	469	1169.111750427939	56
9	477	1181.259796708242	57
9	478	1181.977659138077	58
9	485	1191.546100699061	59
9	486	1192.959249731144	60
9	491	1214.916840852107	61
9	498	1236.954473881776	62
9	499	1240.272966559756	63
9	505	1250.731730841481	64
9	521	1301.10619730249	65
9	525	1308.292791645529	66
9	536	1314.679107889496	67
9	559	1370.081861439193	68
9	565	1373.268319934059	69
9	573	1385.786836697688	70
9	578	1390.854609773223	71
9	579	1392.115342644547	72
9	580	1394.369904066105	73
9	596	1467.392718238412	74
9	608	1519.797080213108	75
9	613	1532.4261552574	76
9	618	1549.245960594897	77
9	621	1551.422403871423	78
9	624	1559.826408634328	79
9	637	1606.314738884808	80
9	640	1610.306288832967	81
9	658	1631.620948999561	82
9	661	1637.61610167197	83
9	662	1652.436269634722	84
9	663	1653.195449917777	85
9	674	1667.874747821875	86
9	679	1674.720056756237	87
9	686	1687.999802420692	88
9	689	1691.821576606439	89
9	697	1712.35170776722	90
9	702	1718.43106448257	91
9	713	1728.6057838125	92
9	718	1744.268356042375	93
9	719	1746.11589370838	94
9	724	1756.704340321166	95
9	739	1791.942113382379	96
9	746	1819.90234238547	97
9	747	1827.584035339293	98
9	761	1854.946733899976	99
9	766	1864.551643050561	100
9	769	1871.580371126465	101
9	775	1887.849924045121	102
9	782	1906.337962936439	103
9	783	1906.566318758583	104
9	803	1963.648980146965	105
9	808	1977.013343045632	106
9	823	2005.611602533224	107
9	833	2038.199450744808	108
9	845	2052.780268468166	109
9	853	2073.188862409802	110
9	865	2117.884942859606	111
9	885	2158.382228974288	112
9	902	2180.709197941517	113
9	911	2198.964245819754	114
9	912	2199.330099118099	115
9	913	2201.298750555818	116
9	926	2235.365756369585	117
9	927	2235.427215023424	118
9	937	2257.864992278135	119
9	974	2329.300880744736	120
9	985	2349.175442701076	121
9	986	2361.967696881165	122
9	987	2361.984487408263	123
9	1010	2401.994887736868	124
9	1015	2418.237072459594	125
9	1018	2425.302403699066	126
9	1019	2436.585219641012	127
9	1024	2444.010126511706	128
9	1025	2449.222648366064	129
9	1026	2458.885433279433	130
9	1031	2467.565082653838	131
10	178	390.794058758176	0.601973488556
10	181	394.702132492426	4.149676892622
10	187	411.343752148241	3.904219926332
10	227	528.157222177148	9.64925362876
10	230	542.880960339075	20.707340014189
10	235	556.198235989759	7.449419256642
10	236	561.139088595038	11.071470094986
10	247	588.546082511628	12.879920235849
10	260	630.493637584221	17.651537406713
10	263	634.425178530671	11.013585803844
10	272	649.159836089497	2.088643577921
10	275	657.106137551807	5.477345201151
10	281	678.457750529039	13.192001977109
10	297	730.757524100754	0.034359623531
10	302	746.863334085522	0.143130702103
10	317	765.296078411226	13.491676324
10	320	773.168325317825	11.635273304503
10	323	778.774341854484	16.26204818739
10	330	791.35161639924	24.409622057116
10	343	828.878836698446	18.879873408806
10	350	846.668187948933	10.555460684903
10	370	894.554779703125	14.453741979349
10	371	899.337455021749	6.169974261849
10	390	966.431297430762	7.444614842788
10	399	995.611082938648	34.497294760873
10	400	1009.979139322012	29.97285147591
10	401	1010.117861645442	23.530155464732
10	425	1073.095052346079	1.39752415395
10	434	1112.370789640009	4.906715306564
10	450	1128.328915802939	10.545066274649
10	455	1148.238932368539	27.221551157231
10	456	1148.392909803275	23.961757066755
10	463	1150.979042559733	20.153038924703
10	468	1167.432132730708	18.898214088971
10	469	1169.111750427939	4.74780158389
10	477	1181.259796708242	7.18868980997
10	478	1181.977659138077	6.201568498985
10	485	1191.546100699061	8.809922031232
10	486	1192.959249731144	7.176310679557
10	491	1214.916840852107	28.779241582109
10	498	1236.954473881776	22.710159091148
10	499	1240.272966559756	13.449223395344
10	505	1250.731730841481	0.255021549019
10	521	1301.10619730249	2.455808010611
10	525	1308.292791645529	0.167705569488
10	536	1314.679107889496	4.390734884746
10	559	1370.081861439193	10.285312435952
10	565	1373.268319934059	2.277980019166
10	573	1385.786836697688	7.627129350165
10	578	1390.854609773223	9.889733292926
10	579	1392.115342644547	5.383171753586
10	580	1394.369904066105	5.261834674109
10	596	1467.392718238412	2.199435067536
10	608	1519.797080213108	1.748546400659
10	613	1532.4261552574	10.310854338286
10	618	1549.245960594897	7.817065040582
10	621	1551.422403871423	0.684293130699
10	624	1559.826408634328	2.768950092153
10	637	1606.314738884808	37.98318729188
10	640	1610.306288832967	15.42381675638
10	658	1631.620948999561	11.726210650302
10	661	1637.61610167197	13.532059406978
10	662	1652.436269634722	26.225653600471
10	663	1653.195449917777	20.348692033041
10	674	1667.874747821875	3.384269392153
10	679	1674.720056756237	3.338401502527
10	686	1687.999802420692	12.732695359141
10	689	1691.821576606439	1.973605231071
10	697	1712.35170776722	9.604794247682
10	702	1718.43106448257	5.933461967814
10	713	1728.6057838125	14.242235227576
10	718	1744.268356042375	24.627359636775
10	719	1746.11589370838	23.53282894603
10	724	1756.704340321166	1.298496524376
10	739	1791.942113382379	29.480985680143
10	746	1819.90234238547	32.842875950415
10	747	1827.584035339293	18.097721186204
10	761	1854.946733899976	7.555581118563
10	766	1864.551643050561	7.326594184132
10	769	1871.580371126465	5.30854032845
10	775	1887.849924045121	9.271856552728
10	782	1906.337962936439	19.580803032805
10	783	1906.566318758583	3.300722674655
10	803	1963.648980146965	7.223580276667
10	808	1977.013343045632	7.178840252343
10	823	2005.611602533224	6.032426370244
10	833	2038.199450744808	6.668875091425
10	845	2052.780268468166	3.376930606874
10	853	2073.188862409802	4.03995833903
10	865	2117.884942859606	5.017793360938
10	885	2158.382228974288	23.941437065146
10	902	2180.709197941517	23.496395720132
10	911	2198.964245819754	27.583632102162
10	912	2199.330099118099	27.589596105183
10	913	2201.298750555818	13.957235978495
10	926	2235.365756369585	15.830225135967
10	927	2235.427215023424	11.584716090324
10	937	2257.864992278135	12.206072367914
10	974	2329.300880744736	14.119436405936
10	985	2349.175442701076	26.891466452049
10	986	2361.967696881165	30.719599801048
10	987	2361.984487408263	15.756128340964
10	1010	2401.994887736868	31.278701369487
10	1015	2418.237072459594	43.168994598061
10	1018	2425.302403699066	49.496080602157
10	1019	2436.585219641012	56.619963111233
10	1024	2444.010126511706	58.759274225395
10	1025	2449.222648366064	35.413651669203
10	1026	2458.885433279433	35.181029344446
10	1031	2467.565082653838	28.241672789754
11	1043	2500	0.074
12	1043	2500	0.0524

