version 2
run experiments_medium_game_mode1-420-20230311-09:41:24-10784
attr configname experiments_medium_game_mode1
attr datetime 20230311-09:41:24
attr experiment experiments_medium_game_mode1
attr inifile omnetpp.ini
attr iterationvars "$0=5.5, $1=5, $2=0"
attr iterationvarsf 5.5,5,0-
attr measurement "$0=5.5, $1=5, $2=0"
attr network Network
attr processid 10784
attr repetition 0
attr replication #0
attr resultdir results
attr runnumber 420
attr seedset 0
param *.boss.arrival_mean 20
param *.boss.service_mean 5.5
param *.minion.arrival_mean 10
param *.minion.service_mean 5
param *.player.recover_rate_x 0
param **.minion.arrival_distribution 0
param **.minion.service_distribution 0
param **.boss.arrival_distribution 0
param **.boss.service_distribution 0

vector 0 Network.player boss_defeated_stat:vector ETV
attr source signal_boss_defeated
vector 1 Network.player boss_jobs_queue_number_stat:vector ETV
attr source signal_boss_jobs_queue_number
vector 2 Network.player boss_response_time_stat:vector ETV
attr source signal_boss_response_time
vector 3 Network.player minion_waiting_time_stat:vector ETV
attr source signal_minion_waiting_time
vector 4 Network.player minion_defeated_stat:vector ETV
attr source signal_minion_defeated
vector 5 Network.player minion_jobs_queue_number_stat:vector ETV
attr source signal_minion_jobs_queue_number
vector 6 Network.player minion_response_time_stat:vector ETV
attr source signal_minion_response_time
vector 7 Network.player minion_jobs_number_stat:vector ETV
attr source signal_minion_jobs_number
vector 8 Network.player boss_jobs_number_stat:vector ETV
attr source signal_boss_jobs_number
vector 9 Network.player boss_waiting_time_stat:vector ETV
attr source signal_boss_waiting_time
vector 10 Network.player minion_recovered_stat:vector ETV
attr source signal_minion_recovered
vector 11 Network.player minion_throughput:vector ETV
attr source signal_minion_throughput
vector 12 Network.player boss_throughput:vector ETV
attr source signal_boss_throughput
0	167	350.858341556962	22
0	174	368.41520595183	23
0	181	391.356970764946	24
0	182	397.117558252346	25
0	191	406.068768710482	26
0	194	420.942139122391	27
0	201	439.225683330295	28
0	206	447.103730514401	29
0	210	470.074498690249	30
0	218	502.031525333908	31
0	223	516.546949621533	32
0	234	541.710796128957	33
0	247	565.363893472168	34
0	251	575.514408386557	35
0	262	601.474140824276	36
0	269	620.614555568028	37
0	274	625.690861644135	38
0	275	628.640602017868	39
0	309	698.832927404915	40
0	319	710.314812957001	41
0	324	717.541453781681	42
0	333	724.038916630601	43
0	336	728.8975503254	44
0	346	738.039767258322	45
0	349	739.807871143865	46
0	350	740.746344075062	47
0	357	746.692475328135	48
0	360	751.019252489281	49
0	369	767.509882243178	50
0	375	786.213304245579	51
0	383	803.918781376152	52
0	386	805.930721396886	53
0	389	807.568881469601	54
0	390	808.949241895722	55
0	413	848.435580501131	56
0	416	851.135948677337	57
0	419	865.309853186824	58
0	426	882.101631330692	59
0	427	882.216196038471	60
0	440	903.75053323233	61
0	441	904.597464909168	62
0	444	910.734981498524	63
0	445	912.899211075799	64
0	453	942.830871291107	65
0	468	960.353360213377	66
0	475	974.727722603773	67
0	493	998.756899651119	68
0	505	1012.641548328163	69
0	519	1034.827997539919	70
0	523	1042.103661498559	71
0	528	1063.496438714248	72
0	534	1097.949982000314	73
0	560	1194.515615538586	74
0	570	1207.845170082676	75
0	577	1214.721524485695	76
0	580	1217.189567198879	77
0	581	1217.318206536586	78
0	595	1238.192141336397	79
0	618	1277.125735069435	80
0	639	1344.701605899401	81
0	652	1360.629755931547	82
0	656	1373.423749432305	83
0	662	1382.426484004375	84
0	672	1420.625831638996	85
0	690	1524.08680725875	86
0	693	1529.170134407685	87
0	700	1536.098349151717	88
0	709	1554.960467676244	89
0	713	1563.414226492044	90
0	727	1579.573943129958	91
0	734	1607.844387130779	92
0	742	1618.201595910555	93
0	754	1633.34367016402	94
0	765	1653.882566527102	95
0	773	1673.835078614107	96
0	778	1681.79710623453	97
0	781	1688.991963422089	98
0	806	1751.219673395646	99
0	819	1780.324734196676	100
0	826	1796.87374879223	101
0	840	1837.126611037354	102
0	841	1838.363387407473	103
0	863	1890.504879991416	104
0	872	1903.236297425599	105
0	887	1944.001578571869	106
0	905	1972.444584974484	107
0	919	1992.90889574239	108
0	923	2000.481894991698	109
0	930	2005.089341382229	110
0	931	2007.562654173299	111
0	945	2032.326594387327	112
0	952	2042.294982863116	113
0	960	2050.819044697624	114
0	961	2058.372542406682	115
0	974	2095.41823949553	116
0	1005	2200.349855432288	117
0	1022	2259.645730645783	118
0	1035	2327.507724728848	119
0	1042	2337.155712038816	120
0	1058	2369.851862945946	121
0	1068	2401.706150338511	122
0	1075	2415.978728415833	123
0	1083	2438.12825521591	124
0	1089	2465.67655180791	125
0	1099	2480.782682683224	126
0	1100	2485.460370158308	127
1	167	350.858341556962	0
1	173	365.058342191057	0
1	174	368.41520595183	0
1	176	388.037052425803	0
1	180	390.927857908176	1
1	181	391.356970764946	1
1	182	397.117558252346	0
1	190	404.73333087535	0
1	191	406.068768710482	0
1	193	419.146910101711	0
1	194	420.942139122391	0
1	200	436.823234710174	0
1	201	439.225683330295	0
1	203	440.900837049397	0
1	206	447.103730514401	0
1	209	466.342603331937	0
1	210	470.074498690249	0
1	217	497.116149187221	0
1	218	502.031525333908	0
1	220	503.09769978815	0
1	223	516.546949621533	0
1	233	541.577288411556	0
1	234	541.710796128957	0
1	242	557.379584999622	0
1	247	565.363893472168	0
1	250	571.013320665705	0
1	251	575.514408386557	0
1	255	581.474923170251	0
1	262	601.474140824276	0
1	268	618.964030904645	0
1	269	620.614555568028	0
1	271	622.85963881137	0
1	273	624.51956532149	1
1	274	625.690861644135	1
1	275	628.640602017868	0
1	308	694.407150928009	0
1	309	698.832927404915	0
1	316	708.481046712107	0
1	319	710.314812957001	0
1	321	715.529536791828	0
1	323	716.879841144914	1
1	324	717.541453781681	1
1	332	723.6697040014	1
1	333	724.038916630601	1
1	336	728.8975503254	0
1	341	734.846307524025	0
1	345	737.31664614593	1
1	346	738.039767258322	1
1	348	739.346914019748	1
1	349	739.807871143865	1
1	350	740.746344075062	0
1	352	743.358100075954	0
1	356	746.078159748484	1
1	357	746.692475328135	1
1	360	751.019252489281	0
1	366	759.713988500873	0
1	369	767.509882243178	0
1	374	777.877727033664	0
1	375	786.213304245579	0
1	380	794.561121372008	0
1	382	799.685099640979	1
1	383	803.918781376152	1
1	385	804.701437837468	1
1	386	805.930721396886	1
1	388	806.963595367265	1
1	389	807.568881469601	1
1	390	808.949241895722	0
1	408	836.140137449287	0
1	410	841.117217619398	1
1	413	848.435580501131	1
1	416	851.135948677337	0
1	418	858.339450889291	0
1	419	865.309853186824	0
1	421	866.949764860109	0
1	423	870.623974825057	1
1	426	882.101631330692	1
1	427	882.216196038471	0
1	429	883.238222931355	0
1	437	892.398818790866	1
1	439	896.905318042219	2
1	440	903.75053323233	2
1	441	904.597464909168	1
1	443	909.552892526914	1
1	444	910.734981498524	1
1	445	912.899211075799	0
1	450	930.008526162325	0
1	453	942.830871291107	0
1	461	951.250248410845	0
1	468	960.353360213377	0
1	472	964.447198103986	0
1	475	974.727722603773	0
1	490	995.956600520193	0
1	493	998.756899651119	0
1	504	1010.030117456946	0
1	505	1012.641548328163	0
1	518	1031.787232155939	0
1	519	1034.827997539919	0
1	522	1041.57153689313	0
1	523	1042.103661498559	0
1	527	1060.559683230173	0
1	528	1063.496438714248	0
1	533	1092.122097599442	0
1	534	1097.949982000314	0
1	557	1186.006490948789	0
1	560	1194.515615538586	0
1	565	1203.356701488495	0
1	569	1205.901663236199	1
1	570	1207.845170082676	1
1	574	1209.443534644607	1
1	576	1212.660171838827	2
1	577	1214.721524485695	2
1	580	1217.189567198879	1
1	581	1217.318206536586	0
1	594	1236.78984715634	0
1	595	1238.192141336397	0
1	617	1275.038720804297	0
1	618	1277.125735069435	0
1	638	1341.831971966471	0
1	639	1344.701605899401	0
1	649	1356.079627233473	0
1	652	1360.629755931547	0
1	655	1369.942905406479	0
1	656	1373.423749432305	0
1	659	1374.84225275845	0
1	662	1382.426484004375	0
1	671	1418.900678856088	0
1	672	1420.625831638996	0
1	689	1518.913265032233	0
1	690	1524.08680725875	0
1	692	1527.272532464144	0
1	693	1529.170134407685	0
1	695	1534.84794874575	0
1	700	1536.098349151717	0
1	708	1551.594958035781	0
1	709	1554.960467676244	0
1	712	1557.582850544547	0
1	713	1563.414226492044	0
1	722	1568.739307218153	0
1	727	1579.573943129958	0
1	733	1601.86730711915	0
1	734	1607.844387130779	0
1	739	1613.347843900331	0
1	742	1618.201595910555	0
1	747	1622.076911568479	0
1	754	1633.34367016402	0
1	764	1652.049086036555	0
1	765	1653.882566527102	0
1	768	1664.665401336451	0
1	773	1673.835078614107	0
1	777	1680.005761790246	0
1	778	1681.79710623453	0
1	780	1686.414640465257	0
1	781	1688.991963422089	0
1	803	1747.885153759755	0
1	806	1751.219673395646	0
1	818	1779.894755724619	0
1	819	1780.324734196676	0
1	825	1795.609136824645	0
1	826	1796.87374879223	0
1	837	1829.264198008331	0
1	839	1830.977423873753	1
1	840	1837.126611037354	1
1	841	1838.363387407473	0
1	860	1890.142463571974	0
1	863	1890.504879991416	0
1	869	1899.267394109141	0
1	872	1903.236297425599	0
1	880	1933.886473698141	0
1	887	1944.001578571869	0
1	904	1971.942596377363	0
1	905	1972.444584974484	0
1	912	1986.420461942477	0
1	919	1992.90889574239	0
1	922	1996.847244160215	0
1	923	2000.481894991698	0
1	927	2001.842081440919	0
1	929	2002.393665442616	1
1	930	2005.089341382229	1
1	931	2007.562654173299	0
1	944	2029.851865139414	0
1	945	2032.326594387327	0
1	947	2035.530374205771	0
1	952	2042.294982863116	0
1	957	2046.826782324502	0
1	959	2048.216878838541	1
1	960	2050.819044697624	1
1	961	2058.372542406682	0
1	973	2092.056321117119	0
1	974	2095.41823949553	0
1	1004	2193.888924218505	0
1	1005	2200.349855432288	0
1	1019	2250.55891489116	0
1	1022	2259.645730645783	0
1	1034	2321.080740139735	0
1	1035	2327.507724728848	0
1	1041	2335.064538159043	0
1	1042	2337.155712038816	0
1	1057	2367.279148164219	0
1	1058	2369.851862945946	0
1	1065	2391.495205482738	0
1	1068	2401.706150338511	0
1	1074	2409.912083040808	0
1	1075	2415.978728415833	0
1	1082	2434.432498188945	0
1	1083	2438.12825521591	0
1	1088	2463.3924778558	0
1	1089	2465.67655180791	0
1	1094	2476.510344138141	0
1	1098	2480.218280446483	1
1	1099	2480.782682683224	1
1	1100	2485.460370158308	0
2	167	350.858341556962	0.863977536104
2	174	368.41520595183	3.356863760773
2	181	391.356970764946	3.319918339143
2	182	397.117558252346	6.18970034417
2	191	406.068768710482	1.335437835132
2	194	420.942139122391	1.79522902068
2	201	439.225683330295	2.402448620121
2	206	447.103730514401	6.202893465004
2	210	470.074498690249	3.731895358312
2	218	502.031525333908	4.915376146687
2	223	516.546949621533	13.449249833383
2	234	541.710796128957	0.133507717401
2	247	565.363893472168	7.984308472546
2	251	575.514408386557	4.501087720852
2	262	601.474140824276	19.999217654025
2	269	620.614555568028	1.650524663383
2	274	625.690861644135	2.831222832765
2	275	628.640602017868	4.121036696378
2	309	698.832927404915	4.425776476906
2	319	710.314812957001	1.833766244894
2	324	717.541453781681	2.011916989853
2	333	724.038916630601	7.159075485687
2	336	728.8975503254	5.227846324
2	346	738.039767258322	3.193459734297
2	349	739.807871143865	2.491224997935
2	350	740.746344075062	1.399430055314
2	357	746.692475328135	3.334375252181
2	360	751.019252489281	4.941092740797
2	369	767.509882243178	7.795893742305
2	375	786.213304245579	8.335577211915
2	383	803.918781376152	9.357660004144
2	386	805.930721396886	6.245621755907
2	389	807.568881469601	2.867443632133
2	390	808.949241895722	1.985646528457
2	413	848.435580501131	12.295443051844
2	416	851.135948677337	10.018731057939
2	419	865.309853186824	6.970402297533
2	426	882.101631330692	15.151866470583
2	427	882.216196038471	11.592221213414
2	440	903.75053323233	20.512310300975
2	441	904.597464909168	12.198646118302
2	444	910.734981498524	13.829663456305
2	445	912.899211075799	3.346318548885
2	453	942.830871291107	12.822345128782
2	468	960.353360213377	9.103111802532
2	475	974.727722603773	10.280524499787
2	493	998.756899651119	2.800299130926
2	505	1012.641548328163	2.611430871217
2	519	1034.827997539919	3.04076538398
2	523	1042.103661498559	0.532124605429
2	528	1063.496438714248	2.936755484075
2	534	1097.949982000314	5.827884400872
2	560	1194.515615538586	8.509124589797
2	570	1207.845170082676	4.488468594181
2	577	1214.721524485695	8.819861249496
2	580	1217.189567198879	7.746032554272
2	581	1217.318206536586	4.658034697759
2	595	1238.192141336397	1.402294180057
2	618	1277.125735069435	2.087014265138
2	639	1344.701605899401	2.86963393293
2	652	1360.629755931547	4.550128698074
2	656	1373.423749432305	3.480844025826
2	662	1382.426484004375	7.584231245925
2	672	1420.625831638996	1.725152782908
2	690	1524.08680725875	5.173542226517
2	693	1529.170134407685	1.897601943541
2	700	1536.098349151717	1.250400405967
2	709	1554.960467676244	3.365509640463
2	713	1563.414226492044	5.831375947497
2	727	1579.573943129958	10.834635911805
2	734	1607.844387130779	5.977080011629
2	742	1618.201595910555	4.853752010224
2	754	1633.34367016402	11.266758595541
2	765	1653.882566527102	1.833480490547
2	773	1673.835078614107	9.169677277656
2	778	1681.79710623453	1.791344444284
2	781	1688.991963422089	2.577322956832
2	806	1751.219673395646	3.334519635891
2	819	1780.324734196676	0.429978472057
2	826	1796.87374879223	1.264611967585
2	840	1837.126611037354	7.862413029023
2	841	1838.363387407473	7.38596353372
2	863	1890.504879991416	0.362416419442
2	872	1903.236297425599	3.968903316458
2	887	1944.001578571869	10.115104873728
2	905	1972.444584974484	0.501988597121
2	919	1992.90889574239	6.488433799913
2	923	2000.481894991698	3.634650831483
2	930	2005.089341382229	3.24725994131
2	931	2007.562654173299	5.168988730683
2	945	2032.326594387327	2.474729247913
2	952	2042.294982863116	6.764608657345
2	960	2050.819044697624	3.992262373122
2	961	2058.372542406682	10.155663568141
2	974	2095.41823949553	3.361918378411
2	1005	2200.349855432288	6.460931213783
2	1022	2259.645730645783	9.086815754623
2	1035	2327.507724728848	6.426984589113
2	1042	2337.155712038816	2.091173879773
2	1058	2369.851862945946	2.572714781727
2	1068	2401.706150338511	10.210944855773
2	1075	2415.978728415833	6.066645375025
2	1083	2438.12825521591	3.695757026965
2	1089	2465.67655180791	2.28407395211
2	1099	2480.782682683224	4.272338545083
2	1100	2485.460370158308	5.242089711825
3	167	350.858341556962	0.863977536104
3	170	356.599406890352	0
3	182	397.117558252346	9.016452075235
3	185	403.158948763485	0
3	188	404.671257300135	0
3	191	406.068768710482	1.335437835132
3	194	420.942139122391	1.79522902068
3	197	425.074399879554	0
3	206	447.103730514401	1.62040847573
3	212	483.935540730089	0
3	215	492.001379186385	1.648746729515
3	218	502.031525333908	4.915376146687
3	223	516.546949621533	13.449249833383
3	224	516.659391222331	10.254363194846
3	229	533.910526658761	11.36547788235
3	234	541.710796128957	12.976452756279
3	235	543.59098924103	7.507001656454
3	236	544.077955436654	2.500667025098
3	239	551.249347324478	0
3	247	565.363893472168	2.755156730588
3	248	569.014531997844	5.147051161883
3	251	575.514408386557	4.501087720852
3	262	601.474140824276	24.854382966079
3	265	611.487293209655	30.012370039404
3	266	613.981074372897	27.146997771208
3	269	620.614555568028	25.057267015918
3	275	628.640602017868	31.536016660758
3	276	629.084999660824	24.272067719041
3	279	637.933131713933	18.969100809288
3	280	644.200454528255	21.340815716885
3	283	650.790127377874	17.03299065622
3	284	650.989316773651	3.01853325106
3	287	655.34905644015	0
3	290	656.468518046476	0
3	293	661.824175248755	0
3	298	672.348690171906	4.10756790284
3	301	677.900010326574	6.586084535983
3	302	678.417637087352	5.041678476456
3	305	688.258506868413	0
3	311	701.611408714652	0
3	314	707.702232946483	0
3	319	710.314812957001	1.833766244894
3	336	728.8975503254	18.754832471552
3	337	731.550888555706	16.021351763878
3	350	740.746344075062	22.200279165092
3	360	751.019252489281	31.020407306389
3	361	752.119686712861	31.931155837958
3	364	758.005969667456	33.899730685786
3	369	767.509882243178	33.78983387085
3	370	769.405329615205	34.55902209118
3	371	775.953667658699	40.612254391911
3	372	776.720123680484	33.36202360453
3	375	786.213304245579	41.401924207041
3	378	792.013098587186	44.6872992279
3	390	808.949241895722	52.027962762754
3	393	817.946960540716	58.232972039843
3	394	817.948785789664	56.141936163616
3	395	820.608511561941	42.730784528277
3	396	820.648052320645	30.06205248182
3	397	820.740340210642	26.179218838634
3	400	825.838858219259	11.963724638292
3	401	826.012702219569	0.686179091601
3	404	832.947061106353	1.643077210201
3	416	851.135948677337	15.376779830673
3	419	865.309853186824	29.169715737537
3	427	882.216196038471	36.96208135684
3	445	912.899211075799	61.899772326756
3	446	919.794129881513	61.454678992222
3	453	942.830871291107	75.881106430998
3	454	942.889112682853	68.626163316867
3	457	944.661751069717	61.423528138362
3	458	949.043130126895	62.819102766338
3	459	950.688734692203	63.419095073894
3	468	960.353360213377	72.462567690404
3	475	974.727722603773	51.834793236254
3	476	975.983666881433	45.975140719108
3	479	981.052321730434	47.170267687406
3	480	981.597078795892	37.126683437988
3	481	981.978052011185	30.72780360034
3	484	984.370705306072	28.794335491296
3	485	987.340777110994	29.890146636039
3	486	990.507989900443	30.695292364661
3	493	998.756899651119	34.510161829131
3	494	999.26248209457	34.815283990584
3	497	1002.954753562102	37.327728855829
3	498	1004.69272181967	25.175270215487
3	505	1012.641548328163	29.334477081153
3	506	1014.338357767746	21.670670923022
3	507	1014.974630427663	19.01802990747
3	510	1021.488322890533	24.299615443563
3	511	1022.184797420354	21.064964400343
3	514	1025.904888483156	16.340777527868
3	515	1026.002673258435	16.046730739016
3	516	1026.439310422049	16.409192965103
3	519	1034.827997539919	19.098811912435
3	520	1040.507007145541	14.719111466391
3	523	1042.103661498559	10.31642934262
3	524	1043.102683126981	1.531146233851
3	530	1070.332864140911	0
3	536	1102.262330561447	0
3	541	1114.327030852031	10.988349209023
3	542	1115.870174893737	1.953229117207
3	545	1117.645913382428	1.385952418142
3	548	1126.340153418487	0
3	551	1130.730182670005	2.630893797262
3	554	1181.700292375175	0
3	560	1194.515615538586	2.22789601247
3	563	1201.006878062373	0
3	581	1217.318206536586	13.961505048091
3	582	1219.727173736553	15.799490341508
3	583	1220.520561628345	11.242231462467
3	590	1236.199633726187	20.641887750397
3	595	1238.192141336397	16.196585344582
3	596	1239.704285918757	14.905959842152
3	601	1245.720124254093	11.153157436781
3	602	1247.033546071988	10.735304693214
3	603	1247.573334557072	10.783487400732
3	604	1251.432649830269	11.00939615227
3	607	1255.244584095003	13.651776319079
3	608	1257.917239261924	5.092748470667
3	615	1272.889717813171	9.384505050419
3	618	1277.125735069435	9.804963872941
3	619	1280.522544187892	11.714650298877
3	620	1283.19625144399	8.157530639693
3	625	1286.974642146593	3.100394924853
3	626	1290.863817624096	4.800764437283
3	629	1315.934952105333	0
3	632	1323.18613302719	2.651041344454
3	635	1331.397785491519	0
3	641	1348.601102068685	0
3	646	1354.051267776275	5.313519923281
3	647	1354.805185253508	5.045988585265
3	652	1360.629755931547	4.550128698074
3	653	1362.972202801361	3.461986791555
3	656	1373.423749432305	3.480844025826
3	662	1382.426484004375	4.718078801725
3	667	1396.891889398992	7.985340538803
3	668	1397.043161624225	7.126265010946
3	674	1425.652780336723	0
3	677	1463.143094932568	0
3	680	1484.19630794049	0
3	683	1490.519673904448	0
3	686	1497.64550983778	0
3	700	1536.098349151717	0.833566468897
3	701	1536.848258063713	1.010206116655
3	704	1547.982672493531	2.859835577459
3	709	1554.960467676244	3.838161893762
3	710	1557.331203446631	5.73624541085
3	713	1563.414226492044	5.831375947497
3	720	1567.785766653131	3.221008149126
3	727	1579.573943129958	14.807283344491
3	728	1583.439493446066	18.273070670016
3	729	1584.343232588158	15.603925370005
3	730	1585.924497807909	14.929291143189
3	731	1591.206557875764	16.887248801407
3	734	1607.844387130779	5.977080011629
3	737	1613.23501030281	0
3	742	1618.201595910555	4.853752010224
3	745	1620.330059290269	5.814481334347
3	754	1633.34367016402	14.3738975889
3	755	1637.575261756783	15.498350188304
3	756	1637.96516782802	15.483634359087
3	759	1644.912908122809	15.87491181024
3	762	1649.991205386382	19.68932270956
3	765	1653.882566527102	11.911948584794
3	766	1654.557742745838	8.760115314912
3	773	1673.835078614107	21.785992577552
3	774	1678.250297101421	13.58489576497
3	775	1678.883643202293	11.84364380135
3	778	1681.79710623453	9.408263076018
3	781	1688.991963422089	8.986201631843
3	782	1693.729060663724	7.314420198467
3	785	1697.427960989364	0
3	790	1702.645023054209	4.554088050023
3	791	1709.595379221085	9.060489736081
3	794	1712.326784755656	0
3	797	1720.655219916318	0
3	800	1729.016195236021	0
3	806	1751.219673395646	2.171072934553
3	809	1753.424086101878	1.291337239807
3	812	1764.735440577085	5.490212342842
3	815	1771.722992714899	5.070174976186
3	821	1791.508641308481	0
3	826	1796.87374879223	4.378604399566
3	827	1813.612986813521	18.003849988876
3	830	1820.170033456156	2.271843983905
3	833	1826.477145882993	0
3	841	1838.363387407473	11.018536701084
3	842	1841.810249670763	12.546051662432
3	845	1853.837409993153	0
3	848	1858.697692159903	1.60687801146
3	851	1860.926416289429	0
3	854	1861.535819466845	0.515395670775
3	857	1872.028882896978	0
3	863	1890.504879991416	0.00272058442
3	866	1891.915466542604	0
3	872	1903.236297425599	0.9030243412
3	875	1914.932611185489	0
3	878	1933.34543590036	0
3	887	1944.001578571869	10.115104873728
3	892	1957.683065613612	20.921088042991
3	893	1960.305464407851	20.468309599606
3	894	1962.69405729421	20.833398100293
3	899	1964.046720311419	17.114059884936
3	902	1971.243509938552	15.479559092476
3	905	1972.444584974484	8.632660130394
3	906	1979.827759423891	15.812709991845
3	909	1984.09057862577	18.273006673876
3	910	1985.883680662191	13.941084284828
3	919	1992.90889574239	9.433913066365
3	920	1992.92326800263	6.502806060153
3	923	2000.481894991698	12.389603355228
3	931	2007.562654173299	19.423297131906
3	934	2012.363147839833	22.640375736135
3	937	2013.193006507385	16.34576234717
3	938	2019.717985206408	18.668871682985
3	939	2021.695397477356	19.853316036437
3	942	2027.743494893137	18.26355104823
3	945	2032.326594387327	19.699433933874
3	952	2042.294982863116	17.502735875297
3	953	2042.340226927016	12.488361787602
3	954	2044.553123194539	9.022748988768
3	955	2045.093257093716	7.013431368394
3	961	2058.372542406682	16.889249299008
3	962	2064.545433143826	17.718650819324
3	965	2074.234724884822	0
3	968	2079.913766419625	0
3	971	2083.09420677034	0.320230625634
3	974	2095.41823949553	3.361918378411
3	977	2098.415127567907	1.530907330257
3	980	2105.647315185008	0.179165269068
3	983	2110.529644012316	0.018056030498
3	986	2119.477496689677	0
3	989	2142.114832448286	0
3	992	2150.60704056393	0
3	997	2163.863303921993	3.069676057875
3	998	2172.773119656732	9.455291863703
3	1001	2185.53289677777	0
3	1007	2216.055713346613	0
3	1014	2245.670728674273	18.218935692331
3	1015	2246.034020301455	12.655987044991
3	1016	2246.979787571068	7.637960371309
3	1022	2259.645730645783	1.569304647452
3	1025	2296.506491830768	0
3	1028	2308.528877503233	0
3	1035	2327.507724728848	17.743580751994
3	1038	2328.573419032059	15.279073722463
3	1039	2334.540531683708	13.459791543973
3	1042	2337.155712038816	9.293181143578
3	1043	2340.276724326928	5.212186167885
3	1046	2344.671752940697	0
3	1049	2349.978977906862	0
3	1052	2355.029165384409	0
3	1055	2366.281985552846	0
3	1058	2369.851862945946	2.572714781727
3	1061	2387.576979513526	0
3	1068	2401.706150338511	11.255066064285
3	1069	2402.875708866932	11.380503384194
3	1072	2405.967085847481	6.810643309991
3	1075	2415.978728415833	13.064897454275
3	1076	2416.231534363506	6.319451322698
3	1079	2425.107880266121	0.845744804731
3	1085	2457.905839991901	0
3	1091	2469.699669328347	0
3	1100	2485.460370158308	6.882086725594
3	1103	2491.497376120721	0
4	168	352.812174240617	34
4	171	360.689443447252	35
4	183	399.934284409055	36
4	186	403.915313351844	37
4	195	421.796817212364	38
4	198	426.178265963977	39
4	207	454.637894259365	40
4	215	492.001379186385	41
4	224	516.659391222331	42
4	229	533.910526658761	43
4	235	543.59098924103	44
4	236	544.077955436654	45
4	237	544.527800479752	46
4	240	557.142864837198	47
4	248	569.014531997844	48
4	265	611.487293209655	49
4	266	613.981074372897	50
4	276	629.084999660824	51
4	279	637.933131713933	52
4	280	644.200454528255	53
4	283	650.790127377874	54
4	284	650.989316773651	55
4	285	652.58380451606	56
4	288	656.279682884942	57
4	291	656.773871137292	58
4	298	672.348690171906	59
4	301	677.900010326574	60
4	302	678.417637087352	61
4	303	682.913152494414	62
4	306	690.991700328848	63
4	312	707.179846853486	64
4	337	731.550888555706	65
4	361	752.119686712861	66
4	364	758.005969667456	67
4	370	769.405329615205	68
4	371	775.953667658699	69
4	372	776.720123680484	70
4	378	792.013098587186	71
4	393	817.946960540716	72
4	394	817.948785789664	73
4	395	820.608511561941	74
4	396	820.648052320645	75
4	397	820.740340210642	76
4	400	825.838858219259	77
4	401	826.012702219569	78
4	404	832.947061106353	79
4	446	919.794129881513	80
4	454	942.889112682853	81
4	457	944.661751069717	82
4	458	949.043130126895	83
4	459	950.688734692203	84
4	476	975.983666881433	85
4	479	981.052321730434	86
4	480	981.597078795892	87
4	481	981.978052011185	88
4	484	984.370705306072	89
4	485	987.340777110994	90
4	486	990.507989900443	91
4	494	999.26248209457	92
4	497	1002.954753562102	93
4	498	1004.69272181967	94
4	506	1014.338357767746	95
4	507	1014.974630427663	96
4	510	1021.488322890533	97
4	511	1022.184797420354	98
4	514	1025.904888483156	99
4	515	1026.002673258435	100
4	516	1026.439310422049	101
4	520	1040.507007145541	102
4	524	1043.102683126981	103
4	525	1054.474380352995	104
4	531	1071.521790941903	105
4	541	1114.327030852031	106
4	542	1115.870174893737	107
4	545	1117.645913382428	108
4	546	1121.028083125116	109
4	551	1130.730182670005	110
4	552	1131.004378138627	111
4	555	1185.872832706225	112
4	561	1198.783575753506	113
4	582	1219.727173736553	114
4	583	1220.520561628345	115
4	590	1236.199633726187	116
4	596	1239.704285918757	117
4	601	1245.720124254093	118
4	602	1247.033546071988	119
4	603	1247.573334557072	120
4	604	1251.432649830269	121
4	607	1255.244584095003	122
4	608	1257.917239261924	123
4	615	1272.889717813171	124
4	619	1280.522544187892	125
4	620	1283.19625144399	126
4	625	1286.974642146593	127
4	626	1290.863817624096	128
4	627	1291.120039148511	129
4	632	1323.18613302719	130
4	633	1327.024370498971	131
4	636	1331.629815590414	132
4	646	1354.051267776275	133
4	647	1354.805185253508	134
4	653	1362.972202801361	135
4	657	1374.313843671197	136
4	667	1396.891889398992	137
4	668	1397.043161624225	138
4	669	1401.459316014833	139
4	675	1436.386051971157	140
4	678	1474.829076633159	141
4	681	1488.087526536281	142
4	684	1491.2591279058	143
4	687	1500.616366502207	144
4	701	1536.848258063713	145
4	704	1547.982672493531	146
4	710	1557.331203446631	147
4	720	1567.785766653131	148
4	728	1583.439493446066	149
4	729	1584.343232588158	150
4	730	1585.924497807909	151
4	731	1591.206557875764	152
4	735	1610.305073138058	153
4	745	1620.330059290269	154
4	755	1637.575261756783	155
4	756	1637.96516782802	156
4	759	1644.912908122809	157
4	762	1649.991205386382	158
4	766	1654.557742745838	159
4	774	1678.250297101421	160
4	775	1678.883643202293	161
4	782	1693.729060663724	162
4	783	1693.998000049637	163
4	790	1702.645023054209	164
4	791	1709.595379221085	165
4	792	1711.779686693506	166
4	795	1714.472232191111	167
4	798	1727.858614843706	168
4	801	1730.589255106289	169
4	809	1753.424086101878	170
4	812	1764.735440577085	171
4	815	1771.722992714899	172
4	816	1774.516871334374	173
4	827	1813.612986813521	174
4	830	1820.170033456156	175
4	831	1820.228722524747	176
4	842	1841.810249670763	177
4	843	1844.46811400298	178
4	848	1858.697692159903	179
4	849	1859.080974456994	180
4	854	1861.535819466845	181
4	855	1869.266996052948	182
4	858	1886.956729343301	183
4	864	1890.835938669394	184
4	867	1894.903852820736	185
4	873	1905.431228732067	186
4	876	1919.250979343528	187
4	892	1957.683065613612	188
4	893	1960.305464407851	189
4	894	1962.69405729421	190
4	899	1964.046720311419	191
4	902	1971.243509938552	192
4	906	1979.827759423891	193
4	909	1984.09057862577	194
4	910	1985.883680662191	195
4	920	1992.92326800263	196
4	934	2012.363147839833	197
4	937	2013.193006507385	198
4	938	2019.717985206408	199
4	939	2021.695397477356	200
4	942	2027.743494893137	201
4	953	2042.340226927016	202
4	954	2044.553123194539	203
4	955	2045.093257093716	204
4	962	2064.545433143826	205
4	963	2073.667153026205	206
4	966	2076.444875769406	207
4	971	2083.09420677034	208
4	977	2098.415127567907	209
4	980	2105.647315185008	210
4	983	2110.529644012316	211
4	984	2113.679498371605	212
4	987	2119.557235352769	213
4	990	2143.681548724262	214
4	997	2163.863303921993	215
4	998	2172.773119656732	216
4	999	2178.643521971681	217
4	1002	2189.5401785145	218
4	1014	2245.670728674273	219
4	1015	2246.034020301455	220
4	1016	2246.979787571068	221
4	1017	2250.17758307044	222
4	1023	2260.383220147232	223
4	1026	2303.295314544997	224
4	1038	2328.573419032059	225
4	1039	2334.540531683708	226
4	1043	2340.276724326928	227
4	1044	2340.686070097501	228
4	1047	2345.013148073622	229
4	1050	2351.288158153766	230
4	1053	2362.071109705788	231
4	1059	2372.403599405462	232
4	1069	2402.875708866932	233
4	1072	2405.967085847481	234
4	1076	2416.231534363506	235
4	1079	2425.107880266121	236
4	1080	2431.323610311367	237
4	1086	2461.563844435783	238
4	1092	2470.363162096394	239
4	1101	2486.405761963483	240
4	1104	2491.59777812354	241
5	168	352.812174240617	0
5	170	356.599406890352	0
5	171	360.689443447252	0
5	178	388.101106177111	0
5	183	399.934284409055	0
5	185	403.158948763485	0
5	186	403.915313351844	0
5	188	404.671257300135	0
5	195	421.796817212364	0
5	197	425.074399879554	0
5	198	426.178265963977	0
5	205	445.483322038671	0
5	207	454.637894259365	0
5	212	483.935540730089	0
5	214	490.35263245687	1
5	215	492.001379186385	1
5	222	506.405028027485	1
5	224	516.659391222331	1
5	226	522.545048776411	1
5	228	528.734343372678	2
5	229	533.910526658761	2
5	231	536.083987584576	2
5	235	543.59098924103	2
5	236	544.077955436654	1
5	237	544.527800479752	0
5	239	551.249347324478	0
5	240	557.142864837198	0
5	244	562.60873674158	0
5	246	563.867480835961	1
5	248	569.014531997844	1
5	253	576.619757858197	1
5	257	586.834076601689	2
5	259	595.55728855211	3
5	261	597.10458535711	4
5	264	604.812931941783	5
5	265	611.487293209655	5
5	266	613.981074372897	4
5	276	629.084999660824	3
5	278	633.757136721654	3
5	279	637.933131713933	3
5	280	644.200454528255	2
5	282	647.970783522591	2
5	283	650.790127377874	2
5	284	650.989316773651	1
5	285	652.58380451606	0
5	287	655.34905644015	0
5	288	656.279682884942	0
5	290	656.468518046476	0
5	291	656.773871137292	0
5	293	661.824175248755	0
5	295	668.241122269066	1
5	297	671.313925790591	2
5	298	672.348690171906	2
5	300	673.375958610896	2
5	301	677.900010326574	2
5	302	678.417637087352	1
5	303	682.913152494414	0
5	305	688.258506868413	0
5	306	690.991700328848	0
5	311	701.611408714652	0
5	312	707.179846853486	0
5	314	707.702232946483	0
5	318	710.142717853848	1
5	326	718.54606490997	2
5	328	719.998845182892	3
5	330	720.188530874903	4
5	335	724.10623898167	5
5	337	731.550888555706	5
5	339	733.720048372328	5
5	343	735.341413266788	6
5	354	744.811380038538	7
5	359	747.325799359286	8
5	361	752.119686712861	8
5	363	756.921279132968	8
5	364	758.005969667456	8
5	368	761.806849626048	8
5	370	769.405329615205	8
5	371	775.953667658699	7
5	372	776.720123680484	6
5	377	790.585999838825	6
5	378	792.013098587186	6
5	392	813.875133580967	6
5	393	817.946960540716	6
5	394	817.948785789664	5
5	395	820.608511561941	4
5	396	820.648052320645	3
5	397	820.740340210642	2
5	399	825.326523127968	2
5	400	825.838858219259	2
5	401	826.012702219569	1
5	403	831.303983896152	1
5	404	832.947061106353	1
5	406	835.759168846664	1
5	412	845.254114681631	2
5	415	850.999438749043	3
5	425	874.262949365986	4
5	431	886.224027360557	5
5	433	887.269639618309	6
5	435	887.890792522973	7
5	446	919.794129881513	7
5	448	922.892929367519	7
5	452	933.882054043028	8
5	454	942.889112682853	8
5	456	944.470395357904	8
5	457	944.661751069717	8
5	458	949.043130126895	7
5	459	950.688734692203	6
5	463	955.576369814776	6
5	465	957.450630474955	7
5	467	959.812697535782	8
5	470	964.246737821988	9
5	474	965.627024706273	10
5	476	975.983666881433	10
5	478	979.517451604183	10
5	479	981.052321730434	10
5	480	981.597078795892	9
5	481	981.978052011185	8
5	483	983.30707124701	8
5	484	984.370705306072	8
5	485	987.340777110994	7
5	486	990.507989900443	6
5	488	992.667686844724	6
5	492	997.18870744697	7
5	494	999.26248209457	7
5	496	1001.119833020011	7
5	497	1002.954753562102	7
5	498	1004.69272181967	6
5	500	1009.564110955288	6
5	502	1009.955942519419	7
5	506	1014.338357767746	7
5	507	1014.974630427663	6
5	509	1015.729185627484	6
5	510	1021.488322890533	6
5	511	1022.184797420354	5
5	513	1025.78789567915	5
5	514	1025.904888483156	5
5	515	1026.002673258435	4
5	516	1026.439310422049	3
5	520	1040.507007145541	2
5	524	1043.102683126981	1
5	525	1054.474380352995	0
5	530	1070.332864140911	0
5	531	1071.521790941903	0
5	536	1102.262330561447	0
5	538	1103.338681643008	1
5	540	1113.91694577653	2
5	541	1114.327030852031	2
5	542	1115.870174893737	1
5	544	1116.259960964286	1
5	545	1117.645913382428	1
5	546	1121.028083125116	0
5	548	1126.340153418487	0
5	550	1128.099288872743	1
5	551	1130.730182670005	1
5	552	1131.004378138627	0
5	554	1181.700292375175	0
5	555	1185.872832706225	0
5	559	1192.287719526116	0
5	561	1198.783575753506	0
5	563	1201.006878062373	0
5	567	1203.927683395045	1
5	572	1209.278330165878	2
5	579	1215.55774597579	3
5	582	1219.727173736553	3
5	583	1220.520561628345	2
5	585	1221.995555991815	2
5	587	1224.798326076605	3
5	589	1234.566966817312	4
5	590	1236.199633726187	4
5	592	1236.298241378774	4
5	596	1239.704285918757	4
5	598	1240.423253677999	4
5	600	1241.592807775924	5
5	601	1245.720124254093	5
5	602	1247.033546071988	4
5	603	1247.573334557072	3
5	604	1251.432649830269	2
5	606	1252.824490791257	2
5	607	1255.244584095003	2
5	608	1257.917239261924	1
5	610	1263.505212762752	1
5	612	1267.320771196494	2
5	614	1268.807893889015	3
5	615	1272.889717813171	3
5	619	1280.522544187892	2
5	620	1283.19625144399	1
5	622	1283.87424722174	1
5	624	1286.063053186813	2
5	625	1286.974642146593	2
5	626	1290.863817624096	1
5	627	1291.120039148511	0
5	629	1315.934952105333	0
5	631	1320.535091682736	1
5	632	1323.18613302719	1
5	633	1327.024370498971	0
5	635	1331.397785491519	0
5	636	1331.629815590414	0
5	641	1348.601102068685	0
5	643	1348.737747852994	1
5	645	1349.759196668243	2
5	646	1354.051267776275	2
5	647	1354.805185253508	1
5	651	1359.510216009806	1
5	653	1362.972202801361	1
5	657	1374.313843671197	0
5	661	1377.70840520265	0
5	664	1388.906548860189	1
5	666	1389.916896613279	2
5	667	1396.891889398992	2
5	668	1397.043161624225	1
5	669	1401.459316014833	0
5	674	1425.652780336723	0
5	675	1436.386051971157	0
5	677	1463.143094932568	0
5	678	1474.829076633159	0
5	680	1484.19630794049	0
5	681	1488.087526536281	0
5	683	1490.519673904448	0
5	684	1491.2591279058	0
5	686	1497.64550983778	0
5	687	1500.616366502207	0
5	697	1535.26478268282	0
5	699	1535.838051947058	1
5	701	1536.848258063713	1
5	703	1545.122836916072	1
5	704	1547.982672493531	1
5	706	1551.122305782482	1
5	710	1557.331203446631	1
5	715	1564.564758504005	1
5	717	1564.766659785467	2
5	719	1565.16642277605	3
5	720	1567.785766653131	3
5	724	1570.99520666472	3
5	726	1574.319309074357	4
5	728	1583.439493446066	4
5	729	1584.343232588158	3
5	730	1585.924497807909	2
5	731	1591.206557875764	1
5	735	1610.305073138058	0
5	737	1613.23501030281	0
5	741	1614.515577955922	1
5	744	1618.96977257512	2
5	745	1620.330059290269	2
5	749	1622.481533468933	2
5	751	1629.037996312569	3
5	753	1630.301882676822	4
5	755	1637.575261756783	4
5	756	1637.96516782802	3
5	758	1641.970617942308	3
5	759	1644.912908122809	3
5	761	1645.797627430926	3
5	762	1649.991205386382	3
5	766	1654.557742745838	2
5	770	1667.039999400943	2
5	772	1672.388843158512	3
5	774	1678.250297101421	3
5	775	1678.883643202293	2
5	782	1693.729060663724	1
5	783	1693.998000049637	0
5	785	1697.427960989364	0
5	787	1698.090935004186	1
5	789	1700.534889485004	2
5	790	1702.645023054209	2
5	791	1709.595379221085	1
5	792	1711.779686693506	0
5	794	1712.326784755656	0
5	795	1714.472232191111	0
5	797	1720.655219916318	0
5	798	1727.858614843706	0
5	800	1729.016195236021	0
5	801	1730.589255106289	0
5	805	1749.048600461093	0
5	808	1752.132748862071	1
5	809	1753.424086101878	1
5	811	1759.245228234243	1
5	812	1764.735440577085	1
5	814	1766.652817738713	1
5	815	1771.722992714899	1
5	816	1774.516871334374	0
5	821	1791.508641308481	0
5	823	1792.495144392664	1
5	827	1813.612986813521	1
5	829	1817.898189472251	1
5	830	1820.170033456156	1
5	831	1820.228722524747	0
5	833	1826.477145882993	0
5	835	1827.344850706389	1
5	842	1841.810249670763	1
5	843	1844.46811400298	0
5	845	1853.837409993153	0
5	847	1857.090814148443	1
5	848	1858.697692159903	1
5	849	1859.080974456994	0
5	851	1860.926416289429	0
5	853	1861.02042379607	1
5	854	1861.535819466845	1
5	855	1869.266996052948	0
5	857	1872.028882896978	0
5	858	1886.956729343301	0
5	862	1890.502159406996	0
5	864	1890.835938669394	0
5	866	1891.915466542604	0
5	867	1894.903852820736	0
5	871	1902.333273084399	0
5	873	1905.431228732067	0
5	875	1914.932611185489	0
5	876	1919.250979343528	0
5	878	1933.34543590036	0
5	882	1936.761977570621	1
5	884	1939.837154808245	2
5	886	1941.860659193917	3
5	889	1946.932660426483	4
5	891	1955.763950846076	5
5	892	1957.683065613612	5
5	893	1960.305464407851	4
5	894	1962.69405729421	3
5	896	1963.81192484409	3
5	898	1964.015049432046	4
5	899	1964.046720311419	4
5	901	1965.817571951894	4
5	902	1971.243509938552	4
5	906	1979.827759423891	3
5	908	1983.474982676025	3
5	909	1984.09057862577	3
5	910	1985.883680662191	2
5	914	1988.09229163647	2
5	916	1988.139357041393	3
5	918	1989.722772103698	4
5	920	1992.92326800263	4
5	925	2001.049113523423	4
5	933	2009.479943844907	5
5	934	2012.363147839833	5
5	936	2012.627160453453	5
5	937	2013.193006507385	5
5	938	2019.717985206408	4
5	939	2021.695397477356	3
5	941	2024.792246987819	3
5	942	2027.743494893137	3
5	949	2038.079825725322	3
5	951	2041.483293107674	4
5	953	2042.340226927016	4
5	954	2044.553123194539	3
5	955	2045.093257093716	2
5	962	2064.545433143826	1
5	963	2073.667153026205	0
5	965	2074.234724884822	0
5	966	2076.444875769406	0
5	968	2079.913766419625	0
5	970	2082.773976144706	1
5	971	2083.09420677034	1
5	976	2096.88422023765	1
5	977	2098.415127567907	1
5	979	2105.46814991594	1
5	980	2105.647315185008	1
5	982	2110.511587981818	1
5	983	2110.529644012316	1
5	984	2113.679498371605	0
5	986	2119.477496689677	0
5	987	2119.557235352769	0
5	989	2142.114832448286	0
5	990	2143.681548724262	0
5	992	2150.60704056393	0
5	994	2160.793627864118	1
5	996	2163.317827793029	2
5	997	2163.863303921993	2
5	998	2172.773119656732	1
5	999	2178.643521971681	0
5	1001	2185.53289677777	0
5	1002	2189.5401785145	0
5	1007	2216.055713346613	0
5	1009	2227.451792981942	1
5	1011	2233.378033256464	2
5	1013	2239.341827199759	3
5	1014	2245.670728674273	3
5	1015	2246.034020301455	2
5	1016	2246.979787571068	1
5	1017	2250.17758307044	0
5	1021	2258.076425998331	0
5	1023	2260.383220147232	0
5	1025	2296.506491830768	0
5	1026	2303.295314544997	0
5	1028	2308.528877503233	0
5	1030	2309.764143976854	1
5	1032	2313.294345309596	2
5	1037	2327.862530895238	3
5	1038	2328.573419032059	3
5	1039	2334.540531683708	2
5	1043	2340.276724326928	1
5	1044	2340.686070097501	0
5	1046	2344.671752940697	0
5	1047	2345.013148073622	0
5	1049	2349.978977906862	0
5	1050	2351.288158153766	0
5	1052	2355.029165384409	0
5	1053	2362.071109705788	0
5	1055	2366.281985552846	0
5	1059	2372.403599405462	0
5	1061	2387.576979513526	0
5	1063	2390.451084274226	1
5	1067	2399.15644253749	2
5	1069	2402.875708866932	2
5	1071	2402.913830961558	2
5	1072	2405.967085847481	2
5	1076	2416.231534363506	1
5	1078	2424.26213546139	1
5	1079	2425.107880266121	1
5	1080	2431.323610311367	0
5	1085	2457.905839991901	0
5	1086	2461.563844435783	0
5	1091	2469.699669328347	0
5	1092	2470.363162096394	0
5	1096	2478.578283432714	0
5	1101	2486.405761963483	0
5	1103	2491.497376120721	0
5	1104	2491.59777812354	0
6	168	352.812174240617	2.817810219759
6	171	360.689443447252	4.0900365569
6	183	399.934284409055	11.833178231944
6	186	403.915313351844	0.756364588359
6	195	421.796817212364	2.649907110653
6	198	426.178265963977	1.103866084423
6	207	454.637894259365	9.154572220694
6	215	492.001379186385	8.065838456296
6	224	516.659391222331	13.561691434181
6	229	533.910526658761	27.505498631276
6	235	543.59098924103	14.856645868352
6	236	544.077955436654	7.993967852078
6	237	544.527800479752	2.950512068196
6	240	557.142864837198	5.89351751272
6	248	569.014531997844	6.405795256264
6	265	611.487293209655	34.867535351458
6	266	613.981074372897	32.506151202646
6	276	629.084999660824	31.980414303714
6	279	637.933131713933	33.12019977215
6	280	644.200454528255	25.23642362361
6	283	650.790127377874	27.930488566504
6	284	650.989316773651	17.232180051997
6	285	652.58380451606	4.613020993469
6	288	656.279682884942	0.930626444792
6	291	656.773871137292	0.305353090816
6	298	672.348690171906	10.524514923151
6	301	677.900010326574	9.658888057508
6	302	678.417637087352	7.103711296761
6	303	682.913152494414	9.537193883518
6	306	690.991700328848	2.733193460435
6	312	707.179846853486	5.568438138834
6	337	731.550888555706	21.408170701858
6	361	752.119686712861	32.120841529969
6	364	758.005969667456	37.817438792553
6	370	769.405329615205	35.685281242877
6	371	775.953667658699	41.107360134674
6	372	776.720123680484	41.378710413696
6	378	792.013098587186	47.201718548648
6	393	817.946960540716	61.025681407748
6	394	817.948785789664	58.234797288791
6	395	820.608511561941	58.801661935893
6	396	820.648052320645	42.770325286981
6	397	820.740340210642	30.154340371817
6	400	825.838858219259	31.277736847251
6	401	826.012702219569	12.137568638602
6	404	832.947061106353	7.620537978385
6	446	919.794129881513	68.79469113247
6	454	942.889112682853	75.939347822744
6	457	944.661751069717	70.398801703731
6	458	949.043130126895	65.80490719554
6	459	950.688734692203	64.464707331646
6	476	975.983666881433	53.090737513914
6	479	981.052321730434	51.043795568109
6	480	981.597078795892	47.715024752864
6	481	981.978052011185	37.507656653281
6	484	984.370705306072	33.120456895227
6	485	987.340777110994	31.764407296218
6	486	990.507989900443	33.057359425488
6	494	999.26248209457	35.015744272582
6	497	1002.954753562102	38.507555458116
6	498	1004.69272181967	39.065697113397
6	506	1014.338357767746	31.031286520736
6	507	1014.974630427663	22.306943582939
6	510	1021.488322890533	25.53172237034
6	511	1022.184797420354	24.996089973384
6	514	1025.904888483156	24.785055463145
6	515	1026.002673258435	16.438562303147
6	516	1026.439310422049	16.48336790263
6	520	1040.507007145541	24.777821518057
6	524	1043.102683126981	11.315450971042
6	525	1054.474380352995	12.902843459865
6	531	1071.521790941903	1.188926800992
6	541	1114.327030852031	12.064700290584
6	542	1115.870174893737	12.531493250729
6	545	1117.645913382428	3.728967605898
6	546	1121.028083125116	4.76812216083
6	551	1130.730182670005	4.390029251518
6	552	1131.004378138627	2.905089265884
6	555	1185.872832706225	4.17254033105
6	561	1198.783575753506	6.49585622739
6	582	1219.727173736553	16.370472248058
6	583	1220.520561628345	16.5928782333
6	590	1236.199633726187	26.921303560309
6	596	1239.704285918757	17.708729926942
6	601	1245.720124254093	20.921798177488
6	602	1247.033546071988	12.466579254676
6	603	1247.573334557072	11.275093178298
6	604	1251.432649830269	14.642802673929
6	607	1255.244584095003	14.821330417004
6	608	1257.917239261924	16.324431486
6	615	1272.889717813171	20.065227021914
6	619	1280.522544187892	13.201772991398
6	620	1283.19625144399	14.388357554975
6	625	1286.974642146593	11.935921342296
6	626	1290.863817624096	6.989570402356
6	627	1291.120039148511	5.056985961698
6	632	1323.18613302719	7.251180921857
6	633	1327.024370498971	6.489278816235
6	636	1331.629815590414	0.232030098895
6	646	1354.051267776275	5.45016570759
6	647	1354.805185253508	6.067437400514
6	653	1362.972202801361	6.892575567888
6	657	1374.313843671197	4.370938264718
6	667	1396.891889398992	19.183484196342
6	668	1397.043161624225	8.136612764036
6	669	1401.459316014833	11.542419401554
6	675	1436.386051971157	10.733271634434
6	678	1474.829076633159	11.685981700591
6	681	1488.087526536281	3.891218595791
6	684	1491.2591279058	0.739454001352
6	687	1500.616366502207	2.970856664427
6	701	1536.848258063713	1.583475380893
6	704	1547.982672493531	12.144620546473
6	710	1557.331203446631	6.208897664149
6	720	1567.785766653131	10.202916108584
6	728	1583.439493446066	18.672833660599
6	729	1584.343232588158	19.176809812108
6	730	1585.924497807909	17.185190589756
6	731	1591.206557875764	20.211351211044
6	735	1610.305073138058	8.437766018908
6	745	1620.330059290269	6.982215389938
6	755	1637.575261756783	18.605489181663
6	756	1637.96516782802	15.888256259541
6	759	1644.912908122809	22.431374653876
6	762	1649.991205386382	20.953209073813
6	766	1654.557742745838	12.58712480353
6	774	1678.250297101421	26.201211064866
6	775	1678.883643202293	14.218241865842
6	782	1693.729060663724	13.723298873478
6	783	1693.998000049637	7.58335958438
6	790	1702.645023054209	5.217062064845
6	791	1709.595379221085	11.504444216899
6	792	1711.779686693506	11.244797208502
6	795	1714.472232191111	2.145447435455
6	798	1727.858614843706	7.203394927388
6	801	1730.589255106289	1.573059870268
6	809	1753.424086101878	4.375485640785
6	812	1764.735440577085	12.602691715014
6	815	1771.722992714899	12.477764480656
6	816	1774.516871334374	7.864053595661
6	827	1813.612986813521	21.117842420857
6	830	1820.170033456156	24.560896631511
6	831	1820.228722524747	2.330533052496
6	842	1841.810249670763	14.465398964374
6	843	1844.46811400298	15.203915994649
6	848	1858.697692159903	4.86028216675
6	849	1859.080974456994	1.990160308551
6	854	1861.535819466845	0.609403177416
6	855	1869.266996052948	8.246572256878
6	858	1886.956729343301	14.927846446323
6	864	1890.835938669394	0.333779262398
6	867	1894.903852820736	2.988386278132
6	873	1905.431228732067	3.097955647668
6	876	1919.250979343528	4.318368158039
6	892	1957.683065613612	23.796591915471
6	893	1960.305464407851	23.54348683723
6	894	1962.69405729421	22.856902485965
6	899	1964.046720311419	22.186061117502
6	902	1971.243509938552	24.310849512069
6	906	1979.827759423891	16.015834579801
6	909	1984.09057862577	20.075529193724
6	910	1985.883680662191	20.066108710297
6	920	1992.92326800263	9.448285326605
6	934	2012.363147839833	24.22379079844
6	937	2013.193006507385	23.470234403687
6	938	2019.717985206408	22.870741046193
6	939	2021.695397477356	20.646283953933
6	942	2027.743494893137	25.901413452218
6	953	2042.340226927016	17.547979939197
6	954	2044.553123194539	14.701258055125
6	955	2045.093257093716	9.562882887945
6	962	2064.545433143826	23.062140036152
6	963	2073.667153026205	26.840370701703
6	966	2076.444875769406	2.210150884584
6	971	2083.09420677034	3.180440350715
6	977	2098.415127567907	6.358806450788
6	980	2105.647315185008	8.763094947358
6	983	2110.529644012316	5.061494096376
6	984	2113.679498371605	3.167910389787
6	987	2119.557235352769	0.079738663092
6	990	2143.681548724262	1.566716275976
6	997	2163.863303921993	13.256263358063
6	998	2172.773119656732	11.979491792614
6	999	2178.643521971681	15.325694178652
6	1002	2189.5401785145	4.00728173673
6	1014	2245.670728674273	29.61501532766
6	1015	2246.034020301455	18.582227319513
6	1016	2246.979787571068	13.601754314604
6	1017	2250.17758307044	10.835755870681
6	1023	2260.383220147232	2.306794148901
6	1026	2303.295314544997	6.788822714229
6	1038	2328.573419032059	18.809275055205
6	1039	2334.540531683708	21.246186374112
6	1043	2340.276724326928	12.41419343169
6	1044	2340.686070097501	5.621531938458
6	1047	2345.013148073622	0.341395132925
6	1050	2351.288158153766	1.309180246904
6	1053	2362.071109705788	7.041944321379
6	1059	2372.403599405462	5.124451241243
6	1069	2402.875708866932	12.424624592706
6	1072	2405.967085847481	14.471880364743
6	1076	2416.231534363506	13.317703401948
6	1079	2425.107880266121	15.195797225313
6	1080	2431.323610311367	7.061474849977
6	1086	2461.563844435783	3.658004443882
6	1092	2470.363162096394	0.663492768047
6	1101	2486.405761963483	7.827478530769
6	1104	2491.59777812354	0.100402002819
7	170	356.599406890352	1
7	178	388.101106177111	1
7	185	403.158948763485	1
7	188	404.671257300135	1
7	197	425.074399879554	1
7	205	445.483322038671	1
7	212	483.935540730089	1
7	214	490.35263245687	2
7	222	506.405028027485	2
7	226	522.545048776411	2
7	228	528.734343372678	3
7	231	536.083987584576	3
7	239	551.249347324478	1
7	244	562.60873674158	1
7	246	563.867480835961	2
7	253	576.619757858197	2
7	257	586.834076601689	3
7	259	595.55728855211	4
7	261	597.10458535711	5
7	264	604.812931941783	6
7	278	633.757136721654	4
7	282	647.970783522591	3
7	287	655.34905644015	1
7	290	656.468518046476	1
7	293	661.824175248755	1
7	295	668.241122269066	2
7	297	671.313925790591	3
7	300	673.375958610896	3
7	305	688.258506868413	1
7	311	701.611408714652	1
7	314	707.702232946483	1
7	318	710.142717853848	2
7	326	718.54606490997	3
7	328	719.998845182892	4
7	330	720.188530874903	5
7	335	724.10623898167	6
7	339	733.720048372328	6
7	343	735.341413266788	7
7	354	744.811380038538	8
7	359	747.325799359286	9
7	363	756.921279132968	9
7	368	761.806849626048	9
7	377	790.585999838825	7
7	392	813.875133580967	7
7	399	825.326523127968	3
7	403	831.303983896152	2
7	406	835.759168846664	2
7	412	845.254114681631	3
7	415	850.999438749043	4
7	425	874.262949365986	5
7	431	886.224027360557	6
7	433	887.269639618309	7
7	435	887.890792522973	8
7	448	922.892929367519	8
7	452	933.882054043028	9
7	456	944.470395357904	9
7	463	955.576369814776	7
7	465	957.450630474955	8
7	467	959.812697535782	9
7	470	964.246737821988	10
7	474	965.627024706273	11
7	478	979.517451604183	11
7	483	983.30707124701	9
7	488	992.667686844724	7
7	492	997.18870744697	8
7	496	1001.119833020011	8
7	500	1009.564110955288	7
7	502	1009.955942519419	8
7	509	1015.729185627484	7
7	513	1025.78789567915	6
7	530	1070.332864140911	1
7	536	1102.262330561447	1
7	538	1103.338681643008	2
7	540	1113.91694577653	3
7	544	1116.259960964286	2
7	548	1126.340153418487	1
7	550	1128.099288872743	2
7	554	1181.700292375175	1
7	559	1192.287719526116	1
7	563	1201.006878062373	1
7	567	1203.927683395045	2
7	572	1209.278330165878	3
7	579	1215.55774597579	4
7	585	1221.995555991815	3
7	587	1224.798326076605	4
7	589	1234.566966817312	5
7	592	1236.298241378774	5
7	598	1240.423253677999	5
7	600	1241.592807775924	6
7	606	1252.824490791257	3
7	610	1263.505212762752	2
7	612	1267.320771196494	3
7	614	1268.807893889015	4
7	622	1283.87424722174	2
7	624	1286.063053186813	3
7	629	1315.934952105333	1
7	631	1320.535091682736	2
7	635	1331.397785491519	1
7	641	1348.601102068685	1
7	643	1348.737747852994	2
7	645	1349.759196668243	3
7	651	1359.510216009806	2
7	661	1377.70840520265	1
7	664	1388.906548860189	2
7	666	1389.916896613279	3
7	674	1425.652780336723	1
7	677	1463.143094932568	1
7	680	1484.19630794049	1
7	683	1490.519673904448	1
7	686	1497.64550983778	1
7	697	1535.26478268282	1
7	699	1535.838051947058	2
7	703	1545.122836916072	2
7	706	1551.122305782482	2
7	715	1564.564758504005	2
7	717	1564.766659785467	3
7	719	1565.16642277605	4
7	724	1570.99520666472	4
7	726	1574.319309074357	5
7	737	1613.23501030281	1
7	741	1614.515577955922	2
7	744	1618.96977257512	3
7	749	1622.481533468933	3
7	751	1629.037996312569	4
7	753	1630.301882676822	5
7	758	1641.970617942308	4
7	761	1645.797627430926	4
7	770	1667.039999400943	3
7	772	1672.388843158512	4
7	785	1697.427960989364	1
7	787	1698.090935004186	2
7	789	1700.534889485004	3
7	794	1712.326784755656	1
7	797	1720.655219916318	1
7	800	1729.016195236021	1
7	805	1749.048600461093	1
7	808	1752.132748862071	2
7	811	1759.245228234243	2
7	814	1766.652817738713	2
7	821	1791.508641308481	1
7	823	1792.495144392664	2
7	829	1817.898189472251	2
7	833	1826.477145882993	1
7	835	1827.344850706389	2
7	845	1853.837409993153	1
7	847	1857.090814148443	2
7	851	1860.926416289429	1
7	853	1861.02042379607	2
7	857	1872.028882896978	1
7	862	1890.502159406996	1
7	866	1891.915466542604	1
7	871	1902.333273084399	1
7	875	1914.932611185489	1
7	878	1933.34543590036	1
7	882	1936.761977570621	2
7	884	1939.837154808245	3
7	886	1941.860659193917	4
7	889	1946.932660426483	5
7	891	1955.763950846076	6
7	896	1963.81192484409	4
7	898	1964.015049432046	5
7	901	1965.817571951894	5
7	908	1983.474982676025	4
7	914	1988.09229163647	3
7	916	1988.139357041393	4
7	918	1989.722772103698	5
7	925	2001.049113523423	5
7	933	2009.479943844907	6
7	936	2012.627160453453	6
7	941	2024.792246987819	4
7	949	2038.079825725322	4
7	951	2041.483293107674	5
7	965	2074.234724884822	1
7	968	2079.913766419625	1
7	970	2082.773976144706	2
7	976	2096.88422023765	2
7	979	2105.46814991594	2
7	982	2110.511587981818	2
7	986	2119.477496689677	1
7	989	2142.114832448286	1
7	992	2150.60704056393	1
7	994	2160.793627864118	2
7	996	2163.317827793029	3
7	1001	2185.53289677777	1
7	1007	2216.055713346613	1
7	1009	2227.451792981942	2
7	1011	2233.378033256464	3
7	1013	2239.341827199759	4
7	1021	2258.076425998331	1
7	1025	2296.506491830768	1
7	1028	2308.528877503233	1
7	1030	2309.764143976854	2
7	1032	2313.294345309596	3
7	1037	2327.862530895238	4
7	1046	2344.671752940697	1
7	1049	2349.978977906862	1
7	1052	2355.029165384409	1
7	1055	2366.281985552846	1
7	1061	2387.576979513526	1
7	1063	2390.451084274226	2
7	1067	2399.15644253749	3
7	1071	2402.913830961558	3
7	1078	2424.26213546139	2
7	1085	2457.905839991901	1
7	1091	2469.699669328347	1
7	1096	2478.578283432714	1
7	1103	2491.497376120721	1
8	173	365.058342191057	1
8	176	388.037052425803	1
8	180	390.927857908176	2
8	190	404.73333087535	1
8	193	419.146910101711	1
8	200	436.823234710174	1
8	203	440.900837049397	1
8	209	466.342603331937	1
8	217	497.116149187221	1
8	220	503.09769978815	1
8	233	541.577288411556	1
8	242	557.379584999622	1
8	250	571.013320665705	1
8	255	581.474923170251	1
8	268	618.964030904645	1
8	271	622.85963881137	1
8	273	624.51956532149	2
8	308	694.407150928009	1
8	316	708.481046712107	1
8	321	715.529536791828	1
8	323	716.879841144914	2
8	332	723.6697040014	2
8	341	734.846307524025	1
8	345	737.31664614593	2
8	348	739.346914019748	2
8	352	743.358100075954	1
8	356	746.078159748484	2
8	366	759.713988500873	1
8	374	777.877727033664	1
8	380	794.561121372008	1
8	382	799.685099640979	2
8	385	804.701437837468	2
8	388	806.963595367265	2
8	408	836.140137449287	1
8	410	841.117217619398	2
8	418	858.339450889291	1
8	421	866.949764860109	1
8	423	870.623974825057	2
8	429	883.238222931355	1
8	437	892.398818790866	2
8	439	896.905318042219	3
8	443	909.552892526914	2
8	450	930.008526162325	1
8	461	951.250248410845	1
8	472	964.447198103986	1
8	490	995.956600520193	1
8	504	1010.030117456946	1
8	518	1031.787232155939	1
8	522	1041.57153689313	1
8	527	1060.559683230173	1
8	533	1092.122097599442	1
8	557	1186.006490948789	1
8	565	1203.356701488495	1
8	569	1205.901663236199	2
8	574	1209.443534644607	2
8	576	1212.660171838827	3
8	594	1236.78984715634	1
8	617	1275.038720804297	1
8	638	1341.831971966471	1
8	649	1356.079627233473	1
8	655	1369.942905406479	1
8	659	1374.84225275845	1
8	671	1418.900678856088	1
8	689	1518.913265032233	1
8	692	1527.272532464144	1
8	695	1534.84794874575	1
8	708	1551.594958035781	1
8	712	1557.582850544547	1
8	722	1568.739307218153	1
8	733	1601.86730711915	1
8	739	1613.347843900331	1
8	747	1622.076911568479	1
8	764	1652.049086036555	1
8	768	1664.665401336451	1
8	777	1680.005761790246	1
8	780	1686.414640465257	1
8	803	1747.885153759755	1
8	818	1779.894755724619	1
8	825	1795.609136824645	1
8	837	1829.264198008331	1
8	839	1830.977423873753	2
8	860	1890.142463571974	1
8	869	1899.267394109141	1
8	880	1933.886473698141	1
8	904	1971.942596377363	1
8	912	1986.420461942477	1
8	922	1996.847244160215	1
8	927	2001.842081440919	1
8	929	2002.393665442616	2
8	944	2029.851865139414	1
8	947	2035.530374205771	1
8	957	2046.826782324502	1
8	959	2048.216878838541	2
8	973	2092.056321117119	1
8	1004	2193.888924218505	1
8	1019	2250.55891489116	1
8	1034	2321.080740139735	1
8	1041	2335.064538159043	1
8	1057	2367.279148164219	1
8	1065	2391.495205482738	1
8	1074	2409.912083040808	1
8	1082	2434.432498188945	1
8	1088	2463.3924778558	1
8	1094	2476.510344138141	1
8	1098	2480.218280446483	2
9	173	365.058342191057	0
9	176	388.037052425803	0
9	181	391.356970764946	0.42911285677
9	190	404.73333087535	0
9	193	419.146910101711	0
9	200	436.823234710174	0
9	203	440.900837049397	0
9	209	466.342603331937	0
9	217	497.116149187221	0
9	220	503.09769978815	0
9	233	541.577288411556	0
9	242	557.379584999622	0
9	250	571.013320665705	0
9	255	581.474923170251	0
9	268	618.964030904645	0
9	271	622.85963881137	0
9	274	625.690861644135	1.171296322645
9	308	694.407150928009	0
9	316	708.481046712107	0
9	321	715.529536791828	0
9	324	717.541453781681	0.661612636767
9	333	724.038916630601	0.369212629201
9	341	734.846307524025	0
9	346	738.039767258322	0.723121112392
9	349	739.807871143865	0.460957124117
9	352	743.358100075954	0
9	357	746.692475328135	0.614315579651
9	366	759.713988500873	0
9	374	777.877727033664	0
9	380	794.561121372008	0
9	383	803.918781376152	4.233681735173
9	386	805.930721396886	1.229283559418
9	389	807.568881469601	0.605286102336
9	408	836.140137449287	0
9	413	848.435580501131	7.318362881733
9	418	858.339450889291	0
9	421	866.949764860109	0
9	426	882.101631330692	11.477656505635
9	429	883.238222931355	0
9	440	903.75053323233	11.351714441464
9	441	904.597464909168	7.692146866949
9	444	910.734981498524	1.18208897161
9	450	930.008526162325	0
9	461	951.250248410845	0
9	472	964.447198103986	0
9	490	995.956600520193	0
9	504	1010.030117456946	0
9	518	1031.787232155939	0
9	522	1041.57153689313	0
9	527	1060.559683230173	0
9	533	1092.122097599442	0
9	557	1186.006490948789	0
9	565	1203.356701488495	0
9	570	1207.845170082676	1.943506846477
9	577	1214.721524485695	5.277989841088
9	580	1217.189567198879	4.529395360052
9	594	1236.78984715634	0
9	617	1275.038720804297	0
9	638	1341.831971966471	0
9	649	1356.079627233473	0
9	655	1369.942905406479	0
9	659	1374.84225275845	0
9	671	1418.900678856088	0
9	689	1518.913265032233	0
9	692	1527.272532464144	0
9	695	1534.84794874575	0
9	708	1551.594958035781	0
9	712	1557.582850544547	0
9	722	1568.739307218153	0
9	733	1601.86730711915	0
9	739	1613.347843900331	0
9	747	1622.076911568479	0
9	764	1652.049086036555	0
9	768	1664.665401336451	0
9	777	1680.005761790246	0
9	780	1686.414640465257	0
9	803	1747.885153759755	0
9	818	1779.894755724619	0
9	825	1795.609136824645	0
9	837	1829.264198008331	0
9	840	1837.126611037354	6.149187163601
9	860	1890.142463571974	0
9	869	1899.267394109141	0
9	880	1933.886473698141	0
9	904	1971.942596377363	0
9	912	1986.420461942477	0
9	922	1996.847244160215	0
9	927	2001.842081440919	0
9	930	2005.089341382229	2.695675939613
9	944	2029.851865139414	0
9	947	2035.530374205771	0
9	957	2046.826782324502	0
9	960	2050.819044697624	2.602165859083
9	973	2092.056321117119	0
9	1004	2193.888924218505	0
9	1019	2250.55891489116	0
9	1034	2321.080740139735	0
9	1041	2335.064538159043	0
9	1057	2367.279148164219	0
9	1065	2391.495205482738	0
9	1074	2409.912083040808	0
9	1082	2434.432498188945	0
9	1088	2463.3924778558	0
9	1094	2476.510344138141	0
9	1099	2480.782682683224	0.564402236741
10	190	404.73333087535	10
10	193	419.146910101711	11
10	217	497.116149187221	12
10	220	503.09769978815	13
10	233	541.577288411556	14
10	250	571.013320665705	15
10	255	581.474923170251	16
10	268	618.964030904645	17
10	271	622.85963881137	18
10	316	708.481046712107	19
10	321	715.529536791828	20
10	341	734.846307524025	21
10	352	743.358100075954	22
10	366	759.713988500873	23
10	374	777.877727033664	24
10	380	794.561121372008	25
10	408	836.140137449287	26
10	418	858.339450889291	27
10	421	866.949764860109	28
10	429	883.238222931355	29
10	450	930.008526162325	30
10	461	951.250248410845	31
10	472	964.447198103986	32
10	490	995.956600520193	33
10	504	1010.030117456946	34
10	518	1031.787232155939	35
10	522	1041.57153689313	36
10	565	1203.356701488495	37
10	594	1236.78984715634	38
10	617	1275.038720804297	39
10	649	1356.079627233473	40
10	655	1369.942905406479	41
10	708	1551.594958035781	42
10	712	1557.582850544547	43
10	722	1568.739307218153	44
10	733	1601.86730711915	45
10	739	1613.347843900331	46
10	747	1622.076911568479	47
10	764	1652.049086036555	48
10	768	1664.665401336451	49
10	777	1680.005761790246	50
10	780	1686.414640465257	51
10	825	1795.609136824645	52
10	837	1829.264198008331	53
10	880	1933.886473698141	54
10	904	1971.942596377363	55
10	912	1986.420461942477	56
10	922	1996.847244160215	57
10	927	2001.842081440919	58
10	944	2029.851865139414	59
10	947	2035.530374205771	60
10	957	2046.826782324502	61
10	973	2092.056321117119	62
10	1034	2321.080740139735	63
10	1041	2335.064538159043	64
10	1057	2367.279148164219	65
10	1065	2391.495205482738	66
10	1074	2409.912083040808	67
11	1105	2500	0.0964
12	1105	2500	0.0508

