version 2
run experiments_medium_game_mode1-795-20230311-09:42:43-12666
attr configname experiments_medium_game_mode1
attr datetime 20230311-09:42:43
attr experiment experiments_medium_game_mode1
attr inifile omnetpp.ini
attr iterationvars "$0=6, $1=6, $2=0"
attr iterationvarsf 6,6,0-
attr measurement "$0=6, $1=6, $2=0"
attr network Network
attr processid 12666
attr repetition 15
attr replication #15
attr resultdir results
attr runnumber 795
attr seedset 15
param *.boss.arrival_mean 20
param *.boss.service_mean 6
param *.minion.arrival_mean 10
param *.minion.service_mean 6
param *.player.recover_rate_x 0
param **.minion.arrival_distribution 0
param **.minion.service_distribution 0
param **.boss.arrival_distribution 0
param **.boss.service_distribution 0

vector 0 Network.player minion_defeated_stat:vector ETV
attr source signal_minion_defeated
vector 1 Network.player minion_jobs_queue_number_stat:vector ETV
attr source signal_minion_jobs_queue_number
vector 2 Network.player minion_response_time_stat:vector ETV
attr source signal_minion_response_time
vector 3 Network.player minion_jobs_number_stat:vector ETV
attr source signal_minion_jobs_number
vector 4 Network.player minion_waiting_time_stat:vector ETV
attr source signal_minion_waiting_time
vector 5 Network.player boss_jobs_number_stat:vector ETV
attr source signal_boss_jobs_number
vector 6 Network.player boss_jobs_queue_number_stat:vector ETV
attr source signal_boss_jobs_queue_number
vector 7 Network.player minion_recovered_stat:vector ETV
attr source signal_minion_recovered
vector 8 Network.player boss_waiting_time_stat:vector ETV
attr source signal_boss_waiting_time
vector 9 Network.player boss_defeated_stat:vector ETV
attr source signal_boss_defeated
vector 10 Network.player boss_response_time_stat:vector ETV
attr source signal_boss_response_time
vector 11 Network.player minion_throughput:vector ETV
attr source signal_minion_throughput
vector 12 Network.player boss_throughput:vector ETV
attr source signal_boss_throughput
0	156	360.280133209197	31
0	159	375.188227981008	32
0	168	381.810273732571	33
0	171	387.621545272701	34
0	172	388.133773483841	35
0	173	390.120392282262	36
0	182	394.452819753298	37
0	188	418.681938692501	38
0	189	424.37429646514	39
0	192	431.612684315202	40
0	197	448.533832292413	41
0	202	457.435548136354	42
0	203	457.679687479773	43
0	208	468.128727307408	44
0	209	471.892981091193	45
0	212	483.802808700822	46
0	213	486.550262225734	47
0	216	492.331609040033	48
0	221	498.806206961179	49
0	222	499.870447426201	50
0	231	548.745187538313	51
0	240	575.359599370468	52
0	248	588.834384724034	53
0	249	589.328779543055	54
0	264	635.169253647277	55
0	269	642.841698800085	56
0	270	644.908848271222	57
0	274	649.900559783665	58
0	275	651.515204314917	59
0	279	661.008669081153	60
0	289	703.674412396808	61
0	290	703.891399039425	62
0	293	709.465285928127	63
0	294	720.687399891164	64
0	331	793.503785262586	65
0	334	797.176857345516	66
0	335	801.491131410015	67
0	338	808.308306188483	68
0	339	808.575045539114	69
0	347	828.238451202386	70
0	353	848.300153734359	71
0	354	850.367683969111	72
0	357	853.931359972969	73
0	358	856.016132749744	74
0	359	856.909611204537	75
0	362	860.240082454428	76
0	367	876.107467363621	77
0	376	902.635001930177	78
0	377	904.849132339927	79
0	378	913.659143072862	80
0	379	921.584593360389	81
0	380	923.336689240215	82
0	383	938.658315794829	83
0	384	947.348800049814	84
0	403	1014.4950321731	85
0	406	1021.989749169948	86
0	407	1024.064559956495	87
0	408	1025.674713239981	88
0	411	1027.514075198037	89
0	416	1047.20465056198	90
0	417	1049.016011306908	91
0	420	1055.889793955864	92
0	426	1075.629173688115	93
0	429	1102.833300228892	94
0	435	1112.411741309142	95
0	489	1213.862336475738	96
0	500	1237.712364267331	97
0	501	1250.474410030533	98
0	505	1259.491283308363	99
0	508	1260.601860795829	100
0	509	1264.585526258488	101
0	510	1269.389572525706	102
0	511	1271.181385734693	103
0	512	1271.817037054423	104
0	513	1280.751557193238	105
0	514	1282.625595987085	106
0	515	1286.178033548752	107
0	516	1293.179583508303	108
0	519	1297.172144606201	109
0	525	1307.198491642096	110
0	540	1315.995302385476	111
0	543	1318.795313766785	112
0	544	1319.826566409693	113
0	553	1343.620736185505	114
0	554	1344.240862081934	115
0	557	1354.782138279521	116
0	558	1355.020385641017	117
0	564	1370.535980165283	118
0	584	1394.017221324954	119
0	585	1404.299312640177	120
0	586	1406.844289626045	121
0	587	1412.086159281602	122
0	588	1414.584822172035	123
0	591	1423.36574951196	124
0	597	1487.166054634514	125
0	600	1502.877222372971	126
0	603	1507.722912341096	127
0	622	1553.123265930411	128
0	626	1564.118853943692	129
0	643	1609.736284461509	130
0	646	1614.839284276399	131
0	671	1658.457701711355	132
0	677	1671.141969536993	133
0	693	1696.680485928356	134
0	694	1698.369587320743	135
0	700	1712.421413378517	136
0	725	1754.187237934522	137
0	729	1758.987496372786	138
0	751	1825.674280454275	139
0	752	1832.133234486743	140
0	753	1833.599747385788	141
0	756	1841.549576116678	142
0	768	1856.88360420603	143
0	790	1904.692483718929	144
0	791	1914.167299738743	145
0	794	1919.838590973706	146
0	797	1923.703703858361	147
0	800	1947.079127447865	148
0	801	1952.154057633358	149
0	807	1966.511536517162	150
0	813	1977.230265090365	151
0	816	1985.181023135288	152
0	828	2006.741459221321	153
0	829	2012.972457334014	154
0	832	2020.600827526	155
0	833	2024.138112508219	156
0	834	2025.504835897509	157
0	835	2027.115743183113	158
0	836	2027.414154221849	159
0	842	2048.57681698219	160
0	852	2053.922350464289	161
0	855	2068.640855267013	162
0	856	2068.749926160595	163
0	857	2068.855126447626	164
0	858	2069.035542570884	165
0	859	2069.108524310134	166
0	863	2079.442853958954	167
0	864	2080.117426344568	168
0	865	2085.721818650836	169
0	866	2088.002160520251	170
0	869	2090.883653855312	171
0	870	2094.137585578195	172
0	873	2102.811894374134	173
0	874	2112.640320574425	174
0	880	2119.863373733999	175
0	881	2122.520532698807	176
0	882	2124.881266634324	177
0	924	2198.713339574635	178
0	927	2205.588289937649	179
0	928	2212.837437605367	180
0	939	2239.943004240142	181
0	940	2245.589201719787	182
0	950	2271.281134616945	183
0	951	2290.755907603359	184
0	952	2294.574388577844	185
0	959	2300.386727453119	186
0	964	2308.208384081001	187
0	965	2309.658427831739	188
0	966	2310.569860570359	189
0	973	2314.709428659148	190
0	996	2360.824385642359	191
0	997	2365.761432199049	192
0	1000	2369.077851451152	193
0	1041	2465.297394850748	194
0	1048	2479.378995497072	195
0	1051	2483.462235867199	196
0	1052	2483.881804746831	197
0	1053	2484.15766250745	198
0	1056	2488.768457688795	199
1	156	360.280133209197	0
1	158	371.826817875947	0
1	159	375.188227981008	0
1	161	375.204235405122	0
1	163	377.298172037204	1
1	165	379.790286642821	2
1	167	380.230609116032	3
1	168	381.810273732571	3
1	170	387.203879098344	3
1	171	387.621545272701	3
1	172	388.133773483841	2
1	173	390.120392282262	1
1	180	391.229347065333	1
1	182	394.452819753298	1
1	184	401.337079352643	1
1	188	418.681938692501	1
1	189	424.37429646514	0
1	191	430.971627895514	0
1	192	431.612684315202	0
1	194	441.068770733571	0
1	196	448.050399855302	1
1	197	448.533832292413	1
1	199	448.888924557964	1
1	201	454.227556541109	2
1	202	457.435548136354	2
1	203	457.679687479773	1
1	205	462.936757577674	1
1	207	464.451762827932	2
1	208	468.128727307408	2
1	209	471.892981091193	1
1	211	482.727133777193	1
1	212	483.802808700822	1
1	213	486.550262225734	0
1	215	489.852602183629	0
1	216	492.331609040033	0
1	218	493.320106480804	0
1	220	493.914777834505	1
1	221	498.806206961179	1
1	222	499.870447426201	0
1	229	538.084897973558	0
1	231	548.745187538313	0
1	239	568.068108626093	0
1	240	575.359599370468	0
1	244	575.990958400427	0
1	246	578.702573058361	1
1	248	588.834384724034	1
1	249	589.328779543055	0
1	251	610.7389707722	0
1	257	624.032723864378	1
1	259	628.437748163353	2
1	263	632.97263080099	3
1	264	635.169253647277	3
1	266	640.254734341694	3
1	268	640.695887759089	4
1	269	642.841698800085	4
1	270	644.908848271222	3
1	274	649.900559783665	2
1	275	651.515204314917	1
1	279	661.008669081153	0
1	284	684.935548120622	0
1	286	687.234352540307	1
1	288	689.519080182014	2
1	289	703.674412396808	2
1	290	703.891399039425	1
1	292	704.200972879936	1
1	293	709.465285928127	1
1	294	720.687399891164	0
1	299	741.520039975603	0
1	304	747.111872888968	1
1	306	747.519356020626	2
1	310	754.49598639057	3
1	312	754.691145169041	4
1	323	776.699738878353	5
1	325	778.856667503739	6
1	328	788.444303878967	7
1	330	788.560835663689	8
1	331	793.503785262586	8
1	333	795.722673952149	8
1	334	797.176857345516	8
1	335	801.491131410015	7
1	337	801.644344775313	7
1	338	808.308306188483	7
1	339	808.575045539114	6
1	343	815.141148630596	6
1	345	825.694875277944	7
1	347	828.238451202386	7
1	351	840.294067758125	7
1	353	848.300153734359	7
1	354	850.367683969111	6
1	356	852.718307106967	6
1	357	853.931359972969	6
1	358	856.016132749744	5
1	359	856.909611204537	4
1	361	858.599080122192	4
1	362	860.240082454428	4
1	364	861.542904145574	4
1	366	868.457770801584	5
1	367	876.107467363621	5
1	371	882.893554056111	5
1	376	902.635001930177	5
1	377	904.849132339927	4
1	378	913.659143072862	3
1	379	921.584593360389	2
1	380	923.336689240215	1
1	382	926.05279973746	1
1	383	938.658315794829	1
1	384	947.348800049814	0
1	388	960.038896334033	0
1	393	979.668927684915	1
1	399	987.320910046105	2
1	403	1014.4950321731	2
1	405	1020.590508529909	2
1	406	1021.989749169948	2
1	407	1024.064559956495	1
1	408	1025.674713239981	0
1	410	1026.226935838068	0
1	411	1027.514075198037	0
1	413	1039.984277950511	0
1	415	1046.913666967642	1
1	416	1047.20465056198	1
1	417	1049.016011306908	0
1	419	1052.038364967622	0
1	420	1055.889793955864	0
1	422	1066.569557467056	0
1	426	1075.629173688115	0
1	428	1100.326045239576	0
1	429	1102.833300228892	0
1	431	1104.2466734304	0
1	435	1112.411741309142	0
1	437	1112.442587626326	0
1	439	1114.2299387861	1
1	443	1118.135647238971	2
1	450	1127.76818682258	3
1	454	1140.20729168527	4
1	461	1150.419259773635	5
1	463	1150.904448295814	6
1	469	1166.309069574946	7
1	471	1170.082336151848	8
1	487	1196.357768476444	9
1	489	1213.862336475738	9
1	493	1215.008798311394	9
1	497	1233.215973103957	10
1	500	1237.712364267331	10
1	501	1250.474410030533	9
1	505	1259.491283308363	8
1	507	1260.276741563288	8
1	508	1260.601860795829	8
1	509	1264.585526258488	7
1	510	1269.389572525706	6
1	511	1271.181385734693	5
1	512	1271.817037054423	4
1	513	1280.751557193238	3
1	514	1282.625595987085	2
1	515	1286.178033548752	1
1	516	1293.179583508303	0
1	518	1293.194243100738	0
1	519	1297.172144606201	0
1	523	1300.896968081943	0
1	525	1307.198491642096	0
1	530	1308.945778575265	0
1	532	1308.979044421299	1
1	534	1309.277159462544	2
1	539	1314.520331515862	3
1	540	1315.995302385476	3
1	542	1316.066788270936	3
1	543	1318.795313766785	3
1	544	1319.826566409693	2
1	546	1320.765333269527	2
1	548	1327.150645960059	3
1	550	1328.031127684426	4
1	552	1339.491585654236	5
1	553	1343.620736185505	5
1	554	1344.240862081934	4
1	556	1352.475114614365	4
1	557	1354.782138279521	4
1	558	1355.020385641017	3
1	562	1364.13363146199	3
1	564	1370.535980165283	3
1	568	1371.158285571832	3
1	575	1384.107141602338	4
1	584	1394.017221324954	4
1	585	1404.299312640177	3
1	586	1406.844289626045	2
1	587	1412.086159281602	1
1	588	1414.584822172035	0
1	590	1418.936885028479	0
1	591	1423.36574951196	0
1	593	1464.418027804221	0
1	597	1487.166054634514	0
1	599	1501.945029561977	0
1	600	1502.877222372971	0
1	602	1506.932012075696	0
1	603	1507.722912341096	0
1	605	1517.880315896348	0
1	612	1525.082716663788	1
1	617	1543.972980506721	2
1	622	1553.123265930411	2
1	626	1564.118853943692	1
1	630	1569.345582476976	1
1	632	1579.443043964117	2
1	634	1584.329791524	3
1	638	1600.799091286596	4
1	641	1606.721743988844	5
1	643	1609.736284461509	5
1	645	1613.949102073124	5
1	646	1614.839284276399	5
1	648	1619.887335542117	5
1	652	1621.238325743434	6
1	656	1624.293827027984	7
1	660	1627.074985573891	8
1	668	1653.501067248497	9
1	670	1656.343140671346	10
1	671	1658.457701711355	10
1	673	1663.600535998356	10
1	677	1671.141969536993	10
1	681	1674.147678786224	10
1	686	1685.057938417324	11
1	688	1686.872387944786	12
1	693	1696.680485928356	12
1	694	1698.369587320743	11
1	698	1704.727388513786	11
1	700	1712.421413378517	11
1	709	1720.817587341622	11
1	711	1720.851821911813	12
1	713	1721.875092015846	13
1	718	1730.623533501388	14
1	720	1740.494285760169	15
1	724	1747.191320148696	16
1	725	1754.187237934522	16
1	729	1758.987496372786	15
1	733	1769.041783171634	15
1	735	1772.238368202655	16
1	737	1783.865888442547	17
1	741	1787.116090628544	18
1	744	1801.548290900282	19
1	749	1817.786885588567	20
1	751	1825.674280454275	20
1	752	1832.133234486743	19
1	753	1833.599747385788	18
1	755	1836.472723805444	18
1	756	1841.549576116678	18
1	758	1842.333637209256	18
1	762	1849.089516210132	19
1	764	1853.02858545257	20
1	766	1853.230025866942	21
1	768	1856.88360420603	21
1	772	1862.920968399841	21
1	783	1890.057369822562	22
1	785	1899.315603681918	23
1	790	1904.692483718929	23
1	791	1914.167299738743	22
1	793	1914.229000570631	22
1	794	1919.838590973706	22
1	796	1921.035654512079	22
1	797	1923.703703858361	22
1	799	1940.076656379331	22
1	800	1947.079127447865	22
1	801	1952.154057633358	21
1	803	1952.507178452678	21
1	807	1966.511536517162	21
1	811	1970.708264125649	21
1	813	1977.230265090365	21
1	815	1979.686709005919	21
1	816	1985.181023135288	21
1	818	1988.849426758076	21
1	820	1995.314312408796	22
1	822	1999.052205509423	23
1	826	2004.408034673664	24
1	828	2006.741459221321	24
1	829	2012.972457334014	23
1	831	2017.972186517163	23
1	832	2020.600827526	23
1	833	2024.138112508219	22
1	834	2025.504835897509	21
1	835	2027.115743183113	20
1	836	2027.414154221849	19
1	840	2032.090965977135	19
1	842	2048.57681698219	19
1	844	2048.900328082947	19
1	846	2049.16753866172	20
1	850	2050.848902930746	21
1	852	2053.922350464289	21
1	854	2055.903255434299	21
1	855	2068.640855267013	21
1	856	2068.749926160595	20
1	857	2068.855126447626	19
1	858	2069.035542570884	18
1	859	2069.108524310134	17
1	863	2079.442853958954	16
1	864	2080.117426344568	15
1	865	2085.721818650836	14
1	866	2088.002160520251	13
1	868	2089.551820567039	13
1	869	2090.883653855312	13
1	870	2094.137585578195	12
1	872	2096.610071908613	12
1	873	2102.811894374134	12
1	874	2112.640320574425	11
1	878	2114.163439664741	11
1	880	2119.863373733999	11
1	881	2122.520532698807	10
1	882	2124.881266634324	9
1	884	2127.71405147405	9
1	886	2130.232032826984	10
1	890	2137.018954725423	11
1	892	2142.337046105647	12
1	897	2160.789530527783	13
1	899	2162.834948109455	14
1	901	2162.884150066935	15
1	903	2168.535605100417	16
1	905	2170.37907985514	17
1	909	2171.509863828659	18
1	914	2180.715420786649	19
1	916	2182.527633875887	20
1	920	2192.935543579677	21
1	924	2198.713339574635	21
1	926	2205.443338955943	21
1	927	2205.588289937649	21
1	928	2212.837437605367	20
1	930	2216.213132329422	20
1	938	2238.31625459085	21
1	939	2239.943004240142	21
1	940	2245.589201719787	20
1	944	2246.193608276171	20
1	946	2256.730833752014	21
1	949	2258.836453060927	22
1	950	2271.281134616945	22
1	951	2290.755907603359	21
1	952	2294.574388577844	20
1	954	2294.968714434799	20
1	956	2296.719792457182	21
1	958	2299.294790536736	22
1	959	2300.386727453119	22
1	961	2301.667201606868	22
1	963	2305.487069274372	23
1	964	2308.208384081001	23
1	965	2309.658427831739	22
1	966	2310.569860570359	21
1	968	2311.782884945681	21
1	970	2314.310374183725	22
1	972	2314.622892967314	23
1	973	2314.709428659148	23
1	977	2320.559193660386	23
1	981	2324.498304216889	24
1	984	2330.581500241578	25
1	988	2335.259599055678	26
1	990	2344.568282050413	27
1	996	2360.824385642359	27
1	997	2365.761432199049	26
1	999	2368.737787171397	26
1	1000	2369.077851451152	26
1	1002	2369.786074804619	26
1	1006	2372.326647240349	27
1	1012	2377.320734082424	28
1	1014	2378.947451240048	29
1	1020	2395.340590741336	30
1	1023	2406.174800840362	31
1	1035	2443.066247245712	32
1	1040	2460.981316128341	33
1	1041	2465.297394850748	33
1	1043	2466.82704072236	33
1	1045	2469.544771188598	34
1	1047	2472.798552947363	35
1	1048	2479.378995497072	35
1	1050	2479.385398736609	35
1	1051	2483.462235867199	35
1	1052	2483.881804746831	34
1	1053	2484.15766250745	33
1	1055	2485.321044617593	33
1	1056	2488.768457688795	33
2	156	360.280133209197	12.909915159125
2	159	375.188227981008	3.361410105061
2	168	381.810273732571	6.606038327449
2	171	387.621545272701	10.323373235497
2	172	388.133773483841	8.34348684102
2	173	390.120392282262	9.88978316623
2	182	394.452819753298	4.260734483678
2	188	418.681938692501	17.344859339858
2	189	424.37429646514	16.934764243231
2	192	431.612684315202	0.641056419688
2	197	448.533832292413	7.465061558842
2	202	457.435548136354	9.385148281052
2	203	457.679687479773	8.790762921809
2	208	468.128727307408	13.901170766299
2	209	471.892981091193	8.956223513519
2	212	483.802808700822	19.35104587289
2	213	486.550262225734	3.823128448541
2	216	492.331609040033	2.479006856404
2	221	498.806206961179	5.486100480375
2	222	499.870447426201	5.955669591696
2	231	548.745187538313	10.660289564755
2	240	575.359599370468	7.291490744375
2	248	588.834384724034	12.843426323607
2	249	589.328779543055	10.626206484694
2	264	635.169253647277	22.327153469769
2	269	642.841698800085	18.808974935707
2	270	644.908848271222	16.471100107869
2	274	649.900559783665	9.645825441971
2	275	651.515204314917	10.819316555828
2	279	661.008669081153	9.379876730497
2	289	703.674412396808	18.738864276186
2	290	703.891399039425	16.657046499118
2	293	709.465285928127	19.946205746113
2	294	720.687399891164	16.486427011228
2	331	793.503785262586	46.391912373618
2	334	797.176857345516	49.65750132489
2	335	801.491131410015	49.686729322789
2	338	808.308306188483	53.812319797913
2	339	808.575045539114	53.883900370073
2	347	828.238451202386	49.381783698647
2	353	848.300153734359	59.73931807067
2	354	850.367683969111	54.645010016962
2	357	853.931359972969	52.287015197656
2	358	856.016132749744	46.017169460104
2	359	856.909611204537	41.768462573941
2	362	860.240082454428	34.545207176484
2	367	876.107467363621	39.994740099591
2	376	902.635001930177	49.91669482321
2	377	904.849132339927	46.250052217735
2	378	913.659143072862	52.116238927288
2	379	921.584593360389	53.126822558805
2	380	923.336689240215	43.235651516439
2	383	938.658315794829	55.764761738718
2	384	947.348800049814	21.296000312354
2	403	1014.4950321731	54.456135839067
2	406	1021.989749169948	42.320821485033
2	407	1024.064559956495	36.74364991039
2	408	1025.674713239981	5.084204710072
2	411	1027.514075198037	1.287139359969
2	416	1047.20465056198	7.220372611469
2	417	1049.016011306908	2.102344339266
2	420	1055.889793955864	3.851428988242
2	426	1075.629173688115	3.931645495986
2	429	1102.833300228892	2.507254989316
2	435	1112.411741309142	4.947666975697
2	489	1213.862336475738	73.655044790468
2	500	1237.712364267331	87.293104493696
2	501	1250.474410030533	99.569961734719
2	505	1259.491283308363	93.182213733417
2	508	1260.601860795829	90.519524643981
2	509	1264.585526258488	90.514419360216
2	510	1269.389572525706	86.653393857877
2	511	1271.181385734693	74.823617258249
2	512	1271.817037054423	57.572722263795
2	513	1280.751557193238	65.742758881844
2	514	1282.625595987085	49.409622883128
2	515	1286.178033548752	35.70132425629
2	516	1293.179583508303	32.902841945015
2	519	1297.172144606201	3.977901505463
2	525	1307.198491642096	6.301523560153
2	540	1315.995302385476	7.016257964177
2	543	1318.795313766785	9.518154304241
2	544	1319.826566409693	9.538193404943
2	553	1343.620736185505	29.100404669643
2	554	1344.240862081934	28.174073810998
2	557	1354.782138279521	34.016805009994
2	558	1355.020385641017	27.869739680958
2	564	1370.535980165283	31.044394511047
2	584	1394.017221324954	29.883589862964
2	585	1404.299312640177	33.308972725284
2	586	1406.844289626045	35.686004054213
2	587	1412.086159281602	33.926451934079
2	588	1414.584822172035	30.477680569697
2	591	1423.36574951196	4.428864483481
2	597	1487.166054634514	21.972771463638
2	600	1502.877222372971	0.932192810994
2	603	1507.722912341096	0.7909002654
2	622	1553.123265930411	11.694370376096
2	626	1564.118853943692	13.380743202968
2	643	1609.736284461509	41.404732868581
2	646	1614.839284276399	45.493701799423
2	671	1658.457701711355	74.127910187355
2	677	1671.141969536993	64.420225548149
2	693	1696.680485928356	75.442160184922
2	694	1698.369587320743	74.075760292759
2	700	1712.421413378517	58.92034613002
2	725	1754.187237934522	90.586701936166
2	729	1758.987496372786	87.605841119076
2	751	1825.674280454275	150.40717339272
2	752	1832.133234486743	147.07529606942
2	753	1833.599747385788	146.727359441
2	756	1841.549576116678	151.70160474131
2	768	1856.88360420603	152.15621569224
2	790	1904.692483718929	182.81739170308
2	791	1914.167299738743	183.54376623735
2	794	1919.838590973706	179.34430521354
2	797	1923.703703858361	176.51238370966
2	800	1947.079127447865	191.67328365107
2	801	1952.154057633358	189.69292993112
2	807	1966.511536517162	194.27316831451
2	813	1977.230265090365	190.11417446182
2	816	1985.181023135288	183.63273223501
2	828	2006.741459221321	170.26873541588
2	829	2012.972457334014	170.63882012476
2	832	2020.600827526	173.20967474459
2	833	2024.138112508219	175.04859629809
2	834	2025.504835897509	172.47625044494
2	835	2027.115743183113	173.88571731617
2	836	2027.414154221849	170.18910535542
2	842	2048.57681698219	182.30498618417
2	852	2053.922350464289	163.86498064173
2	855	2068.640855267013	169.3252515851
2	856	2068.749926160595	154.52092558996
2	857	2068.855126447626	147.81947193555
2	858	2069.035542570884	128.95888619155
2	859	2069.108524310134	116.60134585746
2	863	2079.442853958954	109.60835116566
2	864	2080.117426344568	109.40916221892
2	865	2085.721818650836	106.03510964492
2	866	2088.002160520251	99.152733762175
2	869	2090.883653855312	95.569341446516
2	870	2094.137585578195	95.085380068772
2	873	2102.811894374134	103.23271821115
2	874	2112.640320574425	108.23228590076
2	880	2119.863373733999	88.332798080616
2	881	2122.520532698807	90.429566721672
2	882	2124.881266634324	75.980938551377
2	924	2198.713339574635	147.86443664389
2	927	2205.588289937649	149.68503450335
2	928	2212.837437605367	143.68853353459
2	939	2239.943004240142	143.33293233153
2	940	2245.589201719787	132.72205222112
2	950	2271.281134616945	143.5670831429
2	951	2290.755907603359	160.52387477638
2	952	2294.574388577844	160.1335966687
2	959	2300.386727453119	163.3677727277
2	964	2308.208384081001	165.87133797535
2	965	2309.658427831739	152.44562561035
2	966	2310.569860570359	149.78033004258
2	973	2314.709428659148	151.87448054969
2	996	2360.824385642359	192.28878054194
2	997	2365.761432199049	195.38235234391
2	1000	2369.077851451152	197.56798762249
2	1041	2465.297394850748	282.76976097486
2	1048	2479.378995497072	286.4434519174
2	1051	2483.462235867199	278.01889691126
2	1052	2483.881804746831	267.66867241741
2	1053	2484.15766250745	264.62213127383
2	1056	2488.768457688795	250.45220309794
3	158	371.826817875947	1
3	161	375.204235405122	1
3	163	377.298172037204	2
3	165	379.790286642821	3
3	167	380.230609116032	4
3	170	387.203879098344	4
3	180	391.229347065333	2
3	184	401.337079352643	2
3	191	430.971627895514	1
3	194	441.068770733571	1
3	196	448.050399855302	2
3	199	448.888924557964	2
3	201	454.227556541109	3
3	205	462.936757577674	2
3	207	464.451762827932	3
3	211	482.727133777193	2
3	215	489.852602183629	1
3	218	493.320106480804	1
3	220	493.914777834505	2
3	229	538.084897973558	1
3	239	568.068108626093	1
3	244	575.990958400427	1
3	246	578.702573058361	2
3	251	610.7389707722	1
3	257	624.032723864378	2
3	259	628.437748163353	3
3	263	632.97263080099	4
3	266	640.254734341694	4
3	268	640.695887759089	5
3	284	684.935548120622	1
3	286	687.234352540307	2
3	288	689.519080182014	3
3	292	704.200972879936	2
3	299	741.520039975603	1
3	304	747.111872888968	2
3	306	747.519356020626	3
3	310	754.49598639057	4
3	312	754.691145169041	5
3	323	776.699738878353	6
3	325	778.856667503739	7
3	328	788.444303878967	8
3	330	788.560835663689	9
3	333	795.722673952149	9
3	337	801.644344775313	8
3	343	815.141148630596	7
3	345	825.694875277944	8
3	351	840.294067758125	8
3	356	852.718307106967	7
3	361	858.599080122192	5
3	364	861.542904145574	5
3	366	868.457770801584	6
3	371	882.893554056111	6
3	382	926.05279973746	2
3	388	960.038896334033	1
3	393	979.668927684915	2
3	399	987.320910046105	3
3	405	1020.590508529909	3
3	410	1026.226935838068	1
3	413	1039.984277950511	1
3	415	1046.913666967642	2
3	419	1052.038364967622	1
3	422	1066.569557467056	1
3	428	1100.326045239576	1
3	431	1104.2466734304	1
3	437	1112.442587626326	1
3	439	1114.2299387861	2
3	443	1118.135647238971	3
3	450	1127.76818682258	4
3	454	1140.20729168527	5
3	461	1150.419259773635	6
3	463	1150.904448295814	7
3	469	1166.309069574946	8
3	471	1170.082336151848	9
3	487	1196.357768476444	10
3	493	1215.008798311394	10
3	497	1233.215973103957	11
3	507	1260.276741563288	9
3	518	1293.194243100738	1
3	523	1300.896968081943	1
3	530	1308.945778575265	1
3	532	1308.979044421299	2
3	534	1309.277159462544	3
3	539	1314.520331515862	4
3	542	1316.066788270936	4
3	546	1320.765333269527	3
3	548	1327.150645960059	4
3	550	1328.031127684426	5
3	552	1339.491585654236	6
3	556	1352.475114614365	5
3	562	1364.13363146199	4
3	568	1371.158285571832	4
3	575	1384.107141602338	5
3	590	1418.936885028479	1
3	593	1464.418027804221	1
3	599	1501.945029561977	1
3	602	1506.932012075696	1
3	605	1517.880315896348	1
3	612	1525.082716663788	2
3	617	1543.972980506721	3
3	630	1569.345582476976	2
3	632	1579.443043964117	3
3	634	1584.329791524	4
3	638	1600.799091286596	5
3	641	1606.721743988844	6
3	645	1613.949102073124	6
3	648	1619.887335542117	6
3	652	1621.238325743434	7
3	656	1624.293827027984	8
3	660	1627.074985573891	9
3	668	1653.501067248497	10
3	670	1656.343140671346	11
3	673	1663.600535998356	11
3	681	1674.147678786224	11
3	686	1685.057938417324	12
3	688	1686.872387944786	13
3	698	1704.727388513786	12
3	709	1720.817587341622	12
3	711	1720.851821911813	13
3	713	1721.875092015846	14
3	718	1730.623533501388	15
3	720	1740.494285760169	16
3	724	1747.191320148696	17
3	733	1769.041783171634	16
3	735	1772.238368202655	17
3	737	1783.865888442547	18
3	741	1787.116090628544	19
3	744	1801.548290900282	20
3	749	1817.786885588567	21
3	755	1836.472723805444	19
3	758	1842.333637209256	19
3	762	1849.089516210132	20
3	764	1853.02858545257	21
3	766	1853.230025866942	22
3	772	1862.920968399841	22
3	783	1890.057369822562	23
3	785	1899.315603681918	24
3	793	1914.229000570631	23
3	796	1921.035654512079	23
3	799	1940.076656379331	23
3	803	1952.507178452678	22
3	811	1970.708264125649	22
3	815	1979.686709005919	22
3	818	1988.849426758076	22
3	820	1995.314312408796	23
3	822	1999.052205509423	24
3	826	2004.408034673664	25
3	831	2017.972186517163	24
3	840	2032.090965977135	20
3	844	2048.900328082947	20
3	846	2049.16753866172	21
3	850	2050.848902930746	22
3	854	2055.903255434299	22
3	868	2089.551820567039	14
3	872	2096.610071908613	13
3	878	2114.163439664741	12
3	884	2127.71405147405	10
3	886	2130.232032826984	11
3	890	2137.018954725423	12
3	892	2142.337046105647	13
3	897	2160.789530527783	14
3	899	2162.834948109455	15
3	901	2162.884150066935	16
3	903	2168.535605100417	17
3	905	2170.37907985514	18
3	909	2171.509863828659	19
3	914	2180.715420786649	20
3	916	2182.527633875887	21
3	920	2192.935543579677	22
3	926	2205.443338955943	22
3	930	2216.213132329422	21
3	938	2238.31625459085	22
3	944	2246.193608276171	21
3	946	2256.730833752014	22
3	949	2258.836453060927	23
3	954	2294.968714434799	21
3	956	2296.719792457182	22
3	958	2299.294790536736	23
3	961	2301.667201606868	23
3	963	2305.487069274372	24
3	968	2311.782884945681	22
3	970	2314.310374183725	23
3	972	2314.622892967314	24
3	977	2320.559193660386	24
3	981	2324.498304216889	25
3	984	2330.581500241578	26
3	988	2335.259599055678	27
3	990	2344.568282050413	28
3	999	2368.737787171397	27
3	1002	2369.786074804619	27
3	1006	2372.326647240349	28
3	1012	2377.320734082424	29
3	1014	2378.947451240048	30
3	1020	2395.340590741336	31
3	1023	2406.174800840362	32
3	1035	2443.066247245712	33
3	1040	2460.981316128341	34
3	1043	2466.82704072236	34
3	1045	2469.544771188598	35
3	1047	2472.798552947363	36
3	1050	2479.385398736609	36
3	1055	2485.321044617593	34
4	158	371.826817875947	0
4	161	375.204235405122	0
4	168	381.810273732571	4.512101695367
4	171	387.621545272701	7.83125862988
4	172	388.133773483841	7.903164367809
4	173	390.120392282262	2.916513183918
4	181	394.35520578298	4.16312051336
4	182	394.452819753298	3.223472687965
4	187	411.043427538523	9.70634818588
4	188	418.681938692501	11.242406470592
4	191	430.971627895514	0
4	194	441.068770733571	0
4	197	448.533832292413	0.483432437111
4	202	457.435548136354	8.54662357839
4	203	457.679687479773	3.452130938664
4	208	468.128727307408	5.191969729734
4	209	471.892981091193	7.441218263261
4	212	483.802808700822	1.075674923629
4	215	489.852602183629	0
4	218	493.320106480804	0
4	221	498.806206961179	4.891429126674
4	230	541.006114816715	2.921216843157
4	239	568.068108626093	0
4	247	587.555319416563	11.564361016136
4	248	588.834384724034	10.131811665673
4	251	610.7389707722	0
4	261	632.764941734274	19.922841556766
4	264	635.169253647277	11.136529782899
4	269	642.841698800085	14.403950636732
4	270	644.908848271222	11.936217470232
4	273	648.999171198888	8.744436857194
4	274	649.900559783665	9.204672024576
4	275	651.515204314917	4.444011803341
4	278	656.684803305565	5.056010954909
4	284	684.935548120622	0
4	289	703.674412396808	16.440059856501
4	290	703.891399039425	14.372318857411
4	293	709.465285928127	5.264313048191
4	299	741.520039975603	0
4	302	746.852324031514	0.132120648095
4	326	788.309522990625	41.197650101657
4	331	793.503785262586	45.98442924196
4	334	797.176857345516	45.37245525829
4	335	801.491131410015	46.995145019445
4	338	808.308306188483	53.617161019442
4	339	808.575045539114	31.875306660761
4	346	827.426538743923	48.569871240184
4	347	828.238451202386	39.794147323419
4	352	845.856229434709	57.29539377102
4	353	848.300153734359	52.57747978221
4	354	850.367683969111	48.723339193798
4	357	853.931359972969	43.932396683329
4	358	856.016132749744	40.874984119148
4	359	856.909611204537	31.214735926593
4	362	860.240082454428	24.127355190398
4	367	876.107467363621	35.813399605496
4	375	897.857730614213	45.139423507246
4	376	902.635001930177	44.035921807985
4	377	904.849132339927	43.306228194353
4	378	913.659143072862	45.201372271278
4	379	921.584593360389	41.483555636613
4	380	923.336689240215	40.443135184104
4	383	938.658315794829	12.605516057369
4	402	1006.184694025637	46.145797691604
4	403	1014.4950321731	34.826104488185
4	406	1021.989749169948	34.668839123843
4	407	1024.064559956495	3.474051426586
4	410	1026.226935838068	0
4	413	1039.984277950511	0
4	416	1047.20465056198	0.290983594338
4	419	1052.038364967622	0
4	422	1066.569557467056	0
4	425	1072.987550488083	1.290022295954
4	428	1100.326045239576	0
4	431	1104.2466734304	0
4	434	1111.993350001042	4.529275667597
4	437	1112.442587626326	0
4	457	1148.425566172701	34.195627386601
4	464	1163.721386491867	45.937536963577
4	467	1165.914365179955	47.778717940984
4	477	1181.369462811939	53.601275989359
4	488	1212.44140529947	72.2341136142
4	489	1213.862336475738	65.328417834001
4	499	1237.649969289996	87.230709516361
4	500	1237.712364267331	86.807915971517
4	501	1250.474410030533	86.110461186484
4	504	1250.712113799248	84.403044224302
4	505	1259.491283308363	89.408947156515
4	508	1260.601860795829	86.530753897557
4	509	1264.585526258488	81.849347590659
4	510	1269.389572525706	73.031804049262
4	511	1271.181385734693	56.937070944065
4	512	1271.817037054423	56.808238743029
4	513	1280.751557193238	47.535584089281
4	514	1282.625595987085	32.148886694623
4	515	1286.178033548752	25.901291985464
4	518	1293.194243100738	0
4	524	1300.917288993982	0.020320912039
4	530	1308.945778575265	0
4	537	1314.341359052208	5.362314630909
4	540	1315.995302385476	6.718142922932
4	543	1318.795313766785	8.506940762035
4	544	1319.826566409693	5.306234893831
4	553	1343.620736185505	27.553947914569
4	554	1344.240862081934	23.475528812407
4	557	1354.782138279521	27.631492319462
4	558	1355.020385641017	26.989257956591
4	563	1369.290683559504	29.799097905268
4	564	1370.535980165283	18.060865550918
4	569	1373.093090701815	13.296541698574
4	583	1393.122965856983	28.989334394993
4	584	1394.017221324954	23.026881410061
4	585	1404.299312640177	33.141027068345
4	586	1406.844289626045	28.684582278522
4	587	1412.086159281602	27.979017679264
4	590	1418.936885028479	0
4	593	1464.418027804221	0
4	596	1467.223530925524	2.030247754648
4	599	1501.945029561977	0
4	602	1506.932012075696	0
4	605	1517.880315896348	0
4	608	1519.662576643827	1.614042831378
4	613	1531.633012615993	9.517711696879
4	618	1548.644647899468	23.56193123568
4	621	1551.369765938292	9.940870383977
4	622	1553.123265930411	9.15028542369
4	625	1559.613412473393	8.875301732669
4	626	1564.118853943692	7.061395401517
4	642	1607.077462891425	38.745911298497
4	643	1609.736284461509	40.390701984533
4	646	1614.839284276399	35.396240312282
4	666	1650.633856720198	66.304065196198
4	671	1658.457701711355	57.658610424759
4	676	1667.614419407094	60.89267541825
4	677	1671.141969536993	57.192867463869
4	682	1674.463256640658	54.575921098541
4	689	1687.020364316142	67.125625966883
4	692	1691.669760819434	70.431435076
4	693	1696.680485928356	72.386658900372
4	694	1698.369587320743	71.294601746852
4	699	1711.612877440475	58.111810191978
4	700	1712.421413378517	56.078272707171
4	722	1743.52987130887	79.929335310514
4	725	1754.187237934522	89.6967595048
4	728	1756.604455973137	85.222800719427
4	729	1758.987496372786	84.839817586562
4	750	1822.574580905674	147.30747384412
4	751	1825.674280454275	140.61634203695
4	752	1832.133234486743	145.26084654196
4	753	1833.599747385788	143.75177601042
4	756	1841.549576116678	138.80266259714
4	767	1854.365535352394	149.63814683861
4	768	1856.88360420603	144.38600169127
4	773	1863.98805888255	143.17047154093
4	776	1871.17202187043	150.32019995862
4	789	1904.413376353492	182.53828433765
4	790	1904.692483718929	174.06895021754
4	791	1914.167299738743	173.67301397857
4	794	1919.838590973706	172.64727082501
4	797	1923.703703858361	168.29786006157
4	800	1947.079127447865	184.61799974563
4	801	1952.154057633358	183.11227446172
4	806	1963.093320125683	190.85495192303
4	807	1966.511536517162	182.64564807461
4	812	1976.461124564683	189.34503393614
4	813	1977.230265090365	175.68197419008
4	816	1985.181023135288	167.39413754672
4	827	2005.147569735513	168.67484593007
4	828	2006.741459221321	164.40782201206
4	829	2012.972457334014	165.5813045526
4	832	2020.600827526	171.51131131587
4	833	2024.138112508219	171.10952705565
4	834	2025.504835897509	172.27481003057
4	835	2027.115743183113	169.89069431668
4	836	2027.414154221849	164.49318582201
4	841	2037.68646035316	171.41462955514
4	842	2048.57681698219	169.9987494898
4	851	2052.520504575329	162.46313475277
4	852	2053.922350464289	154.60674678237
4	855	2068.640855267013	154.41185469638
4	856	2068.749926160595	147.71427164852
4	857	2068.855126447626	128.7784700683
4	858	2069.035542570884	116.52836411821
4	859	2069.108524310134	112.68312443984
4	862	2072.878096383722	103.04359359043
4	863	2079.442853958954	108.7345898333
4	864	2080.117426344568	100.43071733865
4	865	2085.721818650836	96.87239189276
4	866	2088.002160520251	92.687848111455
4	869	2090.883653855312	91.831448345889
4	870	2094.137585578195	94.558409415215
4	873	2102.811894374134	98.40385970047
4	874	2112.640320574425	94.668134057262
4	879	2117.498958754918	85.968383101535
4	880	2119.863373733999	87.772407756864
4	881	2122.520532698807	73.62020461586
4	882	2124.881266634324	75.713727972604
4	893	2156.540579969277	107.13724210799
4	923	2196.828052912029	145.97914998128
4	924	2198.713339574635	142.81008414034
4	927	2205.588289937649	136.43938586688
4	928	2212.837437605367	123.28561703833
4	936	2234.204777808823	137.59470590021
4	939	2239.943004240142	127.07585474147
4	940	2245.589201719787	131.42576205505
4	947	2256.926063634449	129.2120121604
4	950	2271.281134616945	141.04910178996
4	951	2290.755907603359	156.31511569422
4	952	2294.574388577844	157.55543385242
4	959	2300.386727453119	158.04968134747
4	964	2308.208384081001	150.99558185962
4	965	2309.658427831739	148.86889730396
4	966	2310.569860570359	147.7349124609
4	973	2314.709428659148	151.82527859221
4	995	2358.384253325997	189.84864822558
4	996	2360.824385642359	190.44530578722
4	997	2365.761432199049	194.25156837039
4	1000	2369.077851451152	188.3624306645
4	1038	2460.11516755488	277.58753367899
4	1041	2465.297394850748	272.36185127107
4	1048	2479.378995497072	273.93565654113
4	1051	2483.462235867199	267.24910353778
4	1052	2483.881804746831	264.34627351321
4	1053	2484.15766250745	245.8414079166
4	1056	2488.768457688795	243.10953777857
5	175	390.19208526962	1
5	177	390.552455599804	2
5	186	407.439532221909	1
5	224	518.507968548388	1
5	226	522.173620324886	2
5	233	548.748816733117	1
5	235	550.067618500052	2
5	242	575.666162275779	1
5	253	612.842100177508	1
5	255	623.411592726827	2
5	272	647.071192511576	1
5	277	651.628792350656	1
5	281	665.26574855193	1
5	296	730.723164477223	1
5	301	746.720203383419	1
5	308	751.804402087226	1
5	314	761.533052013322	2
5	316	762.512293667094	3
5	319	766.941994342124	3
5	341	809.99896328964	1
5	349	836.11272726403	1
5	369	880.101037723776	1
5	373	893.1674807599	2
5	386	958.986682587974	1
5	390	961.113788177775	2
5	395	980.006287846102	2
5	397	986.58770618071	3
5	424	1071.697528192129	1
5	433	1107.464074333445	1
5	441	1117.78384952829	1
5	445	1121.017381211308	2
5	447	1124.43115273652	3
5	452	1130.82600363503	3
5	459	1148.533918641737	1
5	466	1164.363948844049	1
5	473	1174.071106898272	1
5	475	1175.776090639092	2
5	479	1182.736178667829	1
5	481	1185.782939051587	2
5	483	1186.137599269998	3
5	491	1214.244314790628	1
5	495	1226.823743164412	2
5	503	1250.476709292462	1
5	521	1298.650389291879	1
5	527	1308.125086076041	1
5	536	1310.28837300475	1
5	560	1359.796549003241	1
5	566	1370.990339914893	1
5	571	1378.159707347523	1
5	573	1380.964876480297	2
5	578	1386.732170890961	2
5	580	1389.108069391996	3
5	595	1465.193283170876	1
5	607	1518.048533812449	1
5	610	1522.115300919114	1
5	615	1541.428895554315	1
5	620	1550.738110740724	1
5	624	1557.057458542175	1
5	628	1568.331551592928	1
5	636	1594.882472076587	2
5	650	1619.894738349259	1
5	654	1624.084042264992	2
5	658	1626.210616034251	3
5	663	1632.846757884736	3
5	675	1664.490478429722	1
5	679	1671.38165525371	1
5	684	1675.267107061551	1
5	691	1689.847971375368	1
5	696	1702.746913519538	1
5	702	1712.497602514756	1
5	704	1714.363548584924	2
5	707	1719.6409964056	2
5	715	1722.58306476235	3
5	727	1755.40584379679	1
5	731	1762.461127702236	1
5	739	1787.059466435055	2
5	746	1809.486314153089	2
5	760	1847.391152781413	1
5	770	1857.225048866429	1
5	775	1866.271830798015	1
5	778	1878.578067492393	1
5	780	1886.757159903634	2
5	787	1903.265596083928	2
5	805	1956.425399870298	1
5	809	1969.834502793289	1
5	824	1999.57917616298	1
5	838	2031.530575653383	1
5	848	2049.403337861292	1
5	861	2069.148904070772	1
5	876	2112.867149498668	1
5	888	2134.440791909142	1
5	895	2157.212802221385	1
5	907	2171.380613717592	2
5	911	2171.740503012916	3
5	918	2187.341514577323	3
5	932	2219.535531233618	1
5	934	2223.8424989331	2
5	942	2245.658919910221	1
5	975	2315.1814443388	1
5	979	2322.283976249027	2
5	986	2331.248097080117	2
5	992	2346.228359067299	3
5	1004	2370.716186367381	1
5	1008	2375.068077861533	2
5	1010	2375.806323096909	3
5	1016	2379.965256529779	4
5	1018	2385.250852286311	5
5	1025	2413.808996696861	5
5	1029	2423.704403934987	4
5	1033	2439.323409864084	3
6	175	390.19208526962	0
6	177	390.552455599804	1
6	178	390.74775310521	1
6	181	394.35520578298	0
6	186	407.439532221909	0
6	187	411.043427538523	0
6	224	518.507968548388	0
6	226	522.173620324886	1
6	227	527.414971898013	1
6	230	541.006114816715	0
6	233	548.748816733117	0
6	235	550.067618500052	1
6	236	555.625203739248	1
6	237	560.185990759506	0
6	242	575.666162275779	0
6	247	587.555319416563	0
6	253	612.842100177508	0
6	255	623.411592726827	1
6	260	629.135827014474	1
6	261	632.764941734274	0
6	272	647.071192511576	0
6	273	648.999171198888	0
6	277	651.628792350656	0
6	278	656.684803305565	0
6	281	665.26574855193	0
6	282	677.442981146185	0
6	296	730.723164477223	0
6	297	730.75488105279	0
6	301	746.720203383419	0
6	302	746.852324031514	0
6	308	751.804402087226	0
6	314	761.533052013322	1
6	316	762.512293667094	2
6	317	764.258257155534	2
6	319	766.941994342124	2
6	320	771.52494660778	2
6	321	776.699731103158	1
6	326	788.309522990625	0
6	341	809.99896328964	0
6	346	827.426538743923	0
6	349	836.11272726403	0
6	352	845.856229434709	0
6	369	880.101037723776	0
6	373	893.1674807599	1
6	374	893.442953397021	1
6	375	897.857730614213	0
6	386	958.986682587974	0
6	390	961.113788177775	1
6	391	965.858634750548	1
6	395	980.006287846102	1
6	397	986.58770618071	2
6	400	992.793821373212	2
6	401	1006.056642650163	1
6	402	1006.184694025637	0
6	424	1071.697528192129	0
6	425	1072.987550488083	0
6	433	1107.464074333445	0
6	434	1111.993350001042	0
6	441	1117.78384952829	0
6	445	1121.017381211308	1
6	447	1124.43115273652	2
6	448	1127.517756858736	2
6	452	1130.82600363503	2
6	455	1145.896233688521	2
6	456	1146.038366705201	1
6	457	1148.425566172701	0
6	459	1148.533918641737	0
6	464	1163.721386491867	0
6	466	1164.363948844049	0
6	467	1165.914365179955	0
6	473	1174.071106898272	0
6	475	1175.776090639092	1
6	476	1180.706820569014	1
6	477	1181.369462811939	0
6	479	1182.736178667829	0
6	481	1185.782939051587	1
6	483	1186.137599269998	2
6	484	1190.868414388966	2
6	485	1192.17285964935	1
6	488	1212.44140529947	0
6	491	1214.244314790628	0
6	495	1226.823743164412	1
6	498	1234.586745279553	1
6	499	1237.649969289996	0
6	503	1250.476709292462	0
6	504	1250.712113799248	0
6	521	1298.650389291879	0
6	524	1300.917288993982	0
6	527	1308.125086076041	0
6	528	1308.279891217107	0
6	536	1310.28837300475	0
6	537	1314.341359052208	0
6	560	1359.796549003241	0
6	563	1369.290683559504	0
6	566	1370.990339914893	0
6	569	1373.093090701815	0
6	571	1378.159707347523	0
6	573	1380.964876480297	1
6	576	1385.200134439983	1
6	578	1386.732170890961	1
6	580	1389.108069391996	2
6	581	1389.8780788174	2
6	582	1391.041832237084	1
6	583	1393.122965856983	0
6	595	1465.193283170876	0
6	596	1467.223530925524	0
6	607	1518.048533812449	0
6	608	1519.662576643827	0
6	610	1522.115300919114	0
6	613	1531.633012615993	0
6	615	1541.428895554315	0
6	618	1548.644647899468	0
6	620	1550.738110740724	0
6	621	1551.369765938292	0
6	624	1557.057458542175	0
6	625	1559.613412473393	0
6	628	1568.331551592928	0
6	636	1594.882472076587	1
6	639	1603.392955246971	1
6	642	1607.077462891425	0
6	650	1619.894738349259	0
6	654	1624.084042264992	1
6	658	1626.210616034251	2
6	661	1630.718932795691	2
6	663	1632.846757884736	2
6	664	1636.252919877915	2
6	665	1649.933074920455	1
6	666	1650.633856720198	0
6	675	1664.490478429722	0
6	676	1667.614419407094	0
6	679	1671.38165525371	0
6	682	1674.463256640658	0
6	684	1675.267107061551	0
6	689	1687.020364316142	0
6	691	1689.847971375368	0
6	692	1691.669760819434	0
6	696	1702.746913519538	0
6	699	1711.612877440475	0
6	702	1712.497602514756	0
6	704	1714.363548584924	1
6	705	1717.974644331199	1
6	707	1719.6409964056	1
6	715	1722.58306476235	2
6	716	1727.366692943442	2
6	721	1741.824451924865	1
6	722	1743.52987130887	0
6	727	1755.40584379679	0
6	728	1756.604455973137	0
6	731	1762.461127702236	0
6	739	1787.059466435055	1
6	742	1789.674345253138	1
6	746	1809.486314153089	1
6	747	1815.483787409838	1
6	750	1822.574580905674	0
6	760	1847.391152781413	0
6	767	1854.365535352394	0
6	770	1857.225048866429	0
6	773	1863.98805888255	0
6	775	1866.271830798015	0
6	776	1871.17202187043	0
6	778	1878.578067492393	0
6	780	1886.757159903634	1
6	781	1887.136704310296	1
6	787	1903.265596083928	1
6	788	1904.20258636382	1
6	789	1904.413376353492	0
6	805	1956.425399870298	0
6	806	1963.093320125683	0
6	809	1969.834502793289	0
6	812	1976.461124564683	0
6	824	1999.57917616298	0
6	827	2005.147569735513	0
6	838	2031.530575653383	0
6	841	2037.68646035316	0
6	848	2049.403337861292	0
6	851	2052.520504575329	0
6	861	2069.148904070772	0
6	862	2072.878096383722	0
6	876	2112.867149498668	0
6	879	2117.498958754918	0
6	888	2134.440791909142	0
6	893	2156.540579969277	0
6	895	2157.212802221385	0
6	907	2171.380613717592	1
6	911	2171.740503012916	2
6	912	2177.822312037289	2
6	918	2187.341514577323	2
6	921	2194.673125463354	2
6	922	2195.010836200288	1
6	923	2196.828052912029	0
6	932	2219.535531233618	0
6	934	2223.8424989331	1
6	935	2234.148046743741	1
6	936	2234.204777808823	0
6	942	2245.658919910221	0
6	947	2256.926063634449	0
6	975	2315.1814443388	0
6	979	2322.283976249027	1
6	982	2328.214770251972	1
6	986	2331.248097080117	1
6	992	2346.228359067299	2
6	993	2346.560519750132	2
6	994	2358.368754377907	1
6	995	2358.384253325997	0
6	1004	2370.716186367381	0
6	1008	2375.068077861533	1
6	1010	2375.806323096909	2
6	1016	2379.965256529779	3
6	1018	2385.250852286311	4
6	1021	2399.588833785369	4
6	1025	2413.808996696861	4
6	1026	2414.58161968327	4
6	1027	2421.103463904321	3
6	1029	2423.704403934987	3
6	1030	2431.518370927656	3
6	1031	2438.372131115989	2
6	1033	2439.323409864084	2
6	1036	2443.183689750781	2
6	1037	2452.103183516967	1
6	1038	2460.11516755488	0
7	175	390.19208526962	12
7	186	407.439532221909	13
7	253	612.842100177508	14
7	272	647.071192511576	15
7	277	651.628792350656	16
7	301	746.720203383419	17
7	308	751.804402087226	18
7	341	809.99896328964	19
7	349	836.11272726403	20
7	369	880.101037723776	21
7	424	1071.697528192129	22
7	433	1107.464074333445	23
7	441	1117.78384952829	24
7	459	1148.533918641737	25
7	466	1164.363948844049	26
7	473	1174.071106898272	27
7	479	1182.736178667829	28
7	491	1214.244314790628	29
7	503	1250.476709292462	30
7	536	1310.28837300475	31
7	560	1359.796549003241	32
7	566	1370.990339914893	33
7	571	1378.159707347523	34
7	595	1465.193283170876	35
7	607	1518.048533812449	36
7	610	1522.115300919114	37
7	615	1541.428895554315	38
7	620	1550.738110740724	39
7	624	1557.057458542175	40
7	628	1568.331551592928	41
7	650	1619.894738349259	42
7	675	1664.490478429722	43
7	679	1671.38165525371	44
7	684	1675.267107061551	45
7	691	1689.847971375368	46
7	696	1702.746913519538	47
7	702	1712.497602514756	48
7	727	1755.40584379679	49
7	731	1762.461127702236	50
7	760	1847.391152781413	51
7	770	1857.225048866429	52
7	775	1866.271830798015	53
7	778	1878.578067492393	54
7	805	1956.425399870298	55
7	809	1969.834502793289	56
7	824	1999.57917616298	57
7	838	2031.530575653383	58
7	848	2049.403337861292	59
7	861	2069.148904070772	60
7	876	2112.867149498668	61
7	888	2134.440791909142	62
7	895	2157.212802221385	63
7	932	2219.535531233618	64
7	942	2245.658919910221	65
7	975	2315.1814443388	66
7	1004	2370.716186367381	67
8	175	390.19208526962	0
8	178	390.74775310521	0.195297505406
8	186	407.439532221909	0
8	224	518.507968548388	0
8	227	527.414971898013	5.241351573127
8	233	548.748816733117	0
8	236	555.625203739248	5.557585239196
8	242	575.666162275779	0
8	253	612.842100177508	0
8	260	629.135827014474	5.724234287647
8	272	647.071192511576	0
8	277	651.628792350656	0
8	281	665.26574855193	0
8	296	730.723164477223	0
8	301	746.720203383419	0
8	308	751.804402087226	0
8	317	764.258257155534	2.725205142212
8	320	771.52494660778	9.012652940686
8	321	776.699731103158	9.757736761034
8	341	809.99896328964	0
8	349	836.11272726403	0
8	369	880.101037723776	0
8	374	893.442953397021	0.275472637121
8	386	958.986682587974	0
8	391	965.858634750548	4.744846572773
8	400	992.793821373212	12.78753352711
8	401	1006.056642650163	19.468936469453
8	424	1071.697528192129	0
8	433	1107.464074333445	0
8	441	1117.78384952829	0
8	448	1127.517756858736	6.500375647428
8	455	1145.896233688521	21.465080952001
8	456	1146.038366705201	15.212363070171
8	459	1148.533918641737	0
8	466	1164.363948844049	0
8	473	1174.071106898272	0
8	476	1180.706820569014	4.930729929922
8	479	1182.736178667829	0
8	484	1190.868414388966	5.085475337379
8	485	1192.17285964935	6.035260379352
8	491	1214.244314790628	0
8	498	1234.586745279553	7.763002115141
8	503	1250.476709292462	0
8	521	1298.650389291879	0
8	527	1308.125086076041	0
8	536	1310.28837300475	0
8	560	1359.796549003241	0
8	566	1370.990339914893	0
8	571	1378.159707347523	0
8	576	1385.200134439983	4.235257959686
8	581	1389.8780788174	3.145907926439
8	582	1391.041832237084	1.933762845088
8	595	1465.193283170876	0
8	607	1518.048533812449	0
8	610	1522.115300919114	0
8	615	1541.428895554315	0
8	620	1550.738110740724	0
8	624	1557.057458542175	0
8	628	1568.331551592928	0
8	639	1603.392955246971	8.510483170384
8	650	1619.894738349259	0
8	661	1630.718932795691	6.634890530699
8	664	1636.252919877915	10.042303843664
8	665	1649.933074920455	17.086317035719
8	675	1664.490478429722	0
8	679	1671.38165525371	0
8	684	1675.267107061551	0
8	691	1689.847971375368	0
8	696	1702.746913519538	0
8	702	1712.497602514756	0
8	705	1717.974644331199	3.611095746275
8	716	1727.366692943442	7.725696537842
8	721	1741.824451924865	19.241387162515
8	727	1755.40584379679	0
8	731	1762.461127702236	0
8	742	1789.674345253138	2.614878818083
8	747	1815.483787409838	5.997473256749
8	760	1847.391152781413	0
8	770	1857.225048866429	0
8	775	1866.271830798015	0
8	778	1878.578067492393	0
8	781	1887.136704310296	0.379544406662
8	788	1904.20258636382	0.936990279892
8	805	1956.425399870298	0
8	809	1969.834502793289	0
8	824	1999.57917616298	0
8	838	2031.530575653383	0
8	848	2049.403337861292	0
8	861	2069.148904070772	0
8	876	2112.867149498668	0
8	888	2134.440791909142	0
8	895	2157.212802221385	0
8	912	2177.822312037289	6.441698319697
8	921	2194.673125463354	22.932622450438
8	922	2195.010836200288	7.669321622965
8	932	2219.535531233618	0
8	935	2234.148046743741	10.305547810641
8	942	2245.658919910221	0
8	975	2315.1814443388	0
8	982	2328.214770251972	5.930794002945
8	993	2346.560519750132	15.312422670015
8	994	2358.368754377907	12.140395310608
8	1004	2370.716186367381	0
8	1021	2399.588833785369	24.520755923836
8	1026	2414.58161968327	38.775296586361
8	1027	2421.103463904321	41.138207374542
8	1030	2431.518370927656	46.267518641345
8	1031	2438.372131115989	24.563134419128
8	1036	2443.183689750781	19.479285815794
8	1037	2452.103183516967	12.779773652883
9	178	390.74775310521	22
9	181	394.35520578298	23
9	187	411.043427538523	24
9	227	527.414971898013	25
9	230	541.006114816715	26
9	236	555.625203739248	27
9	237	560.185990759506	28
9	247	587.555319416563	29
9	260	629.135827014474	30
9	261	632.764941734274	31
9	273	648.999171198888	32
9	278	656.684803305565	33
9	282	677.442981146185	34
9	297	730.75488105279	35
9	302	746.852324031514	36
9	317	764.258257155534	37
9	320	771.52494660778	38
9	321	776.699731103158	39
9	326	788.309522990625	40
9	346	827.426538743923	41
9	352	845.856229434709	42
9	374	893.442953397021	43
9	375	897.857730614213	44
9	391	965.858634750548	45
9	400	992.793821373212	46
9	401	1006.056642650163	47
9	402	1006.184694025637	48
9	425	1072.987550488083	49
9	434	1111.993350001042	50
9	448	1127.517756858736	51
9	455	1145.896233688521	52
9	456	1146.038366705201	53
9	457	1148.425566172701	54
9	464	1163.721386491867	55
9	467	1165.914365179955	56
9	476	1180.706820569014	57
9	477	1181.369462811939	58
9	484	1190.868414388966	59
9	485	1192.17285964935	60
9	488	1212.44140529947	61
9	498	1234.586745279553	62
9	499	1237.649969289996	63
9	504	1250.712113799248	64
9	524	1300.917288993982	65
9	528	1308.279891217107	66
9	537	1314.341359052208	67
9	563	1369.290683559504	68
9	569	1373.093090701815	69
9	576	1385.200134439983	70
9	581	1389.8780788174	71
9	582	1391.041832237084	72
9	583	1393.122965856983	73
9	596	1467.223530925524	74
9	608	1519.662576643827	75
9	613	1531.633012615993	76
9	618	1548.644647899468	77
9	621	1551.369765938292	78
9	625	1559.613412473393	79
9	639	1603.392955246971	80
9	642	1607.077462891425	81
9	661	1630.718932795691	82
9	664	1636.252919877915	83
9	665	1649.933074920455	84
9	666	1650.633856720198	85
9	676	1667.614419407094	86
9	682	1674.463256640658	87
9	689	1687.020364316142	88
9	692	1691.669760819434	89
9	699	1711.612877440475	90
9	705	1717.974644331199	91
9	716	1727.366692943442	92
9	721	1741.824451924865	93
9	722	1743.52987130887	94
9	728	1756.604455973137	95
9	742	1789.674345253138	96
9	747	1815.483787409838	97
9	750	1822.574580905674	98
9	767	1854.365535352394	99
9	773	1863.98805888255	100
9	776	1871.17202187043	101
9	781	1887.136704310296	102
9	788	1904.20258636382	103
9	789	1904.413376353492	104
9	806	1963.093320125683	105
9	812	1976.461124564683	106
9	827	2005.147569735513	107
9	841	2037.68646035316	108
9	851	2052.520504575329	109
9	862	2072.878096383722	110
9	879	2117.498958754918	111
9	893	2156.540579969277	112
9	912	2177.822312037289	113
9	921	2194.673125463354	114
9	922	2195.010836200288	115
9	923	2196.828052912029	116
9	935	2234.148046743741	117
9	936	2234.204777808823	118
9	947	2256.926063634449	119
9	982	2328.214770251972	120
9	993	2346.560519750132	121
9	994	2358.368754377907	122
9	995	2358.384253325997	123
9	1021	2399.588833785369	124
9	1026	2414.58161968327	125
9	1027	2421.103463904321	126
9	1030	2431.518370927656	127
9	1031	2438.372131115989	128
9	1036	2443.183689750781	129
9	1037	2452.103183516967	130
9	1038	2460.11516755488	131
10	178	390.74775310521	0.55566783559
10	181	394.35520578298	3.802750183176
10	187	411.043427538523	3.603895316614
10	227	527.414971898013	8.907003349625
10	230	541.006114816715	18.832494491829
10	236	555.625203739248	6.876387006131
10	237	560.185990759506	10.118372259454
10	247	587.555319416563	11.889157140784
10	260	629.135827014474	16.293726836966
10	261	632.764941734274	9.353349007447
10	273	648.999171198888	1.927978687312
10	278	656.684803305565	5.056010954909
10	282	677.442981146185	12.177232594255
10	297	730.75488105279	0.031716575567
10	302	746.852324031514	0.132120648095
10	317	764.258257155534	12.453855068308
10	320	771.52494660778	9.991894594458
10	321	776.699731103158	14.187437436064
10	326	788.309522990625	21.367528648501
10	346	827.426538743923	17.427575454283
10	352	845.856229434709	9.743502170679
10	374	893.442953397021	13.341915673245
10	375	897.857730614213	4.690249854313
10	391	965.858634750548	6.871952162574
10	400	992.793821373212	31.680033195437
10	401	1006.056642650163	26.050354804061
10	402	1006.184694025637	19.596987844927
10	425	1072.987550488083	1.290022295954
10	434	1111.993350001042	4.529275667597
10	448	1127.517756858736	9.733907330446
10	455	1145.896233688521	24.878852477213
10	456	1146.038366705201	21.607213968681
10	457	1148.425566172701	17.599562537671
10	464	1163.721386491867	15.18746785013
10	467	1165.914365179955	1.550416335906
10	476	1180.706820569014	6.635713670742
10	477	1181.369462811939	5.593372172847
10	484	1190.868414388966	8.132235721137
10	485	1192.17285964935	6.389920597763
10	488	1212.44140529947	26.303806029472
10	498	1234.586745279553	20.342430488925
10	499	1237.649969289996	10.826226125584
10	504	1250.712113799248	0.235404506786
10	524	1300.917288993982	2.266899702103
10	528	1308.279891217107	0.154805141066
10	537	1314.341359052208	4.052986047458
10	563	1369.290683559504	9.494134556263
10	569	1373.093090701815	2.102750786922
10	576	1385.200134439983	7.04042709246
10	581	1389.8780788174	8.913202337103
10	582	1391.041832237084	4.309661346123
10	583	1393.122965856983	4.014896464987
10	596	1467.223530925524	2.030247754648
10	608	1519.662576643827	1.614042831378
10	613	1531.633012615993	9.517711696879
10	618	1548.644647899468	7.215752345153
10	621	1551.369765938292	0.631655197568
10	625	1559.613412473393	2.555953931218
10	639	1603.392955246971	35.061403654043
10	642	1607.077462891425	12.194990814838
10	661	1630.718932795691	10.824194446432
10	664	1636.252919877915	12.168877612923
10	665	1649.933074920455	23.722458886204
10	666	1650.633856720198	17.787098835462
10	676	1667.614419407094	3.123940977372
10	682	1674.463256640658	3.081601386948
10	689	1687.020364316142	11.753257254591
10	692	1691.669760819434	1.821789444066
10	699	1711.612877440475	8.865963920937
10	705	1717.974644331199	5.477041816443
10	716	1727.366692943442	13.003144358518
10	721	1741.824451924865	22.183455519265
10	722	1743.52987130887	20.94680654652
10	728	1756.604455973137	1.198612176347
10	742	1789.674345253138	27.213217550902
10	747	1815.483787409838	28.424320974783
10	750	1822.574580905674	13.088266752585
10	767	1854.365535352394	6.974382570981
10	773	1863.98805888255	6.763010016121
10	776	1871.17202187043	4.900191072415
10	781	1887.136704310296	8.558636817903
10	788	1904.20258636382	17.445426460186
10	789	1904.413376353492	1.147780269564
10	806	1963.093320125683	6.667920255385
10	812	1976.461124564683	6.626621771394
10	827	2005.147569735513	5.568393572533
10	841	2037.68646035316	6.155884699777
10	851	2052.520504575329	3.117166714037
10	862	2072.878096383722	3.72919231295
10	879	2117.498958754918	4.63180925625
10	893	2156.540579969277	22.099788060135
10	912	2177.822312037289	20.609509815904
10	921	2194.673125463354	23.292511745762
10	922	2195.010836200288	23.270333187372
10	923	2196.828052912029	9.486538334706
10	935	2234.148046743741	14.612515510123
10	936	2234.204777808823	10.362278875723
10	947	2256.926063634449	11.267143724228
10	982	2328.214770251972	13.033325913172
10	993	2346.560519750132	24.276543501105
10	994	2358.368754377907	27.12065729779
10	995	2358.384253325997	12.155894258698
10	1021	2399.588833785369	28.872647417988
10	1026	2414.58161968327	39.513541821737
10	1027	2421.103463904321	45.297140807412
10	1030	2431.518370927656	51.553114397877
10	1031	2438.372131115989	53.121278829678
10	1036	2443.183689750781	29.37469305392
10	1037	2452.103183516967	28.39877958198
10	1038	2460.11516755488	20.791757690796
11	1057	2500	0.0796
12	1057	2500	0.0524

