version 2
run experiments_medium_game_mode1-1308-20230311-09:44:36-15234
attr configname experiments_medium_game_mode1
attr datetime 20230311-09:44:36
attr experiment experiments_medium_game_mode1
attr inifile omnetpp.ini
attr iterationvars "$0=7, $1=4, $2=100"
attr iterationvarsf 7,4,100-
attr measurement "$0=7, $1=4, $2=100"
attr network Network
attr processid 15234
attr repetition 18
attr replication #18
attr resultdir results
attr runnumber 1308
attr seedset 18
param *.boss.arrival_mean 20
param *.boss.service_mean 7
param *.minion.arrival_mean 10
param *.minion.service_mean 4
param *.player.recover_rate_x 100
param **.minion.arrival_distribution 0
param **.minion.service_distribution 0
param **.boss.arrival_distribution 0
param **.boss.service_distribution 0

vector 0 Network.player boss_jobs_number_stat:vector ETV
attr source signal_boss_jobs_number
vector 1 Network.player boss_jobs_queue_number_stat:vector ETV
attr source signal_boss_jobs_queue_number
vector 2 Network.player minion_recovered_stat:vector ETV
attr source signal_minion_recovered
vector 3 Network.player boss_waiting_time_stat:vector ETV
attr source signal_boss_waiting_time
vector 4 Network.player minion_jobs_number_stat:vector ETV
attr source signal_minion_jobs_number
vector 5 Network.player minion_jobs_queue_number_stat:vector ETV
attr source signal_minion_jobs_queue_number
vector 6 Network.player boss_defeated_stat:vector ETV
attr source signal_boss_defeated
vector 7 Network.player boss_response_time_stat:vector ETV
attr source signal_boss_response_time
vector 8 Network.player minion_waiting_time_stat:vector ETV
attr source signal_minion_waiting_time
vector 9 Network.player minion_defeated_stat:vector ETV
attr source signal_minion_defeated
vector 10 Network.player minion_response_time_stat:vector ETV
attr source signal_minion_response_time
vector 11 Network.player minion_throughput:vector ETV
attr source signal_minion_throughput
vector 12 Network.player boss_throughput:vector ETV
attr source signal_boss_throughput
0	139	352.65760743913	1
0	145	359.293699558628	1
0	149	361.689670555923	1
0	178	423.510220605586	1
0	194	464.310329824607	1
0	206	490.311357624162	1
0	215	503.252965294132	1
0	219	507.787385408353	2
0	223	509.460907223688	3
0	230	515.59083765368	3
0	233	518.812306809382	3
0	239	528.789657893763	4
0	242	536.621619676878	4
0	246	539.876371230947	5
0	248	540.011977590143	6
0	266	576.409290106954	1
0	277	601.646983798841	1
0	291	620.5673933378	1
0	293	621.913209437982	2
0	306	646.35204339536	1
0	309	657.379640067769	1
0	344	733.174320689637	1
0	353	765.857088538859	1
0	383	831.36383180455	1
0	385	831.962629369746	2
0	392	850.840600045191	2
0	398	865.76178541671	3
0	415	901.223484359462	1
0	436	932.184322298713	1
0	440	937.929585530627	1
0	454	971.342649776712	1
0	467	983.072545625181	1
0	470	991.427067730116	1
0	479	1015.605515033844	1
0	487	1025.81114179477	1
0	516	1109.798972014767	1
0	530	1149.457133924026	1
0	551	1196.526696454582	1
0	553	1196.569454728748	2
0	556	1210.285144495441	2
0	559	1213.98675580795	2
0	565	1231.630065478987	3
0	570	1241.308179746611	3
0	583	1263.189796643971	1
0	594	1281.513172219529	1
0	599	1292.096612948606	1
0	605	1294.89263798076	2
0	607	1295.723033753267	3
0	609	1296.428746356222	4
0	611	1297.941004178685	5
0	622	1322.14802534089	3
0	625	1323.120498050406	3
0	635	1338.292960251381	4
0	657	1384.918681491055	1
0	665	1412.519964056525	1
0	673	1429.644800299848	1
0	675	1432.943823798201	2
0	683	1454.825693868242	3
0	685	1456.237201907714	4
0	691	1463.501273298819	3
0	698	1476.895200702336	3
0	702	1478.65248867971	4
0	710	1493.942844496456	3
0	714	1513.068384497825	4
0	723	1530.316331484607	2
0	778	1626.275814319071	1
0	790	1648.090529582688	1
0	792	1648.406833864499	2
0	798	1660.09057612624	1
0	802	1673.738745992098	2
0	805	1676.701949053993	2
0	807	1677.810560318481	3
0	811	1682.363952277894	2
0	816	1701.700788650236	2
0	818	1706.668184001908	3
0	840	1748.582026119455	1
0	858	1779.095334613409	1
0	869	1801.263659048677	1
0	879	1825.874136888878	1
0	884	1830.294960282079	1
0	894	1845.141402175686	1
0	901	1885.574877957284	1
0	950	1962.87460879635	1
0	959	2024.60862566707	1
0	961	2030.819784934859	2
0	968	2055.285658945094	1
0	983	2081.351597619549	1
0	995	2096.782173260599	1
0	1001	2106.087901989699	1
0	1025	2154.144294006872	1
0	1033	2167.364661838233	1
0	1040	2176.992351096176	1
0	1049	2206.891406240519	1
0	1061	2247.512079356014	1
0	1070	2306.924212961346	1
0	1076	2348.186366084548	1
0	1085	2370.15674638938	1
0	1109	2425.111267728735	1
0	1121	2451.626198357569	1
0	1127	2469.476608553846	1
0	1133	2490.238705866935	1
0	1135	2494.252370332495	2
0	1137	2494.636027121347	3
1	139	352.65760743913	0
1	142	355.937870705036	0
1	145	359.293699558628	0
1	146	359.685221270043	0
1	149	361.689670555923	0
1	152	380.672198371226	0
1	178	423.510220605586	0
1	181	428.747454516569	0
1	194	464.310329824607	0
1	195	471.622007083825	0
1	206	490.311357624162	0
1	209	496.958178820241	0
1	215	503.252965294132	0
1	219	507.787385408353	1
1	223	509.460907223688	2
1	224	511.051701793345	2
1	230	515.59083765368	2
1	231	516.164168366456	2
1	233	518.812306809382	2
1	239	528.789657893763	3
1	240	534.938140554839	3
1	242	536.621619676878	3
1	246	539.876371230947	4
1	248	540.011977590143	5
1	251	544.320314374175	5
1	254	552.080700068292	4
1	255	558.70615787885	3
1	256	560.555051658971	2
1	259	565.833460360262	1
1	260	567.901901755047	0
1	266	576.409290106954	0
1	267	579.3358448522	0
1	277	601.646983798841	0
1	280	603.431155694795	0
1	291	620.5673933378	0
1	293	621.913209437982	1
1	294	624.061452229324	1
1	295	624.650456579437	0
1	306	646.35204339536	0
1	307	652.998440049417	0
1	309	657.379640067769	0
1	312	658.80302862217	0
1	344	733.174320689637	0
1	345	737.574883307161	0
1	353	765.857088538859	0
1	356	774.892689243606	0
1	383	831.36383180455	0
1	385	831.962629369746	1
1	386	832.280709476286	1
1	392	850.840600045191	1
1	398	865.76178541671	2
1	401	880.165550019754	2
1	402	883.35901012297	1
1	403	884.44062125973	0
1	415	901.223484359462	0
1	416	907.377697303453	0
1	436	932.184322298713	0
1	437	933.930029814471	0
1	440	937.929585530627	0
1	441	939.343836098934	0
1	454	971.342649776712	0
1	455	973.627153609003	0
1	467	983.072545625181	0
1	468	988.696098641053	0
1	470	991.427067730116	0
1	475	1001.049226583052	0
1	479	1015.605515033844	0
1	480	1016.87472945932	0
1	487	1025.81114179477	0
1	494	1053.36606389398	0
1	516	1109.798972014767	0
1	519	1114.664251024389	0
1	530	1149.457133924026	0
1	535	1159.992524503159	0
1	551	1196.526696454582	0
1	553	1196.569454728748	1
1	554	1202.929515576829	1
1	556	1210.285144495441	1
1	557	1211.244898713511	1
1	559	1213.98675580795	1
1	565	1231.630065478987	2
1	566	1232.641409724242	2
1	570	1241.308179746611	2
1	571	1253.398502198222	2
1	572	1257.04999872407	1
1	575	1257.617317162931	0
1	583	1263.189796643971	0
1	588	1277.926391801884	0
1	594	1281.513172219529	0
1	595	1283.163806918448	0
1	599	1292.096612948606	0
1	605	1294.89263798076	1
1	607	1295.723033753267	2
1	609	1296.428746356222	3
1	611	1297.941004178685	4
1	612	1299.984750931983	4
1	615	1307.650137126701	3
1	618	1311.179213155088	2
1	622	1322.14802534089	2
1	623	1322.4234488189	2
1	625	1323.120498050406	2
1	635	1338.292960251381	3
1	644	1356.928770632237	3
1	647	1364.048161686383	2
1	648	1366.792009120858	1
1	649	1367.029071317438	0
1	657	1384.918681491055	0
1	658	1394.206258012083	0
1	665	1412.519964056525	0
1	666	1414.870161637581	0
1	673	1429.644800299848	0
1	675	1432.943823798201	1
1	683	1454.825693868242	2
1	685	1456.237201907714	3
1	686	1458.86860006098	3
1	687	1459.491858245914	2
1	691	1463.501273298819	2
1	694	1471.414557535691	2
1	698	1476.895200702336	2
1	702	1478.65248867971	3
1	705	1485.985803285445	3
1	708	1492.684127819586	2
1	710	1493.942844496456	2
1	714	1513.068384497825	3
1	715	1514.348543949067	3
1	718	1518.488258694102	2
1	721	1527.61255913929	1
1	723	1530.316331484607	1
1	726	1535.821756939026	1
1	727	1536.00089530485	0
1	778	1626.275814319071	0
1	781	1632.884612278765	0
1	790	1648.090529582688	0
1	792	1648.406833864499	1
1	795	1657.953477842084	1
1	796	1659.794251914522	0
1	798	1660.09057612624	0
1	802	1673.738745992098	1
1	803	1675.657414618953	1
1	805	1676.701949053993	1
1	807	1677.810560318481	2
1	808	1678.087890959698	2
1	809	1680.245086392751	1
1	811	1682.363952277894	1
1	812	1691.829032206805	1
1	816	1701.700788650236	1
1	818	1706.668184001908	2
1	819	1710.581897005479	2
1	820	1716.686732911905	1
1	823	1720.351411255966	0
1	840	1748.582026119455	0
1	841	1753.241522938354	0
1	858	1779.095334613409	0
1	861	1782.850358351206	0
1	869	1801.263659048677	0
1	870	1804.203169982731	0
1	879	1825.874136888878	0
1	880	1827.417973305661	0
1	884	1830.294960282079	0
1	885	1835.652469374652	0
1	894	1845.141402175686	0
1	897	1874.85433758366	0
1	901	1885.574877957284	0
1	902	1885.670253106586	0
1	950	1962.87460879635	0
1	951	1965.505558129752	0
1	959	2024.60862566707	0
1	961	2030.819784934859	1
1	962	2034.414794918923	1
1	963	2035.795641553512	0
1	968	2055.285658945094	0
1	971	2061.85592244223	0
1	983	2081.351597619549	0
1	984	2081.4325285268	0
1	995	2096.782173260599	0
1	996	2102.24532970477	0
1	1001	2106.087901989699	0
1	1004	2117.411814797783	0
1	1025	2154.144294006872	0
1	1028	2156.999241155857	0
1	1033	2167.364661838233	0
1	1036	2172.271211936587	0
1	1040	2176.992351096176	0
1	1043	2180.824184208981	0
1	1049	2206.891406240519	0
1	1052	2211.310880702982	0
1	1061	2247.512079356014	0
1	1062	2251.949967266695	0
1	1070	2306.924212961346	0
1	1071	2317.505595712393	0
1	1076	2348.186366084548	0
1	1077	2350.470825014738	0
1	1085	2370.15674638938	0
1	1086	2372.490344029244	0
1	1109	2425.111267728735	0
1	1110	2432.897692544865	0
1	1121	2451.626198357569	0
1	1122	2452.429082836303	0
1	1127	2469.476608553846	0
1	1128	2478.165443027063	0
1	1133	2490.238705866935	0
1	1135	2494.252370332495	1
1	1137	2494.636027121347	2
2	139	352.65760743913	6
2	145	359.293699558628	7
2	149	361.689670555923	8
2	178	423.510220605586	9
2	266	576.409290106954	10
2	277	601.646983798841	11
2	291	620.5673933378	12
2	306	646.35204339536	13
2	309	657.379640067769	14
2	415	901.223484359462	15
2	436	932.184322298713	16
2	454	971.342649776712	17
2	487	1025.81114179477	18
2	516	1109.798972014767	19
2	583	1263.189796643971	20
2	594	1281.513172219529	21
2	599	1292.096612948606	22
2	657	1384.918681491055	23
2	665	1412.519964056525	24
2	673	1429.644800299848	25
2	778	1626.275814319071	26
2	790	1648.090529582688	27
2	798	1660.09057612624	28
2	840	1748.582026119455	29
2	858	1779.095334613409	30
2	869	1801.263659048677	31
2	879	1825.874136888878	32
2	884	1830.294960282079	33
2	894	1845.141402175686	34
2	901	1885.574877957284	35
2	1033	2167.364661838233	36
3	139	352.65760743913	0
3	145	359.293699558628	0
3	149	361.689670555923	0
3	178	423.510220605586	0
3	194	464.310329824607	0
3	206	490.311357624162	0
3	215	503.252965294132	0
3	224	511.051701793345	3.264316384992
3	231	516.164168366456	6.703261142768
3	240	534.938140554839	19.347302901159
3	251	544.320314374175	25.508007564793
3	254	552.080700068292	23.291042174529
3	255	558.70615787885	22.084538201972
3	256	560.555051658971	20.678680428024
3	259	565.833460360262	25.821482770119
3	266	576.409290106954	0
3	277	601.646983798841	0
3	291	620.5673933378	0
3	294	624.061452229324	2.148242791342
3	306	646.35204339536	0
3	309	657.379640067769	0
3	344	733.174320689637	0
3	353	765.857088538859	0
3	383	831.36383180455	0
3	386	832.280709476286	0.31808010654
3	401	880.165550019754	29.324949974563
3	402	883.35901012297	17.59722470626
3	415	901.223484359462	0
3	436	932.184322298713	0
3	440	937.929585530627	0
3	454	971.342649776712	0
3	467	983.072545625181	0
3	470	991.427067730116	0
3	479	1015.605515033844	0
3	487	1025.81114179477	0
3	516	1109.798972014767	0
3	530	1149.457133924026	0
3	551	1196.526696454582	0
3	554	1202.929515576829	6.360060848081
3	557	1211.244898713511	0.95975421807
3	566	1232.641409724242	18.654653916292
3	571	1253.398502198222	21.768436719235
3	572	1257.04999872407	15.741818977459
3	583	1263.189796643971	0
3	594	1281.513172219529	0
3	599	1292.096612948606	0
3	612	1299.984750931983	5.092112951223
3	615	1307.650137126701	11.927103373434
3	618	1311.179213155088	14.750466798866
3	623	1322.4234488189	24.482444640215
3	644	1356.928770632237	34.780745291347
3	647	1364.048161686383	40.927663635977
3	648	1366.792009120858	28.499048869477
3	657	1384.918681491055	0
3	665	1412.519964056525	0
3	673	1429.644800299848	0
3	686	1458.86860006098	25.924776262779
3	687	1459.491858245914	4.666164377672
3	694	1471.414557535691	15.177355627977
3	705	1485.985803285445	22.484529986626
3	708	1492.684127819586	15.78892711725
3	715	1514.348543949067	35.696055269357
3	718	1518.488258694102	24.545414197646
3	721	1527.61255913929	14.544174641465
3	726	1535.821756939026	5.505425454419
3	778	1626.275814319071	0
3	790	1648.090529582688	0
3	795	1657.953477842084	9.546643977585
3	798	1660.09057612624	0
3	803	1675.657414618953	1.918668626855
3	808	1678.087890959698	1.385941905705
3	809	1680.245086392751	2.43452607427
3	812	1691.829032206805	9.465079928911
3	819	1710.581897005479	8.881108355243
3	820	1716.686732911905	10.018548909997
3	840	1748.582026119455	0
3	858	1779.095334613409	0
3	869	1801.263659048677	0
3	879	1825.874136888878	0
3	884	1830.294960282079	0
3	894	1845.141402175686	0
3	901	1885.574877957284	0
3	950	1962.87460879635	0
3	959	2024.60862566707	0
3	962	2034.414794918923	3.595009984064
3	968	2055.285658945094	0
3	983	2081.351597619549	0
3	995	2096.782173260599	0
3	1001	2106.087901989699	0
3	1025	2154.144294006872	0
3	1033	2167.364661838233	0
3	1040	2176.992351096176	0
3	1049	2206.891406240519	0
3	1061	2247.512079356014	0
3	1070	2306.924212961346	0
3	1076	2348.186366084548	0
3	1085	2370.15674638938	0
3	1109	2425.111267728735	0
3	1121	2451.626198357569	0
3	1127	2469.476608553846	0
3	1133	2490.238705866935	0
4	141	355.05946736505	8
4	151	370.780850023652	7
4	158	386.01824043156	4
4	163	397.684376195028	2
4	167	407.278190585379	1
4	169	407.91544005567	2
4	172	417.79778371846	2
4	176	419.657785982005	1
4	180	424.276063284641	2
4	184	445.699346670034	2
4	188	447.543103794211	1
4	191	460.516704985146	1
4	197	474.19422053615	1
4	200	481.095683169202	1
4	203	486.127831312219	1
4	208	490.485140357307	1
4	212	501.288951545055	1
4	217	505.002956299096	1
4	221	508.839663443019	2
4	226	513.738271046524	3
4	228	514.458292495847	4
4	235	525.229499277953	5
4	237	525.730885217399	6
4	244	537.391873471516	7
4	250	543.219500807899	8
4	253	548.535664666951	9
4	258	560.623706455632	10
4	262	568.939460714816	11
4	270	584.468749162211	9
4	275	599.791279867924	7
4	279	602.50064407349	8
4	283	605.718975695784	8
4	286	616.248476632966	8
4	289	619.18447714698	8
4	299	639.624648878793	7
4	301	641.806301898067	8
4	303	644.169706261645	9
4	311	658.230766056464	9
4	315	659.622136286692	9
4	319	665.804613480816	8
4	327	682.178400840308	3
4	332	700.87674194091	1
4	334	701.285677243009	2
4	338	717.967404583469	1
4	341	722.446726874082	1
4	347	739.610347347772	1
4	349	750.885863105092	2
4	355	769.247020053464	1
4	359	786.806884617963	1
4	362	796.034432044079	1
4	365	801.770196139294	1
4	367	802.643361737249	2
4	369	803.466342464771	3
4	374	821.989938605393	1
4	377	822.971999659924	1
4	379	825.692127493628	2
4	388	837.481048809211	1
4	390	837.528711359265	2
4	394	853.367451096851	3
4	396	864.80791871467	4
4	400	868.699468202168	5
4	410	892.215476562267	1
4	413	896.95419122637	1
4	418	908.783784786466	2
4	421	921.983408396422	2
4	423	923.077491675642	3
4	426	926.313872219769	3
4	429	928.366526091904	3
4	433	931.138786419577	2
4	443	951.775819964726	1
4	446	954.938401825785	1
4	449	960.15791517345	1
4	451	961.941637758824	2
4	458	973.955373969978	1
4	460	974.438970779056	2
4	462	976.208487875792	3
4	472	994.275476802733	1
4	474	998.967850855492	2
4	482	1021.422423220967	1
4	485	1025.61861987627	1
4	489	1034.732109192486	2
4	491	1038.782605635946	3
4	493	1043.159900290471	4
4	497	1064.460086608793	4
4	499	1065.265403748812	5
4	506	1093.886914810011	1
4	508	1095.796884728062	2
4	511	1100.441881947243	2
4	513	1102.411024622887	3
4	518	1110.248847979331	3
4	521	1115.662036455481	4
4	526	1127.991864436109	2
4	532	1150.403494908239	1
4	534	1157.698185414769	2
4	537	1160.726672716901	3
4	542	1179.987550244786	1
4	545	1190.406193379886	1
4	548	1192.060187505366	1
4	561	1214.542207979603	1
4	563	1230.587609546064	2
4	568	1239.074375508244	3
4	574	1257.072305290322	4
4	577	1258.154433461831	5
4	579	1258.463916101759	6
4	585	1268.084140595639	5
4	587	1269.559912571375	6
4	590	1279.343956200392	7
4	592	1281.438934440836	8
4	601	1293.39115214529	7
4	603	1294.09831111435	8
4	614	1306.377084729727	9
4	617	1308.790255576544	10
4	620	1312.306243155178	11
4	627	1325.552127347144	12
4	629	1329.476278199886	13
4	631	1331.977731951153	14
4	633	1335.18914020612	15
4	637	1345.473493177319	16
4	639	1353.837422051082	17
4	641	1355.903882210185	18
4	643	1356.72186603143	19
4	646	1361.4761275669	20
4	651	1367.411236736202	21
4	660	1399.696189430956	18
4	668	1417.078528100198	16
4	670	1420.290782061921	17
4	677	1438.259455455825	17
4	679	1444.792201787484	18
4	681	1449.871614903672	19
4	689	1460.060926220485	20
4	693	1464.592283923065	21
4	696	1476.202711998038	22
4	700	1478.069516448218	23
4	704	1485.640289736562	24
4	707	1487.04370975529	25
4	712	1512.283199849435	26
4	717	1514.492181875754	27
4	720	1525.749158143837	28
4	725	1532.577202008577	29
4	731	1538.005236612714	28
4	738	1551.435827516609	24
4	741	1561.172855466474	24
4	743	1562.687982903677	25
4	747	1576.644626109085	24
4	749	1577.971520441329	25
4	751	1578.224976662378	26
4	754	1580.245655261544	26
4	758	1584.930820075336	25
4	760	1598.806839497624	26
4	767	1609.425566048026	22
4	775	1624.066798678646	17
4	780	1627.508938156312	17
4	787	1644.804533826314	14
4	794	1656.941765470321	14
4	800	1667.440571028196	15
4	814	1696.918963719115	16
4	822	1719.112607261954	17
4	831	1730.314919826024	12
4	835	1747.308895643383	11
4	838	1748.047353153453	11
4	844	1758.501417219979	11
4	846	1759.620362943869	12
4	848	1761.129210365635	13
4	850	1763.813737269511	14
4	852	1770.185782847709	15
4	856	1778.687776808715	14
4	860	1781.263490443706	15
4	863	1783.647511303199	16
4	865	1791.920343721064	17
4	872	1809.927053426328	16
4	876	1824.121326190655	15
4	882	1828.799173711548	15
4	887	1836.776512552437	16
4	896	1863.001971466587	12
4	899	1877.221133022566	13
4	904	1886.960024108163	14
4	911	1894.963428843149	10
4	914	1898.466332015644	10
4	917	1905.001104474535	10
4	920	1918.282732109325	10
4	926	1930.581653249306	7
4	929	1935.826789934323	7
4	936	1942.879357732617	3
4	939	1951.691519557266	3
4	941	1951.845844740435	4
4	946	1955.941756291918	2
4	953	1981.415149903608	1
4	956	1991.932271441198	1
4	965	2036.820239663622	1
4	970	2055.395634036457	1
4	974	2066.336908056797	1
4	977	2068.572735745909	1
4	980	2073.629401755589	1
4	986	2090.373689927269	1
4	989	2091.510531786147	1
4	992	2094.509784816636	1
4	998	2103.10888607586	1
4	1003	2109.544519618569	1
4	1006	2121.370922174609	2
4	1008	2121.865282291356	3
4	1013	2140.760935507749	1
4	1016	2148.408502014201	1
4	1018	2150.88545136286	2
4	1022	2153.152701023359	1
4	1027	2156.826185249186	1
4	1030	2158.885137271309	2
4	1035	2167.645034195839	2
4	1042	2180.820140528645	1
4	1046	2190.617248134383	1
4	1051	2208.631005398133	1
4	1054	2213.327587140208	2
4	1058	2229.887447686045	1
4	1064	2260.949383513056	1
4	1067	2299.27861517504	1
4	1073	2325.819276184382	1
4	1079	2354.169776292782	1
4	1082	2363.140470416597	1
4	1088	2372.742441384221	1
4	1090	2376.357023247149	2
4	1094	2387.929246926715	1
4	1096	2388.368622764903	2
4	1100	2399.324458944691	1
4	1103	2416.76104363929	1
4	1106	2420.683923370384	1
4	1112	2433.483901769592	1
4	1114	2436.064121627286	2
4	1118	2449.110225251561	1
4	1124	2452.839439866003	1
4	1130	2485.429838161415	1
5	141	355.05946736505	7
5	143	357.490998510564	7
5	147	360.378883407803	6
5	151	370.780850023652	6
5	153	384.225574800817	6
5	154	384.673041960891	5
5	155	384.701149444504	4
5	156	385.916241154394	3
5	158	386.01824043156	3
5	159	386.721213980958	3
5	160	392.228274776822	2
5	161	394.578073676159	1
5	163	397.684376195028	1
5	164	402.93894231926	1
5	165	403.954679593652	0
5	167	407.278190585379	0
5	169	407.91544005567	1
5	170	417.33514203939	1
5	172	417.79778371846	1
5	173	418.107060154421	1
5	174	418.550665289605	0
5	176	419.657785982005	0
5	180	424.276063284641	1
5	182	432.757507402209	1
5	184	445.699346670034	1
5	185	446.875601166631	1
5	186	447.379126202544	0
5	188	447.543103794211	0
5	189	447.720698001759	0
5	191	460.516704985146	0
5	192	461.673993371675	0
5	197	474.19422053615	0
5	198	474.332767896339	0
5	200	481.095683169202	0
5	201	482.994427446966	0
5	203	486.127831312219	0
5	204	489.169947028666	0
5	208	490.485140357307	0
5	210	500.273622676291	0
5	212	501.288951545055	0
5	213	501.400305398207	0
5	217	505.002956299096	0
5	221	508.839663443019	1
5	226	513.738271046524	2
5	228	514.458292495847	3
5	235	525.229499277953	4
5	237	525.730885217399	5
5	244	537.391873471516	6
5	250	543.219500807899	7
5	253	548.535664666951	8
5	258	560.623706455632	9
5	262	568.939460714816	10
5	263	572.714229109332	10
5	264	574.361149920719	9
5	268	580.195236848683	8
5	270	584.468749162211	8
5	271	591.448202666745	8
5	272	592.699819377128	7
5	273	594.468211832676	6
5	275	599.791279867924	6
5	279	602.50064407349	7
5	281	603.751260424096	7
5	283	605.718975695784	7
5	284	615.513628623233	7
5	286	616.248476632966	7
5	287	618.529638938358	7
5	289	619.18447714698	7
5	296	631.507106728865	7
5	297	633.329646962394	6
5	299	639.624648878793	6
5	301	641.806301898067	7
5	303	644.169706261645	8
5	304	644.97634568736	8
5	311	658.230766056464	8
5	313	659.031136687625	8
5	315	659.622136286692	8
5	316	660.273393573869	8
5	317	662.30561144695	7
5	319	665.804613480816	7
5	320	666.97953033923	7
5	321	667.207158512277	6
5	322	671.258204488577	5
5	323	675.07334164859	4
5	324	675.180962047159	3
5	325	679.705376616675	2
5	327	682.178400840308	2
5	328	683.398395034987	2
5	329	687.300622303877	1
5	330	687.8185160567	0
5	332	700.87674194091	0
5	334	701.285677243009	1
5	335	708.83013215548	1
5	336	709.787585814997	0
5	338	717.967404583469	0
5	339	719.120190243089	0
5	341	722.446726874082	0
5	342	725.279267191774	0
5	347	739.610347347772	0
5	349	750.885863105092	1
5	350	755.005482470375	1
5	351	757.595106022167	0
5	355	769.247020053464	0
5	357	779.129644462806	0
5	359	786.806884617963	0
5	360	787.146555676206	0
5	362	796.034432044079	0
5	363	799.101598792699	0
5	365	801.770196139294	0
5	367	802.643361737249	1
5	369	803.466342464771	2
5	370	803.536685281458	2
5	371	804.25571213509	1
5	372	809.540677300922	0
5	374	821.989938605393	0
5	375	822.215515923203	0
5	377	822.971999659924	0
5	379	825.692127493628	1
5	380	828.226301400428	1
5	381	828.805384956056	0
5	388	837.481048809211	0
5	390	837.528711359265	1
5	394	853.367451096851	2
5	396	864.80791871467	3
5	400	868.699468202168	4
5	404	884.943059401548	4
5	405	888.791407398161	3
5	406	888.963492379711	2
5	407	890.010191303303	1
5	408	891.546111463745	0
5	410	892.215476562267	0
5	411	896.657543502013	0
5	413	896.95419122637	0
5	418	908.783784786466	1
5	419	912.180227010388	1
5	421	921.983408396422	1
5	423	923.077491675642	2
5	424	923.800970897465	2
5	426	926.313872219769	2
5	427	927.545711158089	2
5	429	928.366526091904	2
5	430	930.513562044911	2
5	431	930.83475314402	1
5	433	931.138786419577	1
5	434	931.305363317311	1
5	438	934.540202039812	0
5	443	951.775819964726	0
5	444	951.809865963988	0
5	446	954.938401825785	0
5	447	958.469937869985	0
5	449	960.15791517345	0
5	451	961.941637758824	1
5	452	969.13688546114	1
5	456	973.627902788852	0
5	458	973.955373969978	0
5	460	974.438970779056	1
5	462	976.208487875792	2
5	463	977.458439330486	2
5	464	981.485912405916	1
5	465	982.758242684162	0
5	472	994.275476802733	0
5	474	998.967850855492	1
5	476	1001.259426847864	1
5	477	1005.126235664807	0
5	482	1021.422423220967	0
5	483	1024.949241974437	0
5	485	1025.61861987627	0
5	489	1034.732109192486	1
5	491	1038.782605635946	2
5	493	1043.159900290471	3
5	495	1060.732386887756	3
5	497	1064.460086608793	3
5	499	1065.265403748812	4
5	500	1074.027250448995	4
5	501	1078.45607335862	3
5	502	1078.478358311993	2
5	503	1082.93257644791	1
5	504	1087.597823543697	0
5	506	1093.886914810011	0
5	508	1095.796884728062	1
5	509	1100.077345426345	1
5	511	1100.441881947243	1
5	513	1102.411024622887	2
5	514	1109.207168548346	2
5	518	1110.248847979331	2
5	521	1115.662036455481	3
5	522	1120.964532277991	3
5	523	1127.333261483321	2
5	524	1127.49442883864	1
5	526	1127.991864436109	1
5	527	1131.86402705637	1
5	528	1132.178460762434	0
5	532	1150.403494908239	0
5	534	1157.698185414769	1
5	537	1160.726672716901	2
5	538	1166.618551555958	2
5	539	1175.311237303133	1
5	540	1176.01717655645	0
5	542	1179.987550244786	0
5	543	1187.682095756969	0
5	545	1190.406193379886	0
5	546	1191.582106160441	0
5	548	1192.060187505366	0
5	549	1196.205101717206	0
5	561	1214.542207979603	0
5	563	1230.587609546064	1
5	568	1239.074375508244	2
5	574	1257.072305290322	3
5	577	1258.154433461831	4
5	579	1258.463916101759	5
5	580	1260.397077946142	5
5	581	1261.082156382979	4
5	585	1268.084140595639	4
5	587	1269.559912571375	5
5	590	1279.343956200392	6
5	592	1281.438934440836	7
5	596	1285.959543722746	7
5	597	1287.5748043665	6
5	601	1293.39115214529	6
5	603	1294.09831111435	7
5	614	1306.377084729727	8
5	617	1308.790255576544	9
5	620	1312.306243155178	10
5	627	1325.552127347144	11
5	629	1329.476278199886	12
5	631	1331.977731951153	13
5	633	1335.18914020612	14
5	637	1345.473493177319	15
5	639	1353.837422051082	16
5	641	1355.903882210185	17
5	643	1356.72186603143	18
5	646	1361.4761275669	19
5	651	1367.411236736202	20
5	652	1367.899603313493	20
5	653	1369.434981272302	19
5	654	1373.913079018038	18
5	655	1384.146792317376	17
5	660	1399.696189430956	17
5	661	1402.276957897782	17
5	662	1403.805149205177	16
5	663	1406.450552483758	15
5	668	1417.078528100198	15
5	670	1420.290782061921	16
5	671	1424.867689119323	16
5	677	1438.259455455825	16
5	679	1444.792201787484	17
5	681	1449.871614903672	18
5	689	1460.060926220485	19
5	693	1464.592283923065	20
5	696	1476.202711998038	21
5	700	1478.069516448218	22
5	704	1485.640289736562	23
5	707	1487.04370975529	24
5	712	1512.283199849435	25
5	717	1514.492181875754	26
5	720	1525.749158143837	27
5	725	1532.577202008577	28
5	728	1536.989691602909	28
5	729	1537.620907548434	27
5	731	1538.005236612714	27
5	732	1538.277434685115	27
5	733	1544.535786157856	26
5	734	1544.648672474497	25
5	735	1546.922277683573	24
5	736	1547.862389220981	23
5	738	1551.435827516609	23
5	739	1556.383216996025	23
5	741	1561.172855466474	23
5	743	1562.687982903677	24
5	744	1567.154072258901	24
5	745	1570.549381109759	23
5	747	1576.644626109085	23
5	749	1577.971520441329	24
5	751	1578.224976662378	25
5	752	1578.237385799411	25
5	754	1580.245655261544	25
5	755	1582.044126619526	25
5	756	1582.384975461268	24
5	758	1584.930820075336	24
5	760	1598.806839497624	25
5	761	1600.654449300442	25
5	762	1601.57856984858	24
5	763	1602.839994870806	23
5	764	1605.006848609985	22
5	765	1609.26536103396	21
5	767	1609.425566048026	21
5	768	1611.020549288374	21
5	769	1611.234654456428	20
5	770	1614.288373719696	19
5	771	1622.190351317492	18
5	772	1623.39747060777	17
5	773	1623.932771051904	16
5	775	1624.066798678646	16
5	776	1626.015341213365	16
5	780	1627.508938156312	16
5	782	1636.691358827839	16
5	783	1636.814435016806	15
5	784	1638.107170932662	14
5	785	1643.979568145667	13
5	787	1644.804533826314	13
5	788	1647.394389954876	13
5	794	1656.941765470321	13
5	800	1667.440571028196	14
5	814	1696.918963719115	15
5	822	1719.112607261954	16
5	824	1721.346513801095	16
5	825	1723.299434262515	15
5	826	1723.476736317866	14
5	827	1723.586816050021	13
5	828	1726.449040365602	12
5	829	1728.532927677792	11
5	831	1730.314919826024	11
5	832	1734.101631487883	11
5	833	1739.480161799266	10
5	835	1747.308895643383	10
5	836	1747.50875088007	10
5	838	1748.047353153453	10
5	842	1755.733964130074	10
5	844	1758.501417219979	10
5	846	1759.620362943869	11
5	848	1761.129210365635	12
5	850	1763.813737269511	13
5	852	1770.185782847709	14
5	853	1770.564271963527	14
5	854	1772.531320478538	13
5	856	1778.687776808715	13
5	860	1781.263490443706	14
5	863	1783.647511303199	15
5	865	1791.920343721064	16
5	866	1798.644140878575	16
5	867	1800.84950437933	15
5	872	1809.927053426328	15
5	873	1811.427094511274	15
5	874	1814.828694524613	14
5	876	1824.121326190655	14
5	877	1824.701959794999	14
5	882	1828.799173711548	14
5	887	1836.776512552437	15
5	888	1838.304110012669	15
5	889	1839.250910222604	14
5	890	1842.424511808113	13
5	891	1843.292627556916	12
5	892	1844.178643592846	11
5	896	1863.001971466587	11
5	899	1877.221133022566	12
5	904	1886.960024108163	13
5	905	1888.779863842846	13
5	906	1891.020214033509	12
5	907	1893.915172843758	11
5	908	1894.83995134323	10
5	909	1894.842331315806	9
5	911	1894.963428843149	9
5	912	1895.572538200191	9
5	914	1898.466332015644	9
5	915	1898.900797058428	9
5	917	1905.001104474535	9
5	918	1914.801783146435	9
5	920	1918.282732109325	9
5	921	1920.040068468332	9
5	922	1925.206653798733	8
5	923	1925.761719969931	7
5	924	1928.35630009143	6
5	926	1930.581653249306	6
5	927	1933.42886052994	6
5	929	1935.826789934323	6
5	930	1936.271187550379	6
5	931	1936.669070404634	5
5	932	1939.922836490207	4
5	933	1940.931845554889	3
5	934	1941.4951629519	2
5	936	1942.879357732617	2
5	937	1943.021688010767	2
5	939	1951.691519557266	2
5	941	1951.845844740435	3
5	942	1951.857858944947	3
5	943	1952.616993610645	2
5	944	1953.93604810742	1
5	946	1955.941756291918	1
5	947	1957.783784048095	1
5	948	1962.059093472515	0
5	953	1981.415149903608	0
5	954	1983.747115762954	0
5	956	1991.932271441198	0
5	957	1994.008556310054	0
5	965	2036.820239663622	0
5	966	2037.722417160013	0
5	970	2055.395634036457	0
5	972	2064.633856167	0
5	974	2066.336908056797	0
5	975	2066.914590343206	0
5	977	2068.572735745909	0
5	978	2071.69877458543	0
5	980	2073.629401755589	0
5	981	2074.389507067414	0
5	986	2090.373689927269	0
5	987	2091.179626133296	0
5	989	2091.510531786147	0
5	990	2093.292097980869	0
5	992	2094.509784816636	0
5	993	2094.786856793216	0
5	998	2103.10888607586	0
5	999	2103.267781337466	0
5	1003	2109.544519618569	0
5	1006	2121.370922174609	1
5	1008	2121.865282291356	2
5	1009	2122.483079724698	2
5	1010	2122.815777420159	1
5	1011	2126.738833928655	0
5	1013	2140.760935507749	0
5	1014	2144.496529227228	0
5	1016	2148.408502014201	0
5	1018	2150.88545136286	1
5	1019	2152.515698621875	1
5	1020	2152.81082410679	0
5	1022	2153.152701023359	0
5	1023	2153.804752822703	0
5	1027	2156.826185249186	0
5	1030	2158.885137271309	1
5	1031	2165.596780976829	1
5	1035	2167.645034195839	1
5	1037	2174.199139919188	1
5	1038	2175.556412007156	0
5	1042	2180.820140528645	0
5	1044	2183.195785932644	0
5	1046	2190.617248134383	0
5	1047	2191.687812903817	0
5	1051	2208.631005398133	0
5	1054	2213.327587140208	1
5	1055	2221.364322020016	1
5	1056	2223.061499108461	0
5	1058	2229.887447686045	0
5	1059	2239.740086516598	0
5	1064	2260.949383513056	0
5	1065	2260.983089595417	0
5	1067	2299.27861517504	0
5	1068	2300.517282839332	0
5	1073	2325.819276184382	0
5	1074	2329.525416195724	0
5	1079	2354.169776292782	0
5	1080	2354.396015027359	0
5	1082	2363.140470416597	0
5	1083	2368.089031847606	0
5	1088	2372.742441384221	0
5	1090	2376.357023247149	1
5	1091	2377.735982556381	1
5	1092	2378.980895872288	0
5	1094	2387.929246926715	0
5	1096	2388.368622764903	1
5	1097	2395.48277681571	1
5	1098	2396.45305297355	0
5	1100	2399.324458944691	0
5	1101	2400.795904980784	0
5	1103	2416.76104363929	0
5	1104	2417.034158885104	0
5	1106	2420.683923370384	0
5	1107	2424.497259350282	0
5	1112	2433.483901769592	0
5	1114	2436.064121627286	1
5	1115	2438.795559827259	1
5	1116	2447.249082013595	0
5	1118	2449.110225251561	0
5	1119	2449.292578768471	0
5	1124	2452.839439866003	0
5	1125	2456.404071396204	0
5	1130	2485.429838161415	0
5	1131	2487.407046783045	0
6	142	355.937870705036	17
6	146	359.685221270043	18
6	152	380.672198371226	19
6	181	428.747454516569	20
6	195	471.622007083825	21
6	209	496.958178820241	22
6	224	511.051701793345	23
6	231	516.164168366456	24
6	240	534.938140554839	25
6	251	544.320314374175	26
6	254	552.080700068292	27
6	255	558.70615787885	28
6	256	560.555051658971	29
6	259	565.833460360262	30
6	260	567.901901755047	31
6	267	579.3358448522	32
6	280	603.431155694795	33
6	294	624.061452229324	34
6	295	624.650456579437	35
6	307	652.998440049417	36
6	312	658.80302862217	37
6	345	737.574883307161	38
6	356	774.892689243606	39
6	386	832.280709476286	40
6	401	880.165550019754	41
6	402	883.35901012297	42
6	403	884.44062125973	43
6	416	907.377697303453	44
6	437	933.930029814471	45
6	441	939.343836098934	46
6	455	973.627153609003	47
6	468	988.696098641053	48
6	475	1001.049226583052	49
6	480	1016.87472945932	50
6	494	1053.36606389398	51
6	519	1114.664251024389	52
6	535	1159.992524503159	53
6	554	1202.929515576829	54
6	557	1211.244898713511	55
6	566	1232.641409724242	56
6	571	1253.398502198222	57
6	572	1257.04999872407	58
6	575	1257.617317162931	59
6	588	1277.926391801884	60
6	595	1283.163806918448	61
6	612	1299.984750931983	62
6	615	1307.650137126701	63
6	618	1311.179213155088	64
6	623	1322.4234488189	65
6	644	1356.928770632237	66
6	647	1364.048161686383	67
6	648	1366.792009120858	68
6	649	1367.029071317438	69
6	658	1394.206258012083	70
6	666	1414.870161637581	71
6	686	1458.86860006098	72
6	687	1459.491858245914	73
6	694	1471.414557535691	74
6	705	1485.985803285445	75
6	708	1492.684127819586	76
6	715	1514.348543949067	77
6	718	1518.488258694102	78
6	721	1527.61255913929	79
6	726	1535.821756939026	80
6	727	1536.00089530485	81
6	781	1632.884612278765	82
6	795	1657.953477842084	83
6	796	1659.794251914522	84
6	803	1675.657414618953	85
6	808	1678.087890959698	86
6	809	1680.245086392751	87
6	812	1691.829032206805	88
6	819	1710.581897005479	89
6	820	1716.686732911905	90
6	823	1720.351411255966	91
6	841	1753.241522938354	92
6	861	1782.850358351206	93
6	870	1804.203169982731	94
6	880	1827.417973305661	95
6	885	1835.652469374652	96
6	897	1874.85433758366	97
6	902	1885.670253106586	98
6	951	1965.505558129752	99
6	962	2034.414794918923	100
6	963	2035.795641553512	101
6	971	2061.85592244223	102
6	984	2081.4325285268	103
6	996	2102.24532970477	104
6	1004	2117.411814797783	105
6	1028	2156.999241155857	106
6	1036	2172.271211936587	107
6	1043	2180.824184208981	108
6	1052	2211.310880702982	109
6	1062	2251.949967266695	110
6	1071	2317.505595712393	111
6	1077	2350.470825014738	112
6	1086	2372.490344029244	113
6	1110	2432.897692544865	114
6	1122	2452.429082836303	115
6	1128	2478.165443027063	116
7	142	355.937870705036	3.280263265906
7	146	359.685221270043	0.391521711415
7	152	380.672198371226	18.982527815303
7	181	428.747454516569	5.237233910983
7	195	471.622007083825	7.311677259218
7	209	496.958178820241	6.646821196079
7	224	511.051701793345	7.798736499213
7	231	516.164168366456	8.376782958103
7	240	534.938140554839	25.477233331151
7	251	544.320314374175	28.729476720495
7	254	552.080700068292	33.26839325891
7	255	558.70615787885	29.916499985087
7	256	560.555051658971	23.933431982093
7	259	565.833460360262	25.957089129315
7	260	567.901901755047	27.889924164904
7	267	579.3358448522	2.926554745246
7	280	603.431155694795	1.784171895954
7	294	624.061452229324	3.494058891524
7	295	624.650456579437	2.737247141455
7	307	652.998440049417	6.646396654057
7	312	658.80302862217	1.423388554401
7	345	737.574883307161	4.400562617524
7	356	774.892689243606	9.035600704747
7	386	832.280709476286	0.916877671736
7	401	880.165550019754	48.202920650008
7	402	883.35901012297	32.518410077779
7	403	884.44062125973	18.67883584302
7	416	907.377697303453	6.154212943991
7	437	933.930029814471	1.745707515758
7	441	939.343836098934	1.414250568307
7	455	973.627153609003	2.284503832291
7	468	988.696098641053	5.623553015872
7	475	1001.049226583052	9.622158852936
7	480	1016.87472945932	1.269214425476
7	494	1053.36606389398	27.55492209921
7	519	1114.664251024389	4.865279009622
7	535	1159.992524503159	10.535390579133
7	554	1202.929515576829	6.402819122247
7	557	1211.244898713511	14.675443984763
7	566	1232.641409724242	22.356265228801
7	571	1253.398502198222	39.411746390272
7	572	1257.04999872407	25.419933245083
7	575	1257.617317162931	16.30913741632
7	588	1277.926391801884	14.736595157913
7	595	1283.163806918448	1.650634698919
7	612	1299.984750931983	7.888137983377
7	615	1307.650137126701	12.757499145941
7	618	1311.179213155088	15.456179401821
7	623	1322.4234488189	25.994702462678
7	644	1356.928770632237	58.987766453552
7	647	1364.048161686383	41.900136345493
7	648	1366.792009120858	43.671511070452
7	649	1367.029071317438	28.736111066057
7	658	1394.206258012083	9.287576521028
7	666	1414.870161637581	2.350197581056
7	686	1458.86860006098	29.223799761132
7	687	1459.491858245914	26.548034447713
7	694	1471.414557535691	16.588863667449
7	705	1485.985803285445	29.748601377731
7	708	1492.684127819586	29.182854520767
7	715	1514.348543949067	37.453343246731
7	718	1518.488258694102	39.835770014392
7	721	1527.61255913929	33.669714642834
7	726	1535.821756939026	22.753372441201
7	727	1536.00089530485	5.684563820243
7	781	1632.884612278765	6.608797959694
7	795	1657.953477842084	9.862948259396
7	796	1659.794251914522	11.387418050023
7	803	1675.657414618953	15.566838492713
7	808	1678.087890959698	4.3491449676
7	809	1680.245086392751	3.543137338758
7	812	1691.829032206805	14.018471888324
7	819	1710.581897005479	28.217944727585
7	820	1716.686732911905	14.985944261669
7	823	1720.351411255966	13.683227254058
7	841	1753.241522938354	4.659496818899
7	861	1782.850358351206	3.755023737797
7	870	1804.203169982731	2.939510934054
7	880	1827.417973305661	1.543836416783
7	885	1835.652469374652	5.357509092573
7	897	1874.85433758366	29.712935407974
7	902	1885.670253106586	0.095375149302
7	951	1965.505558129752	2.630949333402
7	962	2034.414794918923	9.806169251853
7	963	2035.795641553512	4.975856618653
7	971	2061.85592244223	6.570263497136
7	984	2081.4325285268	0.080930907251
7	996	2102.24532970477	5.463156444171
7	1004	2117.411814797783	11.323912808084
7	1028	2156.999241155857	2.854947148985
7	1036	2172.271211936587	4.906550098354
7	1043	2180.824184208981	3.831833112805
7	1052	2211.310880702982	4.419474462463
7	1062	2251.949967266695	4.437887910681
7	1071	2317.505595712393	10.581382751047
7	1077	2350.470825014738	2.28445893019
7	1086	2372.490344029244	2.333597639864
7	1110	2432.897692544865	7.78642481613
7	1122	2452.429082836303	0.802884478734
7	1128	2478.165443027063	8.688834473217
8	142	355.937870705036	33.6676866497
8	143	357.490998510564	31.853925075528
8	146	359.685221270043	32.237510984614
8	147	360.378883407803	26.572137397689
8	152	380.672198371226	36.807151517895
8	153	384.225574800817	37.931118827651
8	154	384.673041960891	32.015434521761
8	155	384.701149444504	29.641682079454
8	156	385.916241154394	26.622541595766
8	159	386.721213980958	25.031543425035
8	160	392.228274776822	21.44742475317
8	161	394.578073676159	8.559833244599
8	164	402.93894231926	5.254566124232
8	167	407.278190585379	0
8	170	417.33514203939	9.41970198372
8	173	418.107060154421	0.309276435961
8	176	419.657785982005	0
8	181	428.747454516569	5.237233910983
8	182	432.757507402209	8.481444117568
8	185	446.875601166631	1.176254496597
8	188	447.543103794211	0
8	191	460.516704985146	0
8	197	474.19422053615	0
8	200	481.095683169202	0
8	203	486.127831312219	0
8	209	496.958178820241	6.473038462934
8	212	501.288951545055	0
8	260	567.901901755047	62.898945455951
8	263	572.714229109332	63.874565666313
8	264	574.361149920719	60.622878874195
8	267	579.3358448522	64.877552356353
8	268	580.195236848683	54.96573757073
8	271	591.448202666745	65.717317449346
8	272	592.699819377128	55.307945905612
8	273	594.468211832676	51.248711024777
8	280	603.431155694795	54.895491027844
8	281	603.751260424096	43.127553968464
8	284	615.513628623233	46.574167908417
8	287	618.529638938358	42.120348831404
8	295	624.650456579437	40.181707417226
8	296	631.507106728865	31.715826860941
8	297	633.329646962394	31.682663163553
8	304	644.97634568736	42.47570161387
8	307	652.998440049417	47.279464353633
8	312	658.80302862217	42.554551989204
8	313	659.031136687625	39.846659540645
8	316	660.273393573869	39.706000236069
8	317	662.30561144695	22.680962568157
8	320	666.97953033923	25.173228441163
8	321	667.207158512277	23.037452250632
8	322	671.258204488577	24.906161093217
8	323	675.07334164859	17.693701580821
8	324	675.180962047159	16.950195990695
8	325	679.705376616675	20.083240329983
8	328	683.398395034987	17.593781554171
8	329	687.300622303877	5.122221463569
8	332	700.87674194091	0
8	335	708.83013215548	7.544454912471
8	338	717.967404583469	0
8	341	722.446726874082	0
8	347	739.610347347772	0
8	350	755.005482470375	4.119619365283
8	356	774.892689243606	5.645669190142
8	359	786.806884617963	0
8	362	796.034432044079	0
8	365	801.770196139294	0
8	370	803.536685281458	0.893323544209
8	371	804.25571213509	0.789369670319
8	374	821.989938605393	0
8	377	822.971999659924	0
8	380	828.226301400428	2.5341739068
8	403	884.44062125973	46.959572450519
8	404	884.943059401548	47.414348042283
8	405	888.791407398161	35.42395630131
8	406	888.963492379711	24.155573665041
8	407	890.010191303303	21.310723101135
8	410	892.215476562267	0
8	413	896.95419122637	0
8	416	907.377697303453	6.154212943991
8	419	912.180227010388	3.396442223922
8	424	923.800970897465	1.817562501043
8	427	927.545711158089	4.468219482447
8	430	930.513562044911	4.199689825142
8	431	930.83475314402	2.468227052116
8	434	931.305363317311	0.166576897734
8	437	933.930029814471	1.745707515758
8	443	951.775819964726	0
8	446	954.938401825785	0
8	449	960.15791517345	0
8	452	969.13688546114	7.195247702316
8	455	973.627153609003	2.284503832291
8	458	973.955373969978	0
8	463	977.458439330486	3.01946855143
8	464	981.485912405916	5.277424530124
8	475	1001.049226583052	6.773749780319
8	476	1001.259426847864	2.291575992372
8	482	1021.422423220967	0
8	485	1025.61861987627	0
8	494	1053.36606389398	27.55492209921
8	495	1060.732386887756	26.00027769527
8	500	1074.027250448995	35.244644813049
8	501	1078.45607335862	35.296173068149
8	502	1078.478358311993	14.0182717032
8	503	1082.93257644791	17.667172699098
8	506	1093.886914810011	0
8	509	1100.077345426345	4.280460698283
8	514	1109.207168548346	8.765286601103
8	519	1114.664251024389	12.253226401502
8	522	1120.964532277991	11.165560263224
8	523	1127.333261483321	17.08441350399
8	524	1127.49442883864	11.832392383159
8	527	1131.86402705637	3.872162620261
8	535	1159.992524503159	9.58902959492
8	538	1166.618551555958	8.920366141189
8	539	1175.311237303133	14.584564586232
8	542	1179.987550244786	0
8	545	1190.406193379886	0
8	548	1192.060187505366	0
8	575	1257.617317162931	43.075109183328
8	580	1260.397077946142	29.809468400078
8	581	1261.082156382979	22.007780874735
8	588	1277.926391801884	20.854086511562
8	595	1283.163806918448	25.009373456617
8	596	1285.959543722746	27.495627620987
8	597	1287.5748043665	24.385007722529
8	649	1367.029071317438	98.944930721799
8	652	1367.899603313493	98.339690742118
8	653	1369.434981272302	90.09102507191
8	654	1373.913079018038	92.474144577202
8	655	1384.146792317376	102.63362009785
8	658	1394.206258012083	102.10964506348
8	661	1402.276957897782	108.88580575249
8	662	1403.805149205177	109.70683809083
8	663	1406.450552483758	100.07346775403
8	666	1414.870161637581	106.07990606104
8	671	1424.867689119323	112.56144596414
8	727	1536.00089530485	210.44876795771
8	728	1536.989691602909	207.51341340302
8	729	1537.620907548434	205.64317559728
8	732	1538.277434685115	203.08829447899
8	733	1544.535786157856	199.06229298054
8	734	1544.648672474497	190.81125042342
8	735	1546.922277683573	191.01839547339
8	736	1547.862389220981	191.14052318955
8	739	1556.383216996025	194.90708942912
8	744	1567.154072258901	199.7428355227
8	745	1570.549381109759	185.6306996187
8	752	1578.237385799411	178.54119636845
8	755	1582.044126619526	169.524162563
8	756	1582.384975461268	165.30644736107
8	761	1600.654449300442	180.36366723852
8	762	1601.57856984858	171.93376954873
8	763	1602.839994870806	164.58053941498
8	764	1605.006848609985	160.2146468225
8	765	1609.26536103396	159.39374613029
8	768	1611.020549288374	150.95962306789
8	769	1611.234654456428	146.64237053336
8	770	1614.288373719696	138.08566172166
8	771	1622.190351317492	144.12083486927
8	772	1623.39747060777	137.75718087121
8	773	1623.932771051904	136.88906129661
8	776	1626.015341213365	113.73214136393
8	781	1632.884612278765	118.39243040301
8	782	1636.691358827839	110.942200684
8	783	1636.814435016806	104.23723300823
8	784	1638.107170932662	100.10193431995
8	785	1643.979568145667	92.543740629058
8	788	1647.394389954876	86.221534488402
8	796	1659.794251914522	97.106269010845
8	823	1720.351411255966	143.70678514688
8	824	1721.346513801095	143.37499335977
8	825	1723.299434262515	145.07445760014
8	826	1723.476736317866	143.23108105632
8	827	1723.586816050021	138.65599597468
8	828	1726.449040365602	127.64220086798
8	829	1728.532927677792	119.10736162977
8	832	1734.101631487883	110.03483280924
8	833	1739.480161799266	113.20434748019
8	836	1747.50875088007	119.99981272376
8	841	1753.241522938354	108.43698911204
8	842	1755.733964130074	107.64343454739
8	853	1770.564271963527	113.62250649321
8	854	1772.531320478538	112.4407443523
8	861	1782.850358351206	115.40978732301
8	866	1798.644140878575	101.72517715946
8	867	1800.84950437933	81.736897117376
8	870	1804.203169982731	73.888250156707
8	873	1811.427094511274	64.118198867891
8	874	1814.828694524613	66.78134137116
8	877	1824.701959794999	76.119933675544
8	880	1827.417973305661	68.916556085682
8	885	1835.652469374652	76.032106430783
8	888	1838.304110012669	77.174899647034
8	889	1839.250910222604	75.437172953093
8	890	1842.424511808113	72.238728960404
8	891	1843.292627556916	64.604850748201
8	892	1844.178643592846	65.083308979437
8	897	1874.85433758366	93.590847139954
8	902	1885.670253106586	102.02274180339
8	905	1888.779863842846	96.859520121782
8	906	1891.020214033509	89.756554984832
8	907	1893.915172843758	83.98811941743
8	908	1894.83995134323	70.718625152575
8	909	1894.842331315806	68.968194426928
8	912	1895.572538200191	66.773364488643
8	915	1898.900797058428	68.605836776349
8	918	1914.801783146435	78.025270593998
8	921	1920.040068468332	74.898666292646
8	922	1925.206653798733	62.204682332146
8	923	1925.761719969931	48.540586947365
8	924	1928.35630009143	42.781422134146
8	927	1933.42886052994	46.468836421777
8	930	1936.271187550379	41.30775870723
8	931	1936.669070404634	38.20273838899
8	932	1939.922836490207	34.921732015672
8	933	1940.931845554889	22.649113445564
8	934	1941.4951629519	10.913509702594
8	937	1943.021688010767	7.194898076444
8	942	1951.857858944947	8.97850121233
8	943	1952.616993610645	0.925474053379
8	944	1953.93604810742	2.090203366985
8	947	1957.783784048095	1.842027756177
8	953	1981.415149903608	0
8	956	1991.932271441198	0
8	965	2036.820239663622	0
8	971	2061.85592244223	6.460288405773
8	974	2066.336908056797	0
8	977	2068.572735745909	0
8	980	2073.629401755589	0
8	986	2090.373689927269	0
8	989	2091.510531786147	0
8	992	2094.509784816636	0
8	998	2103.10888607586	0
8	1004	2117.411814797783	7.867295179214
8	1009	2122.483079724698	1.112157550089
8	1010	2122.815777420159	0.950495128803
8	1013	2140.760935507749	0
8	1016	2148.408502014201	0
8	1019	2152.515698621875	1.630247259015
8	1022	2153.152701023359	0
8	1028	2156.999241155857	0.173055906671
8	1031	2165.596780976829	6.71164370552
8	1036	2172.271211936587	4.906550098354
8	1037	2174.199139919188	6.554105723349
8	1043	2180.824184208981	0.004043680336
8	1046	2190.617248134383	0
8	1052	2211.310880702982	2.679875304849
8	1055	2221.364322020016	8.036734879808
8	1058	2229.887447686045	0
8	1064	2260.949383513056	0
8	1067	2299.27861517504	0
8	1073	2325.819276184382	0
8	1079	2354.169776292782	0
8	1082	2363.140470416597	0
8	1088	2372.742441384221	0
8	1091	2377.735982556381	1.378959309232
8	1094	2387.929246926715	0
8	1097	2395.48277681571	7.114154050807
8	1100	2399.324458944691	0
8	1103	2416.76104363929	0
8	1106	2420.683923370384	0
8	1112	2433.483901769592	0
8	1115	2438.795559827259	2.731438199973
8	1118	2449.110225251561	0
8	1124	2452.839439866003	0
8	1130	2485.429838161415	0
9	143	357.490998510564	26
9	147	360.378883407803	27
9	153	384.225574800817	28
9	154	384.673041960891	29
9	155	384.701149444504	30
9	156	385.916241154394	31
9	159	386.721213980958	32
9	160	392.228274776822	33
9	161	394.578073676159	34
9	164	402.93894231926	35
9	165	403.954679593652	36
9	170	417.33514203939	37
9	173	418.107060154421	38
9	174	418.550665289605	39
9	182	432.757507402209	40
9	185	446.875601166631	41
9	186	447.379126202544	42
9	189	447.720698001759	43
9	192	461.673993371675	44
9	198	474.332767896339	45
9	201	482.994427446966	46
9	204	489.169947028666	47
9	210	500.273622676291	48
9	213	501.400305398207	49
9	263	572.714229109332	50
9	264	574.361149920719	51
9	268	580.195236848683	52
9	271	591.448202666745	53
9	272	592.699819377128	54
9	273	594.468211832676	55
9	281	603.751260424096	56
9	284	615.513628623233	57
9	287	618.529638938358	58
9	296	631.507106728865	59
9	297	633.329646962394	60
9	304	644.97634568736	61
9	313	659.031136687625	62
9	316	660.273393573869	63
9	317	662.30561144695	64
9	320	666.97953033923	65
9	321	667.207158512277	66
9	322	671.258204488577	67
9	323	675.07334164859	68
9	324	675.180962047159	69
9	325	679.705376616675	70
9	328	683.398395034987	71
9	329	687.300622303877	72
9	330	687.8185160567	73
9	335	708.83013215548	74
9	336	709.787585814997	75
9	339	719.120190243089	76
9	342	725.279267191774	77
9	350	755.005482470375	78
9	351	757.595106022167	79
9	357	779.129644462806	80
9	360	787.146555676206	81
9	363	799.101598792699	82
9	370	803.536685281458	83
9	371	804.25571213509	84
9	372	809.540677300922	85
9	375	822.215515923203	86
9	380	828.226301400428	87
9	381	828.805384956056	88
9	404	884.943059401548	89
9	405	888.791407398161	90
9	406	888.963492379711	91
9	407	890.010191303303	92
9	408	891.546111463745	93
9	411	896.657543502013	94
9	419	912.180227010388	95
9	424	923.800970897465	96
9	427	927.545711158089	97
9	430	930.513562044911	98
9	431	930.83475314402	99
9	434	931.305363317311	100
9	438	934.540202039812	101
9	444	951.809865963988	102
9	447	958.469937869985	103
9	452	969.13688546114	104
9	456	973.627902788852	105
9	463	977.458439330486	106
9	464	981.485912405916	107
9	465	982.758242684162	108
9	476	1001.259426847864	109
9	477	1005.126235664807	110
9	483	1024.949241974437	111
9	495	1060.732386887756	112
9	500	1074.027250448995	113
9	501	1078.45607335862	114
9	502	1078.478358311993	115
9	503	1082.93257644791	116
9	504	1087.597823543697	117
9	509	1100.077345426345	118
9	514	1109.207168548346	119
9	522	1120.964532277991	120
9	523	1127.333261483321	121
9	524	1127.49442883864	122
9	527	1131.86402705637	123
9	528	1132.178460762434	124
9	538	1166.618551555958	125
9	539	1175.311237303133	126
9	540	1176.01717655645	127
9	543	1187.682095756969	128
9	546	1191.582106160441	129
9	549	1196.205101717206	130
9	580	1260.397077946142	131
9	581	1261.082156382979	132
9	596	1285.959543722746	133
9	597	1287.5748043665	134
9	652	1367.899603313493	135
9	653	1369.434981272302	136
9	654	1373.913079018038	137
9	655	1384.146792317376	138
9	661	1402.276957897782	139
9	662	1403.805149205177	140
9	663	1406.450552483758	141
9	671	1424.867689119323	142
9	728	1536.989691602909	143
9	729	1537.620907548434	144
9	732	1538.277434685115	145
9	733	1544.535786157856	146
9	734	1544.648672474497	147
9	735	1546.922277683573	148
9	736	1547.862389220981	149
9	739	1556.383216996025	150
9	744	1567.154072258901	151
9	745	1570.549381109759	152
9	752	1578.237385799411	153
9	755	1582.044126619526	154
9	756	1582.384975461268	155
9	761	1600.654449300442	156
9	762	1601.57856984858	157
9	763	1602.839994870806	158
9	764	1605.006848609985	159
9	765	1609.26536103396	160
9	768	1611.020549288374	161
9	769	1611.234654456428	162
9	770	1614.288373719696	163
9	771	1622.190351317492	164
9	772	1623.39747060777	165
9	773	1623.932771051904	166
9	776	1626.015341213365	167
9	782	1636.691358827839	168
9	783	1636.814435016806	169
9	784	1638.107170932662	170
9	785	1643.979568145667	171
9	788	1647.394389954876	172
9	824	1721.346513801095	173
9	825	1723.299434262515	174
9	826	1723.476736317866	175
9	827	1723.586816050021	176
9	828	1726.449040365602	177
9	829	1728.532927677792	178
9	832	1734.101631487883	179
9	833	1739.480161799266	180
9	836	1747.50875088007	181
9	842	1755.733964130074	182
9	853	1770.564271963527	183
9	854	1772.531320478538	184
9	866	1798.644140878575	185
9	867	1800.84950437933	186
9	873	1811.427094511274	187
9	874	1814.828694524613	188
9	877	1824.701959794999	189
9	888	1838.304110012669	190
9	889	1839.250910222604	191
9	890	1842.424511808113	192
9	891	1843.292627556916	193
9	892	1844.178643592846	194
9	905	1888.779863842846	195
9	906	1891.020214033509	196
9	907	1893.915172843758	197
9	908	1894.83995134323	198
9	909	1894.842331315806	199
9	912	1895.572538200191	200
9	915	1898.900797058428	201
9	918	1914.801783146435	202
9	921	1920.040068468332	203
9	922	1925.206653798733	204
9	923	1925.761719969931	205
9	924	1928.35630009143	206
9	927	1933.42886052994	207
9	930	1936.271187550379	208
9	931	1936.669070404634	209
9	932	1939.922836490207	210
9	933	1940.931845554889	211
9	934	1941.4951629519	212
9	937	1943.021688010767	213
9	942	1951.857858944947	214
9	943	1952.616993610645	215
9	944	1953.93604810742	216
9	947	1957.783784048095	217
9	948	1962.059093472515	218
9	954	1983.747115762954	219
9	957	1994.008556310054	220
9	966	2037.722417160013	221
9	972	2064.633856167	222
9	975	2066.914590343206	223
9	978	2071.69877458543	224
9	981	2074.389507067414	225
9	987	2091.179626133296	226
9	990	2093.292097980869	227
9	993	2094.786856793216	228
9	999	2103.267781337466	229
9	1009	2122.483079724698	230
9	1010	2122.815777420159	231
9	1011	2126.738833928655	232
9	1014	2144.496529227228	233
9	1019	2152.515698621875	234
9	1020	2152.81082410679	235
9	1023	2153.804752822703	236
9	1031	2165.596780976829	237
9	1037	2174.199139919188	238
9	1038	2175.556412007156	239
9	1044	2183.195785932644	240
9	1047	2191.687812903817	241
9	1055	2221.364322020016	242
9	1056	2223.061499108461	243
9	1059	2239.740086516598	244
9	1065	2260.983089595417	245
9	1068	2300.517282839332	246
9	1074	2329.525416195724	247
9	1080	2354.396015027359	248
9	1083	2368.089031847606	249
9	1091	2377.735982556381	250
9	1092	2378.980895872288	251
9	1097	2395.48277681571	252
9	1098	2396.45305297355	253
9	1101	2400.795904980784	254
9	1104	2417.034158885104	255
9	1107	2424.497259350282	256
9	1115	2438.795559827259	257
9	1116	2447.249082013595	258
9	1119	2449.292578768471	259
9	1125	2456.404071396204	260
9	1131	2487.407046783045	261
10	143	357.490998510564	35.220814455228
10	147	360.378883407803	32.931173122374
10	153	384.225574800817	40.360527947486
10	154	384.673041960891	38.378585987725
10	155	384.701149444504	32.043542005374
10	156	385.916241154394	30.856773789344
10	159	386.721213980958	27.42751442233
10	160	392.228274776822	30.538604220899
10	161	394.578073676159	23.797223652507
10	164	402.93894231926	16.9207018877
10	165	403.954679593652	6.270303398624
10	170	417.33514203939	10.056951454011
10	173	418.107060154421	10.191620098751
10	174	418.550665289605	0.752881571145
10	182	432.757507402209	9.247286796623
10	185	446.875601166631	22.59953788199
10	186	447.379126202544	1.67977953251
10	189	447.720698001759	0.177594207548
10	192	461.673993371675	1.157288386529
10	198	474.332767896339	0.138547360189
10	201	482.994427446966	1.898744277764
10	204	489.169947028666	3.042115716447
10	210	500.273622676291	9.788482318984
10	213	501.400305398207	0.111353853152
10	263	572.714229109332	67.711272810236
10	264	574.361149920719	65.5214864777
10	268	580.195236848683	65.736944352836
10	271	591.448202666745	66.218703388792
10	272	592.699819377128	66.968934159729
10	273	594.468211832676	57.07633836116
10	281	603.751260424096	55.215595757145
10	284	615.513628623233	54.889922167601
10	287	618.529638938358	49.590178223542
10	296	631.507106728865	47.038357566654
10	297	633.329646962394	33.53836709447
10	304	644.97634568736	43.329361888519
10	313	659.031136687625	42.782660054659
10	316	660.273393573869	41.088916426889
10	317	662.30561144695	41.73821810915
10	320	666.97953033923	27.354881460437
10	321	667.207158512277	25.40085661421
10	322	671.258204488577	27.088498226932
10	323	675.07334164859	28.72129825323
10	324	675.180962047159	17.80132197939
10	325	679.705376616675	21.474610560211
10	328	683.398395034987	23.776258748295
10	329	687.300622303877	21.496008823061
10	330	687.8185160567	5.640115216392
10	335	708.83013215548	7.95339021457
10	336	709.787585814997	8.501908571988
10	339	719.120190243089	1.15278565962
10	342	725.279267191774	2.832540317692
10	350	755.005482470375	15.395135122603
10	351	757.595106022167	6.709242917075
10	357	779.129644462806	9.882624409342
10	360	787.146555676206	0.339671058243
10	363	799.101598792699	3.06716674862
10	370	803.536685281458	1.766489142164
10	371	804.25571213509	1.612350397841
10	372	809.540677300922	6.074334836151
10	375	822.215515923203	0.22557731781
10	380	828.226301400428	5.254301740504
10	381	828.805384956056	3.113257462428
10	404	884.943059401548	47.462010592337
10	405	888.791407398161	51.262696038896
10	406	888.963492379711	35.59604128286
10	407	890.010191303303	25.202272588633
10	408	891.546111463745	22.846643261577
10	411	896.657543502013	4.442066939746
10	419	912.180227010388	10.956742650926
10	424	923.800970897465	15.017186110999
10	427	927.545711158089	5.562302761667
10	430	930.513562044911	7.436070369269
10	431	930.83475314402	4.520880924251
10	434	931.305363317311	2.938837225407
10	438	934.540202039812	2.355879741099
10	444	951.809865963988	0.034045999262
10	447	958.469937869985	3.5315360442
10	452	969.13688546114	8.97897028769
10	456	973.627902788852	2.28525301214
10	463	977.458439330486	3.503065360508
10	464	981.485912405916	7.04694162686
10	465	982.758242684162	6.54975480837
10	476	1001.259426847864	6.983950045131
10	477	1005.126235664807	6.158384809315
10	483	1024.949241974437	3.52681875347
10	495	1060.732386887756	34.921245092986
10	500	1074.027250448995	39.295141256509
10	501	1078.45607335862	39.673467722674
10	502	1078.478358311993	35.318458021522
10	503	1082.93257644791	18.472489839117
10	504	1087.597823543697	22.332419794885
10	509	1100.077345426345	6.190430616334
10	514	1109.207168548346	13.410283820284
10	522	1120.964532277991	18.553507655104
10	523	1127.333261483321	17.534289468554
10	524	1127.49442883864	17.245580859309
10	527	1131.86402705637	16.201990600889
10	528	1132.178460762434	4.186596326325
10	538	1166.618551555958	16.215056647719
10	539	1175.311237303133	17.613051888364
10	540	1176.01717655645	15.290503839549
10	543	1187.682095756969	7.694545512183
10	546	1191.582106160441	1.175912780555
10	549	1196.205101717206	4.14491421184
10	580	1260.397077946142	45.854869966539
10	581	1261.082156382979	30.494546836915
10	596	1285.959543722746	27.805110260915
10	597	1287.5748043665	29.110888264741
10	652	1367.899603313493	99.815462717854
10	653	1369.434981272302	99.875068700927
10	654	1373.913079018038	94.569122817646
10	655	1384.146792317376	102.70785787654
10	661	1402.276957897782	110.18034494918
10	662	1403.805149205177	110.41399705989
10	663	1406.450552483758	112.35224136941
10	671	1424.867689119323	116.07743354278
10	728	1536.989691602909	211.43756425576
10	729	1537.620907548434	208.14462934855
10	732	1538.277434685115	206.29970273396
10	733	1544.535786157856	209.34664595174
10	734	1544.648672474497	199.17517929718
10	735	1546.922277683573	193.08485563249
10	736	1547.862389220981	191.9585070108
10	739	1556.383216996025	199.66135096459
10	744	1567.154072258901	205.677944692
10	745	1570.549381109759	203.13814437356
10	752	1578.237385799411	193.31870430836
10	755	1582.044126619526	182.34793718857
10	756	1582.384975461268	169.86501140474
10	761	1600.654449300442	183.57592120024
10	762	1601.57856984858	181.28778778666
10	763	1602.839994870806	173.19519457096
10	764	1605.006848609985	166.74739315416
10	765	1609.26536103396	164.47315924648
10	768	1611.020549288374	161.1489343847
10	769	1611.234654456428	151.17372823594
10	770	1614.288373719696	149.69608979663
10	771	1622.190351317492	145.98763931945
10	772	1623.39747060777	145.32795415955
10	773	1623.932771051904	138.29248131534
10	776	1626.015341213365	138.97163145807
10	782	1636.691358827839	122.19917695208
10	783	1636.814435016806	111.06527687297
10	784	1638.107170932662	105.52996892408
10	785	1643.979568145667	105.97433153295
10	788	1647.394389954876	95.958562438267
10	824	1721.346513801095	144.70188769201
10	825	1723.299434262515	145.32791382119
10	826	1723.476736317866	145.25175965549
10	827	1723.586816050021	143.34116078848
10	828	1726.449040365602	141.51822029027
10	829	1728.532927677792	129.72608818017
10	832	1734.101631487883	124.67606543986
10	833	1739.480161799266	115.41336312062
10	836	1747.50875088007	121.232936561
10	842	1755.733964130074	110.92943030376
10	853	1770.564271963527	122.47374238084
10	854	1772.531320478538	115.58955500822
10	866	1798.644140878575	131.20356985038
10	867	1800.84950437933	103.93054066022
10	873	1811.427094511274	81.11217468525
10	874	1814.828694524613	67.51979888123
10	877	1824.701959794999	76.654606641546
10	888	1838.304110012669	78.6837470688
10	889	1839.250910222604	78.121699856969
10	890	1842.424511808113	78.610774538602
10	891	1843.292627556916	73.106844709207
10	892	1844.178643592846	65.490866784131
10	905	1888.779863842846	105.13235253965
10	906	1891.020214033509	99.099870312445
10	907	1893.915172843758	92.651513795081
10	908	1894.83995134323	84.912897916902
10	909	1894.842331315806	70.721005125151
10	912	1895.572538200191	69.698401311313
10	915	1898.900797058428	70.10162334688
10	918	1914.801783146435	84.506822864356
10	921	1920.040068468332	83.263555915895
10	922	1925.206653798733	80.065251623047
10	923	1925.761719969931	62.759748503344
10	924	1928.35630009143	51.135167068864
10	927	1933.42886052994	47.853982572656
10	930	1936.271187550379	49.311163442216
10	931	1936.669070404634	41.705641561485
10	932	1939.922836490207	41.456504474563
10	933	1940.931845554889	35.930741080354
10	934	1941.4951629519	23.212430842575
10	937	1943.021688010767	12.440034761461
10	942	1951.857858944947	16.031069010624
10	943	1952.616993610645	9.737635878028
10	944	1953.93604810742	2.244528550154
10	947	1957.783784048095	5.93793930766
10	948	1962.059093472515	6.117337180597
10	954	1983.747115762954	2.331965859346
10	957	1994.008556310054	2.076284868856
10	966	2037.722417160013	0.902177496391
10	972	2064.633856167	9.238222130543
10	975	2066.914590343206	0.577682286409
10	978	2071.69877458543	3.126038839521
10	981	2074.389507067414	0.760105311825
10	987	2091.179626133296	0.805936206027
10	990	2093.292097980869	1.781566194722
10	993	2094.786856793216	0.27707197658
10	999	2103.267781337466	0.158895261606
10	1009	2122.483079724698	12.938560106129
10	1010	2122.815777420159	1.44485524555
10	1011	2126.738833928655	4.873551637299
10	1014	2144.496529227228	3.735593719479
10	1019	2152.515698621875	4.107196607674
10	1020	2152.81082410679	1.92537274393
10	1023	2153.804752822703	0.652051799344
10	1031	2165.596780976829	8.770595727643
10	1037	2174.199139919188	6.834478080955
10	1038	2175.556412007156	7.911377811317
10	1044	2183.195785932644	2.375645403999
10	1047	2191.687812903817	1.070564769434
10	1055	2221.364322020016	12.733316621883
10	1056	2223.061499108461	9.733911968253
10	1059	2239.740086516598	9.852638830553
10	1065	2260.983089595417	0.033706082361
10	1068	2300.517282839332	1.238667664292
10	1074	2329.525416195724	3.706140011342
10	1080	2354.396015027359	0.226238734577
10	1083	2368.089031847606	4.948561431009
10	1091	2377.735982556381	4.99354117216
10	1092	2378.980895872288	2.623872625139
10	1097	2395.48277681571	7.553529888995
10	1098	2396.45305297355	8.084430208647
10	1101	2400.795904980784	1.471446036093
10	1104	2417.034158885104	0.273115245814
10	1107	2424.497259350282	3.813335979898
10	1115	2438.795559827259	5.311658057667
10	1116	2447.249082013595	11.184960386309
10	1119	2449.292578768471	0.18235351691
10	1125	2456.404071396204	3.564631530201
10	1131	2487.407046783045	1.97720862163
11	1138	2500	0.1044
12	1138	2500	0.0464

