version 2
run experiments_medium_game_mode1-1163-20230311-09:44:02-14506
attr configname experiments_medium_game_mode1
attr datetime 20230311-09:44:02
attr experiment experiments_medium_game_mode1
attr inifile omnetpp.ini
attr iterationvars "$0=6.5, $1=7, $2=0"
attr iterationvarsf 6.5,7,0-
attr measurement "$0=6.5, $1=7, $2=0"
attr network Network
attr processid 14506
attr repetition 23
attr replication #23
attr resultdir results
attr runnumber 1163
attr seedset 23
param *.boss.arrival_mean 20
param *.boss.service_mean 6.5
param *.minion.arrival_mean 10
param *.minion.service_mean 7
param *.player.recover_rate_x 0
param **.minion.arrival_distribution 0
param **.minion.service_distribution 0
param **.boss.arrival_distribution 0
param **.boss.service_distribution 0

vector 0 Network.player minion_jobs_number_stat:vector ETV
attr source signal_minion_jobs_number
vector 1 Network.player minion_jobs_queue_number_stat:vector ETV
attr source signal_minion_jobs_queue_number
vector 2 Network.player boss_defeated_stat:vector ETV
attr source signal_boss_defeated
vector 3 Network.player boss_jobs_queue_number_stat:vector ETV
attr source signal_boss_jobs_queue_number
vector 4 Network.player boss_response_time_stat:vector ETV
attr source signal_boss_response_time
vector 5 Network.player minion_waiting_time_stat:vector ETV
attr source signal_minion_waiting_time
vector 6 Network.player boss_jobs_number_stat:vector ETV
attr source signal_boss_jobs_number
vector 7 Network.player minion_recovered_stat:vector ETV
attr source signal_minion_recovered
vector 8 Network.player boss_waiting_time_stat:vector ETV
attr source signal_boss_waiting_time
vector 9 Network.player minion_defeated_stat:vector ETV
attr source signal_minion_defeated
vector 10 Network.player minion_response_time_stat:vector ETV
attr source signal_minion_response_time
vector 11 Network.player minion_throughput:vector ETV
attr source signal_minion_throughput
vector 12 Network.player boss_throughput:vector ETV
attr source signal_boss_throughput
0	149	351.409402957577	15
0	154	370.777473116595	16
0	157	378.488229332204	17
0	160	391.078058889789	17
0	164	397.97888353961	16
0	169	413.278209427464	14
0	171	414.494555353125	15
0	180	434.906945211122	11
0	184	437.0912865596	11
0	187	438.966175237987	11
0	197	474.26066636912	6
0	200	480.065795011029	7
0	204	497.231086362742	8
0	210	512.07678505048	8
0	213	518.945557114013	9
0	223	544.217495540561	4
0	251	623.258149908015	1
0	253	627.605220061232	2
0	255	628.739338523454	3
0	257	630.00688768246	4
0	263	647.708836715768	5
0	266	652.384505225663	6
0	270	664.273518268876	6
0	272	666.288154121382	7
0	275	674.347348270964	7
0	277	674.425555408986	8
0	279	675.899256176373	9
0	284	700.760062923818	7
0	293	710.865589497593	8
0	296	724.828608809006	9
0	298	730.709122944328	10
0	301	731.848271043627	11
0	303	749.208050082966	12
0	307	760.492420943954	13
0	309	765.748292279184	14
0	317	773.490385942751	15
0	319	780.212356192121	16
0	321	787.654960188613	17
0	323	788.323488024282	18
0	327	797.85556685412	19
0	329	798.413781185913	20
0	331	811.294243343722	21
0	334	813.120722125919	22
0	337	813.826106259941	23
0	340	816.68276717622	23
0	344	822.977483888458	22
0	347	824.741693647157	22
0	351	830.931395268176	23
0	353	834.658069146762	24
0	366	852.005555808404	24
0	372	869.703654029265	21
0	374	874.30463029789	22
0	383	900.13962826778	16
0	385	904.889434806243	17
0	389	918.145831209117	16
0	391	918.838667467392	17
0	396	930.432183228779	15
0	398	934.017006555342	16
0	400	934.29913745827	17
0	405	954.82279783654	18
0	410	961.626707293467	19
0	412	968.280150071091	20
0	414	971.793722177781	21
0	416	974.151422278521	22
0	418	976.9459914137	23
0	420	978.394934346698	24
0	423	986.421336995351	24
0	425	987.326568608815	25
0	429	1001.036176797824	26
0	436	1016.748146059837	26
0	440	1020.510218106742	25
0	447	1033.999585119216	26
0	450	1043.756563453189	27
0	453	1051.620915736899	27
0	470	1088.408374112451	25
0	472	1090.63607194241	26
0	474	1095.507883561552	27
0	478	1108.151485015426	26
0	482	1119.147686660366	25
0	484	1119.446801457123	26
0	488	1123.425782964743	27
0	491	1126.517568189753	28
0	494	1131.053028010706	28
0	498	1151.019326435675	27
0	500	1152.885612349416	28
0	508	1169.793818019991	26
0	510	1172.430706127412	27
0	514	1176.785421987816	28
0	517	1183.600650372988	29
0	523	1198.630166700021	30
0	531	1232.03765163287	30
0	538	1249.526440271864	30
0	544	1254.309630554597	31
0	548	1263.305969080765	32
0	553	1267.464390136375	33
0	558	1282.299306329868	34
0	562	1287.698133590899	35
0	567	1293.601948324288	36
0	579	1323.21393942098	36
0	581	1329.212402018474	37
0	594	1363.610044111697	37
0	601	1369.946213549631	38
0	606	1382.460755315621	39
0	608	1384.501614716769	40
0	610	1387.20796223363	41
0	612	1387.325471994752	42
0	616	1393.722248568077	43
0	624	1425.17509749129	42
0	626	1425.196467057224	43
0	631	1453.829994229033	41
0	639	1490.750988451092	36
0	641	1491.240197052635	37
0	643	1496.543116832561	38
0	654	1525.251530865329	35
0	657	1526.464473774889	36
0	661	1534.15076374501	37
0	663	1538.820365119803	38
0	665	1540.897024957448	39
0	674	1561.95395168398	34
0	678	1565.233562054768	33
0	680	1566.62855413384	34
0	682	1575.187227612997	35
0	688	1588.772610919627	35
0	693	1595.274226142937	36
0	695	1601.208194458292	37
0	701	1622.917714708643	34
0	703	1623.024578515748	35
0	705	1625.660580289895	36
0	708	1633.273764316155	36
0	725	1678.424632632454	31
0	735	1697.969204775388	31
0	741	1707.218097800071	30
0	745	1712.437322052799	29
0	753	1734.191289418866	30
0	756	1740.94459471947	30
0	761	1746.967370311295	31
0	767	1757.017947266365	31
0	771	1768.826021958188	30
0	773	1771.13144291321	31
0	785	1800.299456396917	24
0	787	1802.158581269757	25
0	791	1805.623758910247	25
0	794	1806.711460360698	25
0	802	1817.133171535299	23
0	804	1825.812863346784	24
0	808	1827.864274009818	25
0	811	1833.258109085254	26
0	815	1838.116738802052	27
0	817	1848.699091873847	28
0	819	1848.942959488875	29
0	822	1855.407628382954	30
0	826	1863.515189732285	29
0	830	1867.17014373062	28
0	834	1883.03084663504	27
0	841	1918.146279260694	26
0	844	1924.655666632118	26
0	848	1925.505450703021	25
0	850	1925.829975339095	26
0	853	1935.226545363888	26
0	855	1935.58879072287	27
0	857	1935.70359640184	28
0	870	1977.715694456812	21
0	872	1999.230398836984	22
0	879	2011.407925776068	21
0	882	2034.806196267955	21
0	886	2055.555497537374	22
0	896	2089.775272916261	19
0	900	2090.88877186885	20
0	902	2095.110096941955	21
0	905	2102.439649176249	22
0	907	2106.021876466934	23
0	909	2109.291786164653	24
0	911	2114.395459772272	25
0	914	2115.168904883532	25
0	916	2116.267823271359	26
0	921	2122.901772868527	26
0	923	2123.062148492924	27
0	933	2148.457985402315	28
0	936	2151.828213339695	29
0	939	2160.367110380213	30
0	943	2162.102240589715	31
0	945	2162.187808588662	32
0	947	2166.088356402654	33
0	953	2189.531676080038	31
0	958	2194.994834075687	32
0	960	2197.694611454535	33
0	966	2209.48532261622	33
0	968	2211.311621876526	34
0	975	2221.220665968171	30
0	984	2243.478928328736	26
0	986	2246.199873964957	27
0	989	2250.397060634754	28
0	994	2260.291567120752	29
0	998	2273.128379691331	28
0	1000	2278.94146497112	29
0	1003	2283.518189796709	29
0	1007	2292.05464674669	28
0	1016	2322.682949916442	22
0	1025	2365.592731081332	19
0	1027	2367.633303705858	20
0	1036	2394.973432391493	20
0	1041	2396.233325765036	20
0	1043	2396.432639650882	21
0	1049	2406.724507506172	22
0	1051	2415.544886743746	23
0	1053	2427.390809023039	24
0	1055	2432.409733102057	25
0	1069	2460.200756621562	26
0	1071	2460.798367668201	27
0	1075	2463.437583920972	28
0	1079	2468.036643076955	29
0	1081	2468.171923063472	30
0	1083	2469.518480614558	31
0	1085	2483.984285460263	32
0	1089	2485.431446660174	33
0	1093	2495.212845808239	34
1	149	351.409402957577	14
1	154	370.777473116595	15
1	157	378.488229332204	16
1	158	388.709085362644	16
1	160	391.078058889789	16
1	161	392.351055350837	16
1	162	397.255036168408	15
1	164	397.97888353961	15
1	165	401.759651653148	15
1	166	409.49947237764	14
1	167	412.08533557296	13
1	169	413.278209427464	13
1	171	414.494555353125	14
1	172	420.355775132502	14
1	173	421.45765101234	13
1	174	425.159245771379	12
1	175	426.592619297007	11
1	176	427.128292305825	10
1	180	434.906945211122	10
1	182	436.806124058776	10
1	184	437.0912865596	10
1	185	438.032673156657	10
1	187	438.966175237987	10
1	188	440.712925391868	10
1	189	447.528362629693	9
1	190	448.311769027307	8
1	191	454.743648356425	7
1	192	455.166768511407	6
1	193	469.418472563053	5
1	197	474.26066636912	5
1	200	480.065795011029	6
1	204	497.231086362742	7
1	206	502.541315425242	7
1	210	512.07678505048	7
1	213	518.945557114013	8
1	214	523.147417703281	8
1	215	523.568257801968	7
1	216	526.232344191141	6
1	217	529.87064207342	5
1	218	532.753290251376	4
1	219	537.64246593352	3
1	223	544.217495540561	3
1	228	553.316631057164	3
1	229	556.022139564436	2
1	239	577.914711273548	1
1	243	590.896882194022	0
1	251	623.258149908015	0
1	253	627.605220061232	1
1	255	628.739338523454	2
1	257	630.00688768246	3
1	263	647.708836715768	4
1	266	652.384505225663	5
1	268	658.425693032214	5
1	270	664.273518268876	5
1	272	666.288154121382	6
1	273	668.983749617534	6
1	275	674.347348270964	6
1	277	674.425555408986	7
1	279	675.899256176373	8
1	280	676.167297185016	8
1	281	676.847001405246	7
1	282	690.921455264388	6
1	284	700.760062923818	6
1	293	710.865589497593	7
1	296	724.828608809006	8
1	298	730.709122944328	9
1	301	731.848271043627	10
1	303	749.208050082966	11
1	307	760.492420943954	12
1	309	765.748292279184	13
1	317	773.490385942751	14
1	319	780.212356192121	15
1	321	787.654960188613	16
1	323	788.323488024282	17
1	327	797.85556685412	18
1	329	798.413781185913	19
1	331	811.294243343722	20
1	334	813.120722125919	21
1	337	813.826106259941	22
1	338	815.43927423571	22
1	340	816.68276717622	22
1	341	817.658331432422	22
1	342	818.518508444549	21
1	344	822.977483888458	21
1	345	823.062490336083	21
1	347	824.741693647157	21
1	351	830.931395268176	22
1	353	834.658069146762	23
1	364	849.640266544118	23
1	366	852.005555808404	23
1	367	854.184840608629	23
1	368	857.536181039924	22
1	369	864.982920838655	21
1	370	866.322338872157	20
1	372	869.703654029265	20
1	374	874.30463029789	21
1	375	876.061059118396	21
1	376	877.632263140669	20
1	377	882.060427314342	19
1	378	893.182204513198	18
1	379	896.474278255527	17
1	380	897.564591176401	16
1	381	899.850606965214	15
1	383	900.13962826778	15
1	385	904.889434806243	16
1	386	908.767100238816	16
1	387	911.516068460667	15
1	389	918.145831209117	15
1	391	918.838667467392	16
1	392	923.216626582667	16
1	393	928.948021969114	15
1	394	930.05722290693	14
1	396	930.432183228779	14
1	398	934.017006555342	15
1	400	934.29913745827	16
1	405	954.82279783654	17
1	410	961.626707293467	18
1	412	968.280150071091	19
1	414	971.793722177781	20
1	416	974.151422278521	21
1	418	976.9459914137	22
1	420	978.394934346698	23
1	421	980.901762480106	23
1	423	986.421336995351	23
1	425	987.326568608815	24
1	429	1001.036176797824	25
1	434	1015.827218912852	25
1	436	1016.748146059837	25
1	437	1020.072814274529	25
1	438	1020.099253597487	24
1	440	1020.510218106742	24
1	447	1033.999585119216	25
1	450	1043.756563453189	26
1	451	1047.150584443668	26
1	453	1051.620915736899	26
1	466	1083.827772889334	26
1	467	1084.772272808731	25
1	468	1086.131299090185	24
1	470	1088.408374112451	24
1	472	1090.63607194241	25
1	474	1095.507883561552	26
1	475	1103.534254518982	26
1	476	1107.949201934823	25
1	478	1108.151485015426	25
1	479	1108.817047263969	25
1	480	1112.545225361671	24
1	482	1119.147686660366	24
1	484	1119.446801457123	25
1	488	1123.425782964743	26
1	491	1126.517568189753	27
1	492	1126.845268544117	27
1	494	1131.053028010706	27
1	495	1139.311443777809	27
1	496	1145.364138482465	26
1	498	1151.019326435675	26
1	500	1152.885612349416	27
1	504	1162.107564987508	27
1	505	1164.895286112546	26
1	506	1165.190892019183	25
1	508	1169.793818019991	25
1	510	1172.430706127412	26
1	514	1176.785421987816	27
1	517	1183.600650372988	28
1	523	1198.630166700021	29
1	526	1219.155496543053	29
1	531	1232.03765163287	29
1	532	1233.120208103653	29
1	538	1249.526440271864	29
1	544	1254.309630554597	30
1	548	1263.305969080765	31
1	553	1267.464390136375	32
1	558	1282.299306329868	33
1	562	1287.698133590899	34
1	567	1293.601948324288	35
1	577	1321.775848352519	35
1	579	1323.21393942098	35
1	581	1329.212402018474	36
1	582	1333.01730908842	36
1	594	1363.610044111697	36
1	601	1369.946213549631	37
1	606	1382.460755315621	38
1	608	1384.501614716769	39
1	610	1387.20796223363	40
1	612	1387.325471994752	41
1	616	1393.722248568077	42
1	621	1423.833450454088	42
1	622	1424.757759180599	41
1	624	1425.17509749129	41
1	626	1425.196467057224	42
1	627	1432.719183534696	42
1	628	1433.399095094628	41
1	629	1450.031854634241	40
1	631	1453.829994229033	40
1	632	1454.282981402618	40
1	633	1461.747118221171	39
1	634	1463.356220828011	38
1	635	1475.303645635627	37
1	636	1475.394217430928	36
1	637	1483.888865842863	35
1	639	1490.750988451092	35
1	641	1491.240197052635	36
1	643	1496.543116832561	37
1	644	1501.59857304672	37
1	645	1503.265425253497	36
1	649	1507.099131683029	35
1	650	1507.315131600843	34
1	654	1525.251530865329	34
1	657	1526.464473774889	35
1	661	1534.15076374501	36
1	663	1538.820365119803	37
1	665	1540.897024957448	38
1	667	1551.047981305761	38
1	668	1552.430053385285	37
1	669	1553.307759662268	36
1	670	1555.331199358723	35
1	671	1557.328652551061	34
1	672	1561.408142046926	33
1	674	1561.95395168398	33
1	675	1562.814322544428	33
1	676	1564.488905323587	32
1	678	1565.233562054768	32
1	680	1566.62855413384	33
1	682	1575.187227612997	34
1	683	1580.854125873333	34
1	688	1588.772610919627	34
1	693	1595.274226142937	35
1	695	1601.208194458292	36
1	696	1602.026130874947	36
1	697	1611.619763805298	35
1	698	1613.345790330197	34
1	699	1614.943250344243	33
1	701	1622.917714708643	33
1	703	1623.024578515748	34
1	705	1625.660580289895	35
1	706	1627.243555921664	35
1	708	1633.273764316155	35
1	712	1642.471272813006	35
1	713	1643.800595269485	34
1	714	1647.261202813961	33
1	721	1668.681423611492	32
1	722	1671.186078220485	31
1	723	1677.053632059522	30
1	725	1678.424632632454	30
1	729	1682.272898540644	30
1	735	1697.969204775388	30
1	738	1701.648606866975	30
1	739	1705.703164055414	29
1	741	1707.218097800071	29
1	742	1711.313367484557	29
1	743	1712.031829666443	28
1	745	1712.437322052799	28
1	753	1734.191289418866	29
1	754	1736.228282179333	29
1	756	1740.94459471947	29
1	761	1746.967370311295	30
1	765	1753.424153636382	30
1	767	1757.017947266365	30
1	768	1760.002751459233	30
1	769	1765.866300839298	29
1	771	1768.826021958188	29
1	773	1771.13144291321	30
1	774	1776.193091720577	30
1	775	1780.011087139976	29
1	776	1780.298620610137	28
1	777	1780.449428536101	27
1	778	1780.569643747727	26
1	779	1781.82430160613	25
1	780	1782.698359143783	24
1	781	1782.78009499406	23
1	785	1800.299456396917	23
1	787	1802.158581269757	24
1	789	1805.617385632497	24
1	791	1805.623758910247	24
1	792	1806.519436740369	24
1	794	1806.711460360698	24
1	798	1810.163959450799	24
1	799	1811.544514347799	23
1	800	1813.028062744738	22
1	802	1817.133171535299	22
1	804	1825.812863346784	23
1	808	1827.864274009818	24
1	811	1833.258109085254	25
1	815	1838.116738802052	26
1	817	1848.699091873847	27
1	819	1848.942959488875	28
1	822	1855.407628382954	29
1	823	1859.053444771787	29
1	824	1860.205972822452	28
1	826	1863.515189732285	28
1	827	1864.346517491748	28
1	828	1864.541723264965	27
1	830	1867.17014373062	27
1	831	1881.233861698568	27
1	832	1881.277093020425	26
1	834	1883.03084663504	26
1	838	1893.804917114379	26
1	839	1917.534631926739	25
1	841	1918.146279260694	25
1	842	1924.260429036147	25
1	844	1924.655666632118	25
1	845	1925.274883266549	25
1	846	1925.282980310885	24
1	848	1925.505450703021	24
1	850	1925.829975339095	25
1	851	1932.822651251788	25
1	853	1935.226545363888	25
1	855	1935.58879072287	26
1	857	1935.70359640184	27
1	858	1936.038195263806	27
1	859	1937.344396047281	26
1	860	1941.200835092316	25
1	864	1953.125272588325	24
1	865	1953.84138863545	23
1	866	1969.923573051702	22
1	867	1976.038586786697	21
1	868	1976.704338803317	20
1	870	1977.715694456812	20
1	872	1999.230398836984	21
1	873	1999.4999492068	21
1	874	2000.888125790748	20
1	879	2011.407925776068	20
1	880	2023.361557965467	20
1	882	2034.806196267955	20
1	886	2055.555497537374	21
1	888	2066.90328582268	21
1	892	2074.959680591584	20
1	893	2077.09676078872	19
1	894	2088.338976916114	18
1	896	2089.775272916261	18
1	900	2090.88877186885	19
1	902	2095.110096941955	20
1	905	2102.439649176249	21
1	907	2106.021876466934	22
1	909	2109.291786164653	23
1	911	2114.395459772272	24
1	912	2114.934289703996	24
1	914	2115.168904883532	24
1	916	2116.267823271359	25
1	917	2118.204181943867	25
1	921	2122.901772868527	25
1	923	2123.062148492924	26
1	933	2148.457985402315	27
1	936	2151.828213339695	28
1	939	2160.367110380213	29
1	943	2162.102240589715	30
1	945	2162.187808588662	31
1	947	2166.088356402654	32
1	949	2177.164381658892	32
1	950	2186.314658662034	31
1	951	2188.361911749925	30
1	953	2189.531676080038	30
1	958	2194.994834075687	31
1	960	2197.694611454535	32
1	961	2200.678363033961	32
1	966	2209.48532261622	32
1	968	2211.311621876526	33
1	969	2213.878517064499	33
1	970	2215.671019681114	32
1	971	2215.823112613524	31
1	972	2215.917952533845	30
1	973	2220.551369372255	29
1	975	2221.220665968171	29
1	976	2222.53682752345	29
1	977	2224.642331593909	28
1	978	2229.974815593257	27
1	979	2232.324738994565	26
1	980	2238.658380410287	25
1	984	2243.478928328736	25
1	986	2246.199873964957	26
1	989	2250.397060634754	27
1	994	2260.291567120752	28
1	995	2270.781433372965	28
1	996	2271.14927593645	27
1	998	2273.128379691331	27
1	1000	2278.94146497112	28
1	1001	2283.469135635718	28
1	1003	2283.518189796709	28
1	1004	2286.859702336884	28
1	1005	2287.826503409662	27
1	1007	2292.05464674669	27
1	1008	2293.681240128229	27
1	1009	2295.122281522265	26
1	1010	2306.397495951054	25
1	1011	2311.024872783543	24
1	1012	2313.077571855735	23
1	1013	2313.269468931259	22
1	1014	2315.308773880151	21
1	1016	2322.682949916442	21
1	1017	2336.140528791671	21
1	1018	2344.393914725809	20
1	1019	2348.034392757008	19
1	1023	2363.202815484841	18
1	1025	2365.592731081332	18
1	1027	2367.633303705858	19
1	1031	2381.25401453153	19
1	1036	2394.973432391493	19
1	1037	2395.525297559037	19
1	1041	2396.233325765036	19
1	1043	2396.432639650882	20
1	1049	2406.724507506172	21
1	1051	2415.544886743746	22
1	1053	2427.390809023039	23
1	1055	2432.409733102057	24
1	1069	2460.200756621562	25
1	1071	2460.798367668201	26
1	1075	2463.437583920972	27
1	1079	2468.036643076955	28
1	1081	2468.171923063472	29
1	1083	2469.518480614558	30
1	1085	2483.984285460263	31
1	1089	2485.431446660174	32
1	1093	2495.212845808239	33
2	150	359.909511249722	19
2	155	374.271358273388	20
2	181	436.311102111804	21
2	198	476.001377153863	22
2	205	502.16273997373	23
2	211	517.2548388608	24
2	224	544.372369150031	25
2	227	552.961308217016	26
2	232	562.406306710935	27
2	235	572.744315429843	28
2	238	577.898664092477	29
2	242	587.079458060197	30
2	260	633.204614458594	31
2	261	646.846001715914	32
2	264	648.768917293523	33
2	267	657.092322345956	34
2	291	708.994294986791	35
2	294	720.178257545975	36
2	299	731.676529993952	37
2	312	766.565114086936	38
2	313	769.73012940206	39
2	332	812.092507655363	40
2	335	813.805820433719	41
2	356	839.604917407482	42
2	361	844.539888434767	43
2	362	846.635832100784	44
2	363	849.083322320761	45
2	403	946.763310614249	46
2	408	960.213379053486	47
2	432	1011.332550051673	48
2	433	1013.679344219045	49
2	445	1029.492382417829	50
2	448	1039.95138501746	51
2	460	1061.473201620356	52
2	461	1063.465448963402	53
2	462	1064.039284666003	54
2	465	1082.872601705442	55
2	489	1123.430371644894	56
2	503	1162.097248961349	57
2	515	1182.133044848052	58
2	524	1214.314054584895	59
2	525	1217.084538615123	60
2	529	1224.194880536076	61
2	549	1264.206096015413	62
2	556	1279.571226149981	63
2	565	1290.8648538314	64
2	568	1293.836874200482	65
2	571	1303.943340695888	66
2	572	1306.788541128769	67
2	573	1313.688087041498	68
2	574	1317.616779515722	69
2	575	1319.097580173922	70
2	576	1319.131482930982	71
2	595	1367.028413997277	72
2	602	1372.739961185514	73
2	603	1376.286871955254	74
2	604	1376.723465415966	75
2	613	1387.692862691598	76
2	614	1388.701306394934	77
2	617	1409.550419744099	78
2	620	1413.331849525041	79
2	648	1506.738430231976	80
2	655	1526.457711435286	81
2	666	1550.802065110426	82
2	686	1587.673023925092	83
2	691	1595.198230312725	84
2	711	1638.640630381109	85
2	717	1658.934606270355	86
2	720	1667.489129954088	87
2	728	1680.570607831355	88
2	736	1698.535929318357	89
2	737	1699.374644051981	90
2	750	1732.236943811212	91
2	751	1733.748847717344	92
2	759	1746.188210879319	93
2	764	1750.877181272517	94
2	788	1805.509541665236	95
2	797	1809.839865884178	96
2	809	1829.911794767001	97
2	820	1852.551111072558	98
2	837	1889.82261920756	99
2	863	1952.34520967777	100
2	877	2010.493318694868	101
2	887	2062.418254824054	102
2	891	2074.712178994849	103
2	903	2097.390448453024	104
2	928	2140.040007913713	105
2	929	2144.071568465719	106
2	934	2151.763665289658	107
2	937	2153.007350471918	108
2	948	2175.460431126106	109
2	956	2193.107150326376	110
2	964	2205.600381110076	111
2	987	2250.023271305421	112
2	992	2258.486625113777	113
2	1022	2357.022768627819	114
2	1030	2370.125256040122	115
2	1034	2388.496674788814	116
2	1056	2433.111544235065	117
2	1063	2441.356324351791	118
2	1064	2442.078357147862	119
2	1065	2449.48452593451	120
2	1066	2453.928524806697	121
2	1067	2456.182167229153	122
2	1086	2484.190675297252	123
2	1087	2484.374177672029	124
3	150	359.909511249722	0
3	152	370.280462470171	0
3	155	374.271358273388	0
3	178	431.695952669617	0
3	181	436.311102111804	0
3	195	474.147170758762	0
3	198	476.001377153863	0
3	202	481.480691986513	0
3	205	502.16273997373	0
3	208	510.24761767968	0
3	211	517.2548388608	0
3	221	539.94106415391	0
3	224	544.372369150031	0
3	226	550.161117734889	0
3	227	552.961308217016	0
3	231	557.673753371508	0
3	232	562.406306710935	0
3	234	567.956109043973	0
3	235	572.744315429843	0
3	237	575.15768250753	0
3	238	577.898664092477	0
3	241	580.804250949928	0
3	242	587.079458060197	0
3	245	610.465880879532	0
3	247	612.633669047796	1
3	249	621.078268320571	2
3	259	631.86060202898	3
3	260	633.204614458594	3
3	261	646.846001715914	2
3	264	648.768917293523	1
3	267	657.092322345956	0
3	286	705.638349697495	0
3	288	706.665987554936	1
3	290	707.236119425818	2
3	291	708.994294986791	2
3	294	720.178257545975	1
3	299	731.676529993952	0
3	305	751.530606146162	0
3	311	766.408258009834	1
3	312	766.565114086936	1
3	313	769.73012940206	0
3	315	771.611960097243	0
3	325	795.70823994459	1
3	332	812.092507655363	1
3	335	813.805820433719	0
3	349	828.587694700615	0
3	355	835.695198389493	1
3	356	839.604917407482	1
3	358	841.24604760731	1
3	360	842.50405940262	2
3	361	844.539888434767	2
3	362	846.635832100784	1
3	363	849.083322320761	0
3	402	940.112090574546	0
3	403	946.763310614249	0
3	407	959.878403606532	0
3	408	960.213379053486	0
3	427	995.112056211267	0
3	431	1009.65256758039	1
3	432	1011.332550051673	1
3	433	1013.679344219045	0
3	442	1021.842623488271	0
3	444	1022.186221008682	1
3	445	1029.492382417829	1
3	448	1039.95138501746	0
3	455	1054.979966281205	0
3	457	1058.081305622748	1
3	459	1061.030308005097	2
3	460	1061.473201620356	2
3	461	1063.465448963402	1
3	462	1064.039284666003	0
3	464	1081.310136359704	0
3	465	1082.872601705442	0
3	486	1121.105252247653	0
3	489	1123.430371644894	0
3	502	1158.332650760421	0
3	503	1162.097248961349	0
3	512	1174.615342786981	0
3	515	1182.133044848052	0
3	519	1185.093400042341	0
3	521	1195.169701464507	1
3	524	1214.314054584895	1
3	525	1217.084538615123	0
3	528	1221.399061453619	0
3	529	1224.194880536076	0
3	534	1238.355828248703	0
3	536	1242.986426439704	1
3	540	1252.324057016316	2
3	542	1252.81041227046	3
3	546	1262.62134059803	4
3	549	1264.206096015413	4
3	551	1265.720375963125	4
3	555	1274.056234699699	5
3	556	1279.571226149981	5
3	560	1287.083915815885	5
3	564	1290.607169038882	6
3	565	1290.8648538314	6
3	568	1293.836874200482	5
3	570	1295.126534913334	5
3	571	1303.943340695888	5
3	572	1306.788541128769	4
3	573	1313.688087041498	3
3	574	1317.616779515722	2
3	575	1319.097580173922	1
3	576	1319.131482930982	0
3	584	1338.251262635238	0
3	586	1344.542083468712	1
3	588	1356.591721693122	2
3	590	1356.936211215667	3
3	592	1362.588580326634	4
3	595	1367.028413997277	4
3	597	1368.062489851398	4
3	599	1369.039045075951	5
3	602	1372.739961185514	5
3	603	1376.286871955254	4
3	604	1376.723465415966	3
3	613	1387.692862691598	2
3	614	1388.701306394934	1
3	617	1409.550419744099	0
3	619	1410.890176308349	0
3	620	1413.331849525041	0
3	647	1503.835474818698	0
3	648	1506.738430231976	0
3	652	1510.056245344328	0
3	655	1526.457711435286	0
3	659	1533.178873992729	0
3	666	1550.802065110426	0
3	685	1585.545449449645	0
3	686	1587.673023925092	0
3	690	1589.129463026233	0
3	691	1595.198230312725	0
3	710	1636.874992284231	0
3	711	1638.640630381109	0
3	716	1656.129627720702	0
3	717	1658.934606270355	0
3	719	1663.277407136755	0
3	720	1667.489129954088	0
3	727	1680.310452974527	0
3	728	1680.570607831355	0
3	731	1691.970041177819	0
3	733	1696.58688266278	1
3	736	1698.535929318357	1
3	737	1699.374644051981	0
3	747	1719.818776411279	0
3	749	1727.169572722012	1
3	750	1732.236943811212	1
3	751	1733.748847717344	0
3	758	1742.98295227048	0
3	759	1746.188210879319	0
3	763	1747.946618758475	0
3	764	1750.877181272517	0
3	783	1794.976383704355	0
3	788	1805.509541665236	0
3	796	1807.995699510076	0
3	797	1809.839865884178	0
3	806	1827.469922869166	0
3	809	1829.911794767001	0
3	813	1835.994284715025	0
3	820	1852.551111072558	0
3	836	1889.088743691529	0
3	837	1889.82261920756	0
3	862	1946.729588832254	0
3	863	1952.34520967777	0
3	876	2004.62429793366	0
3	877	2010.493318694868	0
3	884	2054.459779923515	0
3	887	2062.418254824054	0
3	890	2074.413488317576	0
3	891	2074.712178994849	0
3	898	2090.254935787689	0
3	903	2097.390448453024	0
3	919	2118.376201383707	0
3	925	2123.529966614318	1
3	927	2128.125391186792	2
3	928	2140.040007913713	2
3	929	2144.071568465719	1
3	931	2147.792189658182	1
3	934	2151.763665289658	1
3	937	2153.007350471918	0
3	941	2160.434193921626	0
3	948	2175.460431126106	0
3	955	2192.585280357836	0
3	956	2193.107150326376	0
3	963	2205.482816027784	0
3	964	2205.600381110076	0
3	982	2242.158972086936	0
3	987	2250.023271305421	0
3	991	2252.357253508174	0
3	992	2258.486625113777	0
3	1021	2349.783810657802	0
3	1022	2357.022768627819	0
3	1029	2369.802429443491	0
3	1030	2370.125256040122	0
3	1033	2381.692791746694	0
3	1034	2388.496674788814	0
3	1039	2395.775553395185	0
3	1045	2397.022295827693	1
3	1047	2397.996189404248	2
3	1056	2433.111544235065	2
3	1058	2433.487883053021	2
3	1060	2433.832617070752	3
3	1062	2437.057922805673	4
3	1063	2441.356324351791	4
3	1064	2442.078357147862	3
3	1065	2449.48452593451	2
3	1066	2453.928524806697	1
3	1067	2456.182167229153	0
3	1073	2461.518468346402	0
3	1077	2465.729271570205	1
3	1086	2484.190675297252	1
3	1087	2484.374177672029	0
3	1091	2493.276094709187	0
4	150	359.909511249722	23.910464468784
4	155	374.271358273388	3.990895803217
4	181	436.311102111804	4.615149442187
4	198	476.001377153863	1.854206395101
4	205	502.16273997373	20.682047987217
4	211	517.2548388608	7.00722118112
4	224	544.372369150031	4.431304996121
4	227	552.961308217016	2.800190482127
4	232	562.406306710935	4.732553339427
4	235	572.744315429843	4.78820638587
4	238	577.898664092477	2.740981584947
4	242	587.079458060197	6.275207110269
4	260	633.204614458594	22.738733579062
4	261	646.846001715914	34.212332668118
4	264	648.768917293523	27.690648972952
4	267	657.092322345956	25.231720316976
4	291	708.994294986791	3.355945289296
4	294	720.178257545975	13.512269991039
4	299	731.676529993952	24.440410568134
4	312	766.565114086936	15.034507940774
4	313	769.73012940206	3.321871392226
4	332	812.092507655363	40.48054755812
4	335	813.805820433719	18.097580489129
4	356	839.604917407482	11.017222706867
4	361	844.539888434767	8.844690045274
4	362	846.635832100784	5.389784493474
4	363	849.083322320761	6.579262918141
4	403	946.763310614249	6.651220039703
4	408	960.213379053486	0.334975446954
4	432	1011.332550051673	16.220493840406
4	433	1013.679344219045	4.026776638655
4	445	1029.492382417829	7.649758929558
4	448	1039.95138501746	17.765164008778
4	460	1061.473201620356	6.493235339151
4	461	1063.465448963402	5.384143340654
4	462	1064.039284666003	3.008976660906
4	465	1082.872601705442	1.562465345738
4	489	1123.430371644894	2.325119397241
4	503	1162.097248961349	3.764598200928
4	515	1182.133044848052	7.517702061071
4	524	1214.314054584895	29.220654542554
4	525	1217.084538615123	21.914837150616
4	529	1224.194880536076	2.795819082457
4	549	1264.206096015413	25.85026776671
4	556	1279.571226149981	36.584799710277
4	565	1290.8648538314	38.540796815084
4	568	1293.836874200482	41.026461930022
4	571	1303.943340695888	41.322000097858
4	572	1306.788541128769	41.068165165644
4	573	1313.688087041498	39.631852341799
4	574	1317.616779515722	30.532863699837
4	575	1319.097580173922	28.49041113504
4	576	1319.131482930982	24.004948017648
4	595	1367.028413997277	28.777151362039
4	602	1372.739961185514	28.197877716802
4	603	1376.286871955254	19.695150262132
4	604	1376.723465415966	19.787254200299
4	613	1387.692862691598	25.104282364964
4	614	1388.701306394934	20.638816543536
4	617	1409.550419744099	40.511374668148
4	620	1413.331849525041	2.441673216692
4	648	1506.738430231976	2.902955413278
4	655	1526.457711435286	16.401466090958
4	666	1550.802065110426	17.623191117697
4	686	1587.673023925092	2.127574475447
4	691	1595.198230312725	6.068767286492
4	711	1638.640630381109	1.765638096878
4	717	1658.934606270355	2.804978549653
4	720	1667.489129954088	4.211722817333
4	728	1680.570607831355	0.260154856828
4	736	1698.535929318357	6.565888140538
4	737	1699.374644051981	2.787761389201
4	750	1732.236943811212	12.418167399933
4	751	1733.748847717344	6.579274995332
4	759	1746.188210879319	3.205258608839
4	764	1750.877181272517	2.930562514042
4	788	1805.509541665236	10.533157960881
4	797	1809.839865884178	1.844166374102
4	809	1829.911794767001	2.441871897835
4	820	1852.551111072558	16.556826357533
4	837	1889.82261920756	0.733875516031
4	863	1952.34520967777	5.615620845516
4	877	2010.493318694868	5.869020761208
4	887	2062.418254824054	7.958474900539
4	891	2074.712178994849	0.298690677273
4	903	2097.390448453024	7.135512665335
4	928	2140.040007913713	21.663806530006
4	929	2144.071568465719	20.541601851401
4	934	2151.763665289658	23.638274102866
4	937	2153.007350471918	5.215160813736
4	948	2175.460431126106	15.02623720448
4	956	2193.107150326376	0.52186996854
4	964	2205.600381110076	0.117565082292
4	987	2250.023271305421	7.864299218485
4	992	2258.486625113777	6.129371605603
4	1022	2357.022768627819	7.238957970017
4	1030	2370.125256040122	0.322826596631
4	1034	2388.496674788814	6.80388304212
4	1056	2433.111544235065	37.33599083988
4	1063	2441.356324351791	44.334028524098
4	1064	2442.078357147862	44.082167743614
4	1065	2449.48452593451	15.996642881489
4	1066	2453.928524806697	20.095907735945
4	1067	2456.182167229153	19.12424442348
4	1086	2484.190675297252	22.67220695085
4	1087	2484.374177672029	18.644906101824
5	150	359.909511249722	104.38653835455
5	155	374.271358273388	105.81566117916
5	158	388.709085362644	102.2210119295
5	161	392.351055350837	92.430601209082
5	162	397.255036168408	91.402702458451
5	165	401.759651653148	93.042671265531
5	166	409.49947237764	99.606377690465
5	167	412.08533557296	99.953584226476
5	172	420.355775132502	100.10811205501
5	173	421.45765101234	99.115127533738
5	174	425.159245771379	99.746816212407
5	175	426.592619297007	97.247756055745
5	176	427.128292305825	91.129245524887
5	181	436.311102111804	90.90735563827
5	182	436.806124058776	85.396721101199
5	185	438.032673156657	67.752210686486
5	188	440.712925391868	69.935452275273
5	189	447.528362629693	69.040133297489
5	190	448.311769027307	57.233710137518
5	191	454.743648356425	56.764764816815
5	192	455.166768511407	41.888559083943
5	193	469.418472563053	54.923917209928
5	198	476.001377153863	44.305424484246
5	205	502.16273997373	67.255794762608
5	206	502.541315425242	65.450028865642
5	211	517.2548388608	78.288663622813
5	214	523.147417703281	49.000246944519
5	215	523.568257801968	49.307591432848
5	216	526.232344191141	46.166549180112
5	217	529.87064207342	48.389950086907
5	218	532.753290251376	35.522203888634
5	219	537.64246593352	27.39484825384
5	224	544.372369150031	32.295584099551
5	227	552.961308217016	34.015751103003
5	228	553.316631057164	13.375566903254
5	229	556.022139564436	11.804644023875
5	232	562.406306710935	12.245188976046
5	235	572.744315429843	15.070562058335
5	238	577.898664092477	9.942555048504
5	239	577.914711273548	2.757028766018
5	242	587.079458060197	6.275207110269
5	267	657.092322345956	33.834172437941
5	268	658.425693032214	30.820472970982
5	273	668.983749617534	40.24441109408
5	280	676.167297185016	46.160409502556
5	281	676.847001405246	29.138164689478
5	282	690.921455264388	38.536950038725
5	299	731.676529993952	67.403011725076
5	313	769.73012940206	103.44197528068
5	335	813.805820433719	139.45847216275
5	338	815.43927423571	141.01371882672
5	341	817.658331432422	141.75907525605
5	342	818.518508444549	117.75844552073
5	345	823.062490336083	117.42414063859
5	363	849.083322320761	138.21773282317
5	364	849.640266544118	124.81165773511
5	367	854.184840608629	123.4757176643
5	368	857.536181039924	125.6879099963
5	369	864.982920838655	115.77487075569
5	370	866.322338872157	114.791732726
5	375	876.061059118396	115.56863817444
5	376	877.632263140669	111.88397086148
5	377	882.060427314342	110.4484672171
5	378	893.182204513198	119.69181857045
5	379	896.474278255527	116.26192206341
5	380	897.564591176401	109.90963098779
5	381	899.850606965214	111.52711894093
5	386	908.767100238816	110.9115333847
5	387	911.516068460667	113.10228727475
5	392	923.216626582667	111.92238323895
5	393	928.948021969114	115.82729984319
5	394	930.05722290693	116.23111664699
5	403	946.763310614249	130.08054343803
5	408	960.213379053486	137.23589516503
5	421	980.901762480106	156.16006883295
5	433	1013.679344219045	185.09164951843
5	434	1015.827218912852	184.89582364468
5	437	1020.072814274529	185.41474512777
5	438	1020.099253597487	168.09369778908
5	448	1039.95138501746	170.2477309882
5	451	1047.150584443668	172.84595414578
5	462	1064.039284666003	163.89965639822
5	465	1082.872601705442	177.9831668992
5	466	1083.827772889334	165.68194168022
5	467	1084.772272808731	165.93360534134
5	468	1086.131299090185	155.69911586141
5	475	1103.534254518982	169.51724796364
5	476	1107.949201934823	173.65006447655
5	479	1108.817047263969	168.70495668942
5	480	1112.545225361671	157.72242752513
5	489	1123.430371644894	163.55196803836
5	492	1126.845268544117	165.21856125065
5	495	1139.311443777809	171.03129370672
5	496	1145.364138482465	173.57041630468
5	503	1162.097248961349	187.94582668283
5	504	1162.107564987508	185.16157357381
5	505	1164.895286112546	186.50035176585
5	506	1165.190892019183	178.76955502383
5	515	1182.133044848052	194.80647623924
5	525	1217.084538615123	221.97248240386
5	526	1219.155496543053	218.11931974523
5	529	1224.194880536076	207.44673447624
5	532	1233.120208103653	212.60998999691
5	576	1319.131482930982	297.28885944271
5	577	1321.775848352519	287.7762632333
5	582	1333.01730908842	289.26074563523
5	617	1409.550419744099	357.9295040072
5	620	1413.331849525041	358.35188324384
5	621	1423.833450454088	342.52331409438
5	622	1424.757759180599	336.34938506815
5	627	1432.719183534696	342.08311159229
5	628	1433.399095094628	337.89121153308
5	629	1450.031854634241	341.88036961881
5	632	1454.282981402618	335.13529474225
5	633	1461.747118221171	342.30031676405
5	634	1463.356220828011	342.25096858036
5	635	1475.303645635627	351.87786267088
5	636	1475.394217430928	348.87664924118
5	637	1483.888865842863	352.83583783216
5	644	1501.59857304672	350.57924661104
5	645	1503.265425253497	350.37981290408
5	648	1506.738430231976	348.40577947155
5	649	1507.099131683029	337.30531366304
5	650	1507.315131600843	334.88442547343
5	655	1526.457711435286	351.84236864831
5	666	1550.802065110426	374.01664312261
5	667	1551.047981305761	367.44733093277
5	668	1552.430053385285	367.33665334294
5	669	1553.307759662268	354.67759296225
5	670	1555.331199358723	333.9321379051
5	671	1557.328652551061	325.29100091819
5	672	1561.408142046926	323.05231379822
5	675	1562.814322544428	313.28788227256
5	676	1564.488905323587	310.17927476899
5	683	1580.854125873333	317.54815679257
5	686	1587.673023925092	320.20863378872
5	691	1595.198230312725	312.89892398286
5	696	1602.026130874947	314.32799728405
5	697	1611.619763805298	318.01781548101
5	698	1613.345790330197	290.13185090922
5	699	1614.943250344243	285.73084832577
5	706	1627.243555921664	288.99229328643
5	711	1638.640630381109	275.03058626941
5	712	1642.471272813006	272.52505926337
5	713	1643.800595269485	261.33983995386
5	714	1647.261202813961	262.75958809719
5	717	1658.934606270355	271.72664403673
5	720	1667.489129954088	280.16365795934
5	721	1668.681423611492	274.95917504341
5	722	1671.186078220485	260.29590191214
5	723	1677.053632059522	251.87853456823
5	728	1680.570607831355	255.37414077413
5	729	1682.272898540644	228.44290431161
5	737	1699.374644051981	208.62365560089
5	738	1701.648606866975	210.40840981434
5	739	1705.703164055414	209.16004722285
5	742	1711.313367484557	207.47789266586
5	743	1712.031829666443	201.97558432211
5	751	1733.748847717344	208.49731685201
5	754	1736.228282179333	209.76380840444
5	759	1746.188210879319	213.00933688659
5	764	1750.877181272517	216.72641752751
5	765	1753.424153636382	214.60378851658
5	768	1760.002751459233	219.10572650178
5	769	1765.866300839298	203.91234915532
5	774	1776.193091720577	210.95952966581
5	775	1780.011087139976	213.38253300614
5	776	1780.298620610137	205.11139299714
5	777	1780.449428536101	194.90397908646
5	778	1780.569643747727	191.7970328281
5	779	1781.82430160613	192.6948385799
5	780	1782.698359143783	187.42413300085
5	781	1782.78009499406	181.57190053577
5	788	1805.509541665236	182.59182695659
5	789	1805.617385632497	182.59280711675
5	792	1806.519436740369	180.85885645047
5	797	1809.839865884178	176.56610156802
5	798	1810.163959450799	173.28896716657
5	799	1811.544514347799	155.4148866271
5	800	1813.028062744738	149.75065560798
5	809	1829.911794767001	151.48716213455
5	820	1852.551111072558	172.24065809803
5	823	1859.053444771787	167.08340359397
5	824	1860.205972822452	162.23676804706
5	827	1864.346517491748	157.12841969168
5	828	1864.541723264965	152.10440121217
5	831	1881.233861698568	161.41508528729
5	832	1881.277093020425	147.08580360156
5	837	1889.82261920756	148.87802448809
5	838	1893.804917114379	150.8219648439
5	839	1917.534631926739	170.56726161544
5	842	1924.260429036147	176.31381027767
5	845	1925.274883266549	168.25693600018
5	846	1925.282980310885	156.4569583527
5	851	1932.822651251788	161.69120833858
5	858	1936.038195263806	141.06181155945
5	859	1937.344396047281	137.04493965036
5	860	1941.200835092316	139.04225382256
5	863	1952.34520967777	146.72145076752
5	864	1953.125272588325	146.41381222763
5	865	1953.84138863545	145.84568912537
5	866	1969.923573051702	152.7904015164
5	867	1976.038586786697	150.22572343991
5	868	1976.704338803317	149.23441593415
5	873	1999.4999492068	171.63567519698
5	874	2000.888125790748	167.63001670549
5	877	2010.493318694868	174.49903397984
5	880	2023.361557965467	185.24481916342
5	887	2062.418254824054	213.71916295021
5	888	2066.90328582268	217.9603263338
5	891	2074.712178994849	219.30455061189
5	892	2074.959680591584	211.4444908593
5	893	2077.09676078872	209.9266170581
5	894	2088.338976916114	205.30813028107
5	903	2097.390448453024	208.30170476149
5	912	2114.934289703996	196.7880104433
5	917	2118.204181943867	193.54851531175
5	937	2153.007350471918	227.5018997689
5	948	2175.460431126106	249.63045578701
5	949	2177.164381658892	241.937836295
5	950	2186.314658662034	250.72586793916
5	951	2188.361911749925	252.65831534808
5	956	2193.107150326376	246.37756149412
5	961	2200.678363033961	222.96266857715
5	964	2205.600381110076	206.36998227309
5	969	2213.878517064499	209.25421913084
5	970	2215.671019681114	204.26309390505
5	971	2215.823112613524	181.01691634557
5	972	2215.917952533845	161.45817261033
5	973	2220.551369372255	164.99587183488
5	976	2222.53682752345	148.12333920587
5	977	2224.642331593909	134.86705867765
5	978	2229.974815593257	139.71987980557
5	979	2232.324738994565	141.43596712571
5	980	2238.658380410287	143.54828346833
5	987	2250.023271305421	147.58362212917
5	992	2258.486625113777	152.46474864684
5	995	2270.781433372965	161.48964720831
5	996	2271.14927593645	156.75381616418
5	1001	2283.469135635718	168.30023075219
5	1004	2286.859702336884	170.59187906553
5	1005	2287.826503409662	169.45030202595
5	1008	2293.681240128229	170.7794672597
5	1009	2295.122281522265	172.06013302934
5	1010	2306.397495951054	157.93951054874
5	1011	2311.024872783543	159.19665944385
5	1012	2313.077571855735	152.71046147552
5	1013	2313.269468931259	152.83527500963
5	1014	2315.308773880151	153.20653329044
5	1017	2336.140528791671	173.95272020301
5	1018	2344.393914725809	178.30555832315
5	1019	2348.034392757008	158.50271667697
5	1022	2357.022768627819	164.43748826998
5	1023	2363.202815484841	168.20798140915
5	1030	2370.125256040122	172.43064458559
5	1031	2381.25401453153	175.77119850375
5	1034	2388.496674788814	179.01135217259
5	1037	2395.525297559037	184.21367568251
5	1067	2456.182167229153	234.96150126098
5	1087	2484.374177672029	242.21520558509
6	152	370.280462470171	1
6	178	431.695952669617	1
6	195	474.147170758762	1
6	202	481.480691986513	1
6	208	510.24761767968	1
6	221	539.94106415391	1
6	226	550.161117734889	1
6	231	557.673753371508	1
6	234	567.956109043973	1
6	237	575.15768250753	1
6	241	580.804250949928	1
6	245	610.465880879532	1
6	247	612.633669047796	2
6	249	621.078268320571	3
6	259	631.86060202898	4
6	286	705.638349697495	1
6	288	706.665987554936	2
6	290	707.236119425818	3
6	305	751.530606146162	1
6	311	766.408258009834	2
6	315	771.611960097243	1
6	325	795.70823994459	2
6	349	828.587694700615	1
6	355	835.695198389493	2
6	358	841.24604760731	2
6	360	842.50405940262	3
6	402	940.112090574546	1
6	407	959.878403606532	1
6	427	995.112056211267	1
6	431	1009.65256758039	2
6	442	1021.842623488271	1
6	444	1022.186221008682	2
6	455	1054.979966281205	1
6	457	1058.081305622748	2
6	459	1061.030308005097	3
6	464	1081.310136359704	1
6	486	1121.105252247653	1
6	502	1158.332650760421	1
6	512	1174.615342786981	1
6	519	1185.093400042341	1
6	521	1195.169701464507	2
6	528	1221.399061453619	1
6	534	1238.355828248703	1
6	536	1242.986426439704	2
6	540	1252.324057016316	3
6	542	1252.81041227046	4
6	546	1262.62134059803	5
6	551	1265.720375963125	5
6	555	1274.056234699699	6
6	560	1287.083915815885	6
6	564	1290.607169038882	7
6	570	1295.126534913334	6
6	584	1338.251262635238	1
6	586	1344.542083468712	2
6	588	1356.591721693122	3
6	590	1356.936211215667	4
6	592	1362.588580326634	5
6	597	1368.062489851398	5
6	599	1369.039045075951	6
6	619	1410.890176308349	1
6	647	1503.835474818698	1
6	652	1510.056245344328	1
6	659	1533.178873992729	1
6	685	1585.545449449645	1
6	690	1589.129463026233	1
6	710	1636.874992284231	1
6	716	1656.129627720702	1
6	719	1663.277407136755	1
6	727	1680.310452974527	1
6	731	1691.970041177819	1
6	733	1696.58688266278	2
6	747	1719.818776411279	1
6	749	1727.169572722012	2
6	758	1742.98295227048	1
6	763	1747.946618758475	1
6	783	1794.976383704355	1
6	796	1807.995699510076	1
6	806	1827.469922869166	1
6	813	1835.994284715025	1
6	836	1889.088743691529	1
6	862	1946.729588832254	1
6	876	2004.62429793366	1
6	884	2054.459779923515	1
6	890	2074.413488317576	1
6	898	2090.254935787689	1
6	919	2118.376201383707	1
6	925	2123.529966614318	2
6	927	2128.125391186792	3
6	931	2147.792189658182	2
6	941	2160.434193921626	1
6	955	2192.585280357836	1
6	963	2205.482816027784	1
6	982	2242.158972086936	1
6	991	2252.357253508174	1
6	1021	2349.783810657802	1
6	1029	2369.802429443491	1
6	1033	2381.692791746694	1
6	1039	2395.775553395185	1
6	1045	2397.022295827693	2
6	1047	2397.996189404248	3
6	1058	2433.487883053021	3
6	1060	2433.832617070752	4
6	1062	2437.057922805673	5
6	1073	2461.518468346402	1
6	1077	2465.729271570205	2
6	1091	2493.276094709187	1
7	152	370.280462470171	13
7	178	431.695952669617	14
7	195	474.147170758762	15
7	202	481.480691986513	16
7	208	510.24761767968	17
7	221	539.94106415391	18
7	226	550.161117734889	19
7	231	557.673753371508	20
7	234	567.956109043973	21
7	237	575.15768250753	22
7	241	580.804250949928	23
7	286	705.638349697495	24
7	305	751.530606146162	25
7	315	771.611960097243	26
7	349	828.587694700615	27
7	402	940.112090574546	28
7	407	959.878403606532	29
7	427	995.112056211267	30
7	442	1021.842623488271	31
7	455	1054.979966281205	32
7	464	1081.310136359704	33
7	486	1121.105252247653	34
7	502	1158.332650760421	35
7	512	1174.615342786981	36
7	519	1185.093400042341	37
7	528	1221.399061453619	38
7	534	1238.355828248703	39
7	584	1338.251262635238	40
7	619	1410.890176308349	41
7	647	1503.835474818698	42
7	652	1510.056245344328	43
7	659	1533.178873992729	44
7	685	1585.545449449645	45
7	690	1589.129463026233	46
7	710	1636.874992284231	47
7	716	1656.129627720702	48
7	719	1663.277407136755	49
7	727	1680.310452974527	50
7	731	1691.970041177819	51
7	747	1719.818776411279	52
7	758	1742.98295227048	53
7	763	1747.946618758475	54
7	783	1794.976383704355	55
7	796	1807.995699510076	56
7	806	1827.469922869166	57
7	813	1835.994284715025	58
7	836	1889.088743691529	59
7	862	1946.729588832254	60
7	876	2004.62429793366	61
7	884	2054.459779923515	62
7	890	2074.413488317576	63
7	898	2090.254935787689	64
7	919	2118.376201383707	65
7	941	2160.434193921626	66
7	955	2192.585280357836	67
7	963	2205.482816027784	68
7	982	2242.158972086936	69
7	991	2252.357253508174	70
7	1021	2349.783810657802	71
7	1029	2369.802429443491	72
7	1033	2381.692791746694	73
7	1039	2395.775553395185	74
7	1073	2461.518468346402	75
7	1091	2493.276094709187	76
8	152	370.280462470171	0
8	178	431.695952669617	0
8	195	474.147170758762	0
8	202	481.480691986513	0
8	208	510.24761767968	0
8	221	539.94106415391	0
8	226	550.161117734889	0
8	231	557.673753371508	0
8	234	567.956109043973	0
8	237	575.15768250753	0
8	241	580.804250949928	0
8	245	610.465880879532	0
8	260	633.204614458594	20.570945410798
8	261	646.846001715914	25.767733395343
8	264	648.768917293523	16.908315264543
8	286	705.638349697495	0
8	291	708.994294986791	2.328307431855
8	294	720.178257545975	12.942138120157
8	305	751.530606146162	0
8	312	766.565114086936	0.156856077102
8	315	771.611960097243	0
8	332	812.092507655363	16.384267710773
8	349	828.587694700615	0
8	356	839.604917407482	3.909719017989
8	361	844.539888434767	3.293840827457
8	362	846.635832100784	4.131772698164
8	402	940.112090574546	0
8	407	959.878403606532	0
8	427	995.112056211267	0
8	432	1011.332550051673	1.679982471283
8	442	1021.842623488271	0
8	445	1029.492382417829	7.306161409147
8	455	1054.979966281205	0
8	460	1061.473201620356	3.391895997608
8	461	1063.465448963402	2.435140958305
8	464	1081.310136359704	0
8	486	1121.105252247653	0
8	502	1158.332650760421	0
8	512	1174.615342786981	0
8	519	1185.093400042341	0
8	524	1214.314054584895	19.144353120388
8	528	1221.399061453619	0
8	534	1238.355828248703	0
8	549	1264.206096015413	21.219669575709
8	556	1279.571226149981	27.247169133665
8	565	1290.8648538314	38.05444156094
8	568	1293.836874200482	31.215533602452
8	571	1303.943340695888	38.222964732763
8	572	1306.788541128769	32.73230642907
8	573	1313.688087041498	26.604171225613
8	574	1317.616779515722	27.00961047684
8	575	1319.097580173922	23.971045260588
8	584	1338.251262635238	0
8	595	1367.028413997277	22.486330528565
8	602	1372.739961185514	16.148239492392
8	603	1376.286871955254	19.350660739587
8	604	1376.723465415966	14.134885089332
8	613	1387.692862691598	19.6303728402
8	614	1388.701306394934	19.662261318983
8	619	1410.890176308349	0
8	647	1503.835474818698	0
8	652	1510.056245344328	0
8	659	1533.178873992729	0
8	685	1585.545449449645	0
8	690	1589.129463026233	0
8	710	1636.874992284231	0
8	716	1656.129627720702	0
8	719	1663.277407136755	0
8	727	1680.310452974527	0
8	731	1691.970041177819	0
8	736	1698.535929318357	1.949046655577
8	747	1719.818776411279	0
8	750	1732.236943811212	5.0673710892
8	758	1742.98295227048	0
8	763	1747.946618758475	0
8	783	1794.976383704355	0
8	796	1807.995699510076	0
8	806	1827.469922869166	0
8	813	1835.994284715025	0
8	836	1889.088743691529	0
8	862	1946.729588832254	0
8	876	2004.62429793366	0
8	884	2054.459779923515	0
8	890	2074.413488317576	0
8	898	2090.254935787689	0
8	919	2118.376201383707	0
8	928	2140.040007913713	16.510041299395
8	929	2144.071568465719	15.946177278927
8	934	2151.763665289658	3.971475631476
8	941	2160.434193921626	0
8	955	2192.585280357836	0
8	963	2205.482816027784	0
8	982	2242.158972086936	0
8	991	2252.357253508174	0
8	1021	2349.783810657802	0
8	1029	2369.802429443491	0
8	1033	2381.692791746694	0
8	1039	2395.775553395185	0
8	1056	2433.111544235065	36.089248407372
8	1063	2441.356324351791	43.360134947543
8	1064	2442.078357147862	8.590474094841
8	1065	2449.48452593451	15.651908863758
8	1066	2453.928524806697	16.870602001024
8	1073	2461.518468346402	0
8	1086	2484.190675297252	18.461403727047
8	1091	2493.276094709187	0
9	158	388.709085362644	22
9	161	392.351055350837	23
9	162	397.255036168408	24
9	165	401.759651653148	25
9	166	409.49947237764	26
9	167	412.08533557296	27
9	172	420.355775132502	28
9	173	421.45765101234	29
9	174	425.159245771379	30
9	175	426.592619297007	31
9	176	427.128292305825	32
9	182	436.806124058776	33
9	185	438.032673156657	34
9	188	440.712925391868	35
9	189	447.528362629693	36
9	190	448.311769027307	37
9	191	454.743648356425	38
9	192	455.166768511407	39
9	193	469.418472563053	40
9	206	502.541315425242	41
9	214	523.147417703281	42
9	215	523.568257801968	43
9	216	526.232344191141	44
9	217	529.87064207342	45
9	218	532.753290251376	46
9	219	537.64246593352	47
9	228	553.316631057164	48
9	229	556.022139564436	49
9	239	577.914711273548	50
9	243	590.896882194022	51
9	268	658.425693032214	52
9	273	668.983749617534	53
9	280	676.167297185016	54
9	281	676.847001405246	55
9	282	690.921455264388	56
9	338	815.43927423571	57
9	341	817.658331432422	58
9	342	818.518508444549	59
9	345	823.062490336083	60
9	364	849.640266544118	61
9	367	854.184840608629	62
9	368	857.536181039924	63
9	369	864.982920838655	64
9	370	866.322338872157	65
9	375	876.061059118396	66
9	376	877.632263140669	67
9	377	882.060427314342	68
9	378	893.182204513198	69
9	379	896.474278255527	70
9	380	897.564591176401	71
9	381	899.850606965214	72
9	386	908.767100238816	73
9	387	911.516068460667	74
9	392	923.216626582667	75
9	393	928.948021969114	76
9	394	930.05722290693	77
9	421	980.901762480106	78
9	434	1015.827218912852	79
9	437	1020.072814274529	80
9	438	1020.099253597487	81
9	451	1047.150584443668	82
9	466	1083.827772889334	83
9	467	1084.772272808731	84
9	468	1086.131299090185	85
9	475	1103.534254518982	86
9	476	1107.949201934823	87
9	479	1108.817047263969	88
9	480	1112.545225361671	89
9	492	1126.845268544117	90
9	495	1139.311443777809	91
9	496	1145.364138482465	92
9	504	1162.107564987508	93
9	505	1164.895286112546	94
9	506	1165.190892019183	95
9	526	1219.155496543053	96
9	532	1233.120208103653	97
9	577	1321.775848352519	98
9	582	1333.01730908842	99
9	621	1423.833450454088	100
9	622	1424.757759180599	101
9	627	1432.719183534696	102
9	628	1433.399095094628	103
9	629	1450.031854634241	104
9	632	1454.282981402618	105
9	633	1461.747118221171	106
9	634	1463.356220828011	107
9	635	1475.303645635627	108
9	636	1475.394217430928	109
9	637	1483.888865842863	110
9	644	1501.59857304672	111
9	645	1503.265425253497	112
9	649	1507.099131683029	113
9	650	1507.315131600843	114
9	667	1551.047981305761	115
9	668	1552.430053385285	116
9	669	1553.307759662268	117
9	670	1555.331199358723	118
9	671	1557.328652551061	119
9	672	1561.408142046926	120
9	675	1562.814322544428	121
9	676	1564.488905323587	122
9	683	1580.854125873333	123
9	696	1602.026130874947	124
9	697	1611.619763805298	125
9	698	1613.345790330197	126
9	699	1614.943250344243	127
9	706	1627.243555921664	128
9	712	1642.471272813006	129
9	713	1643.800595269485	130
9	714	1647.261202813961	131
9	721	1668.681423611492	132
9	722	1671.186078220485	133
9	723	1677.053632059522	134
9	729	1682.272898540644	135
9	738	1701.648606866975	136
9	739	1705.703164055414	137
9	742	1711.313367484557	138
9	743	1712.031829666443	139
9	754	1736.228282179333	140
9	765	1753.424153636382	141
9	768	1760.002751459233	142
9	769	1765.866300839298	143
9	774	1776.193091720577	144
9	775	1780.011087139976	145
9	776	1780.298620610137	146
9	777	1780.449428536101	147
9	778	1780.569643747727	148
9	779	1781.82430160613	149
9	780	1782.698359143783	150
9	781	1782.78009499406	151
9	789	1805.617385632497	152
9	792	1806.519436740369	153
9	798	1810.163959450799	154
9	799	1811.544514347799	155
9	800	1813.028062744738	156
9	823	1859.053444771787	157
9	824	1860.205972822452	158
9	827	1864.346517491748	159
9	828	1864.541723264965	160
9	831	1881.233861698568	161
9	832	1881.277093020425	162
9	838	1893.804917114379	163
9	839	1917.534631926739	164
9	842	1924.260429036147	165
9	845	1925.274883266549	166
9	846	1925.282980310885	167
9	851	1932.822651251788	168
9	858	1936.038195263806	169
9	859	1937.344396047281	170
9	860	1941.200835092316	171
9	864	1953.125272588325	172
9	865	1953.84138863545	173
9	866	1969.923573051702	174
9	867	1976.038586786697	175
9	868	1976.704338803317	176
9	873	1999.4999492068	177
9	874	2000.888125790748	178
9	880	2023.361557965467	179
9	888	2066.90328582268	180
9	892	2074.959680591584	181
9	893	2077.09676078872	182
9	894	2088.338976916114	183
9	912	2114.934289703996	184
9	917	2118.204181943867	185
9	949	2177.164381658892	186
9	950	2186.314658662034	187
9	951	2188.361911749925	188
9	961	2200.678363033961	189
9	969	2213.878517064499	190
9	970	2215.671019681114	191
9	971	2215.823112613524	192
9	972	2215.917952533845	193
9	973	2220.551369372255	194
9	976	2222.53682752345	195
9	977	2224.642331593909	196
9	978	2229.974815593257	197
9	979	2232.324738994565	198
9	980	2238.658380410287	199
9	995	2270.781433372965	200
9	996	2271.14927593645	201
9	1001	2283.469135635718	202
9	1004	2286.859702336884	203
9	1005	2287.826503409662	204
9	1008	2293.681240128229	205
9	1009	2295.122281522265	206
9	1010	2306.397495951054	207
9	1011	2311.024872783543	208
9	1012	2313.077571855735	209
9	1013	2313.269468931259	210
9	1014	2315.308773880151	211
9	1017	2336.140528791671	212
9	1018	2344.393914725809	213
9	1019	2348.034392757008	214
9	1023	2363.202815484841	215
9	1031	2381.25401453153	216
9	1037	2395.525297559037	217
10	158	388.709085362644	120.25338826841
10	161	392.351055350837	105.86298191769
10	162	397.255036168408	97.334582026653
10	165	401.759651653148	95.907317943191
10	166	409.49947237764	100.78249199002
10	167	412.08533557296	102.19224088578
10	172	420.355775132502	108.22402378602
10	173	421.45765101234	101.20998793485
10	174	425.159245771379	102.81672229278
10	175	426.592619297007	101.18018973803
10	176	427.128292305825	97.783429064563
10	182	436.806124058776	91.402377585242
10	185	438.032673156657	86.62327019908
10	188	440.712925391868	70.432462921697
10	189	447.528362629693	76.750889513098
10	190	448.311769027307	69.823539695103
10	191	454.743648356425	63.665589466636
10	192	455.166768511407	57.187884971797
10	193	469.418472563053	56.140263135589
10	206	502.541315425242	67.63437021412
10	214	523.147417703281	84.181242465294
10	215	523.568257801968	49.421087043206
10	216	526.232344191141	51.971677822021
10	217	529.87064207342	49.804847062391
10	218	532.753290251376	51.272598264863
10	219	537.64246593352	40.411379570778
10	228	553.316631057164	34.371073943151
10	229	556.022139564436	16.081075410526
10	239	577.914711273548	9.958602229575
10	243	590.896882194022	10.092631244094
10	268	658.425693032214	35.167543124199
10	273	668.983749617534	41.378529556302
10	280	676.167297185016	47.427958661562
10	281	676.847001405246	46.840113722786
10	282	690.921455264388	43.21261854862
10	338	815.43927423571	141.09192596475
10	341	817.658331432422	143.23277602344
10	342	818.518508444549	142.61925226818
10	345	823.062490336083	122.30242741227
10	364	849.640266544118	138.77467704652
10	367	854.184840608629	129.35623179962
10	368	857.536181039924	126.8270580956
10	369	864.982920838655	133.13464979503
10	370	866.322338872157	117.11428878919
10	375	876.061059118396	124.53045297223
10	376	877.632263140669	117.13984219671
10	377	882.060427314342	116.31213503516
10	378	893.182204513198	121.57024441596
10	379	896.474278255527	122.98389231278
10	380	897.564591176401	117.35223498428
10	381	899.850606965214	112.1956467766
10	386	908.767100238816	120.44361221453
10	387	911.516068460667	113.66050160655
10	392	923.216626582667	124.80284539675
10	393	928.948021969114	117.65377862539
10	394	930.05722290693	116.93650078101
10	421	980.901762480106	157.92427859165
10	434	1015.827218912852	187.23952421224
10	437	1020.072814274529	189.14141900635
10	438	1020.099253597487	185.44118445072
10	451	1047.150584443668	177.4469304144
10	466	1083.827772889334	178.93833808309
10	467	1084.772272808731	166.62644159961
10	468	1086.131299090185	167.29263162279
10	475	1103.534254518982	173.1020712902
10	476	1107.949201934823	173.93219537948
10	479	1108.817047263969	174.5179098057
10	480	1112.545225361671	172.43313478712
10	492	1126.845268544117	166.96686493759
10	495	1139.311443777809	177.68473648434
10	496	1145.364138482465	177.08398841137
10	504	1162.107564987508	187.95614270899
10	505	1164.895286112546	187.94929469885
10	506	1165.190892019183	186.79595767249
10	526	1219.155496543053	224.04344033179
10	532	1233.120208103653	216.37206204382
10	577	1321.775848352519	299.93322486425
10	582	1333.01730908842	299.0177239692
10	621	1423.833450454088	368.85348417288
10	622	1424.757759180599	343.44762282089
10	627	1432.719183534696	344.31080942224
10	628	1433.399095094628	342.76302315222
10	629	1450.031854634241	354.52397107269
10	632	1454.282981402618	346.13149638719
10	633	1461.747118221171	342.5994315608
10	634	1463.356220828011	343.90941937089
10	635	1475.303645635627	354.19839338797
10	636	1475.394217430928	351.96843446618
10	637	1483.888865842863	357.37129765311
10	644	1501.59857304672	370.54554503601
10	645	1503.265425253497	352.24609881782
10	649	1507.099131683029	348.76648092261
10	650	1507.315131600843	337.52131358085
10	667	1551.047981305761	374.26255931794
10	668	1552.430053385285	368.8294030123
10	669	1553.307759662268	368.21435961993
10	670	1555.331199358723	356.7010326587
10	671	1557.328652551061	335.92959109744
10	672	1561.408142046926	329.37049041406
10	675	1562.814322544428	324.45849429573
10	676	1564.488905323587	314.96246505172
10	683	1580.854125873333	326.54449531874
10	696	1602.026130874947	319.72682454508
10	697	1611.619763805298	323.9216302144
10	698	1613.345790330197	319.74384200591
10	699	1614.943250344243	291.72931092326
10	706	1627.243555921664	298.03115390319
10	712	1642.471272813006	278.86122870131
10	713	1643.800595269485	273.85438171985
10	714	1647.261202813961	264.80044749834
10	721	1668.681423611492	281.35595161674
10	722	1671.186078220485	277.46382965241
10	723	1677.053632059522	266.16345575117
10	729	1682.272898540644	257.07643148342
10	738	1701.648606866975	210.89761841588
10	739	1705.703164055414	214.46296700278
10	742	1711.313367484557	214.770250652
10	743	1712.031829666443	208.19635484774
10	754	1736.228282179333	210.976751314
10	765	1753.424153636382	219.27338989137
10	768	1760.002751459233	221.18238633943
10	769	1765.866300839298	224.96927588185
10	774	1776.193091720577	214.2391400366
10	775	1780.011087139976	214.77752508521
10	776	1780.298620610137	213.6700664763
10	777	1780.449428536101	205.2622009231
10	778	1780.569643747727	195.02419429808
10	779	1781.82430160613	193.0516906865
10	780	1782.698359143783	193.56889611755
10	781	1782.78009499406	187.50586885112
10	789	1805.617385632497	182.69967092385
10	792	1806.519436740369	183.49485822462
10	798	1810.163959450799	176.89019513464
10	799	1811.544514347799	174.66952206357
10	800	1813.028062744738	156.89843502404
10	823	1859.053444771787	178.74299179726
10	824	1860.205972822452	168.23593164463
10	827	1864.346517491748	166.37731271636
10	828	1864.541723264965	157.32362546489
10	831	1881.233861698568	168.79653964577
10	832	1881.277093020425	161.45831660915
10	838	1893.804917114379	152.86032239491
10	839	1917.534631926739	174.55167965626
10	842	1924.260429036147	177.29305872485
10	845	1925.274883266549	177.32826450807
10	846	1925.282980310885	168.26503304452
10	851	1932.822651251788	163.9966292936
10	858	1936.038195263806	164.9067523506
10	859	1937.344396047281	142.36801234293
10	860	1941.200835092316	140.9013786954
10	864	1953.125272588325	147.50151367808
10	865	1953.84138863545	147.12992827475
10	866	1969.923573051702	161.92787354163
10	867	1976.038586786697	158.9054152514
10	868	1976.704338803317	150.89147545653
10	873	1999.4999492068	172.03002633763
10	874	2000.888125790748	173.02385178093
10	880	2023.361557965467	187.36727325044
10	888	2066.90328582268	218.20419394883
10	892	2074.959680591584	219.55205220863
10	893	2077.09676078872	213.58157105643
10	894	2088.338976916114	221.16883318549
10	912	2114.934289703996	225.84554601247
10	917	2118.204181943867	200.05790268317
10	949	2177.164381658892	251.3344063198
10	950	2186.314658662034	251.08811329815
10	951	2188.361911749925	252.77312102705
10	961	2200.678363033961	253.94877420171
10	969	2213.878517064499	214.64811822751
10	970	2215.671019681114	211.04672174745
10	971	2215.823112613524	204.41518683746
10	972	2215.917952533845	181.11175626589
10	973	2220.551369372255	166.09158944874
10	976	2222.53682752345	166.98132998608
10	977	2224.642331593909	150.22884327633
10	978	2229.974815593257	140.199542677
10	979	2232.324738994565	142.06980320688
10	980	2238.658380410287	147.76960854144
10	995	2270.781433372965	164.75955690603
10	996	2271.14927593645	161.8574897718
10	1001	2283.469135635718	169.07367586345
10	1004	2286.859702336884	171.69079745335
10	1005	2287.826503409662	171.5586801383
10	1008	2293.681240128229	175.30503874452
10	1009	2295.122281522265	172.22050865374
10	1010	2306.397495951054	183.33534745813
10	1011	2311.024872783543	162.56688738123
10	1012	2313.077571855735	161.24935851604
10	1013	2313.269468931259	152.90235855105
10	1014	2315.308773880151	154.87457995853
10	1017	2336.140528791671	174.03828820196
10	1018	2344.393914725809	182.20610613715
10	1019	2348.034392757008	181.94603635435
10	1023	2363.202815484841	170.617535127
10	1031	2381.25401453153	183.55940307699
10	1037	2395.525297559037	186.03997494282
11	1094	2500	0.0868
12	1094	2500	0.0496

