version 2
run experiments_medium_game_mode1-190-20230311-09:40:36-9624
attr configname experiments_medium_game_mode1
attr datetime 20230311-09:40:36
attr experiment experiments_medium_game_mode1
attr inifile omnetpp.ini
attr iterationvars "$0=5, $1=6, $2=0"
attr iterationvarsf 5,6,0-
attr measurement "$0=5, $1=6, $2=0"
attr network Network
attr processid 9624
attr repetition 10
attr replication #10
attr resultdir results
attr runnumber 190
attr seedset 10
param *.boss.arrival_mean 20
param *.boss.service_mean 5
param *.minion.arrival_mean 10
param *.minion.service_mean 6
param *.player.recover_rate_x 0
param **.minion.arrival_distribution 0
param **.minion.service_distribution 0
param **.boss.arrival_distribution 0
param **.boss.service_distribution 0

vector 0 Network.player boss_defeated_stat:vector ETV
attr source signal_boss_defeated
vector 1 Network.player boss_jobs_queue_number_stat:vector ETV
attr source signal_boss_jobs_queue_number
vector 2 Network.player boss_response_time_stat:vector ETV
attr source signal_boss_response_time
vector 3 Network.player boss_waiting_time_stat:vector ETV
attr source signal_boss_waiting_time
vector 4 Network.player minion_waiting_time_stat:vector ETV
attr source signal_minion_waiting_time
vector 5 Network.player minion_defeated_stat:vector ETV
attr source signal_minion_defeated
vector 6 Network.player minion_jobs_queue_number_stat:vector ETV
attr source signal_minion_jobs_queue_number
vector 7 Network.player minion_response_time_stat:vector ETV
attr source signal_minion_response_time
vector 8 Network.player minion_jobs_number_stat:vector ETV
attr source signal_minion_jobs_number
vector 9 Network.player boss_jobs_number_stat:vector ETV
attr source signal_boss_jobs_number
vector 10 Network.player minion_recovered_stat:vector ETV
attr source signal_minion_recovered
vector 11 Network.player minion_throughput:vector ETV
attr source signal_minion_throughput
vector 12 Network.player boss_throughput:vector ETV
attr source signal_boss_throughput
0	172	352.130554891321	21
0	173	352.927689561948	22
0	200	427.922919793437	23
0	209	445.483634846768	24
0	219	482.623445529356	25
0	240	540.103626412954	26
0	245	542.013573484638	27
0	252	557.490400795264	28
0	257	567.564240005452	29
0	289	646.909364677438	30
0	292	648.158271931021	31
0	302	671.369134696912	32
0	305	675.974953750651	33
0	312	696.644158598497	34
0	318	709.074450502644	35
0	319	709.99936697877	36
0	322	719.026131063424	37
0	327	721.782126274418	38
0	336	735.243146366857	39
0	347	746.149996156744	40
0	360	769.235542157537	41
0	369	774.842505725638	42
0	374	792.625640676717	43
0	375	795.211284919797	44
0	376	797.645015244678	45
0	403	864.02193246501	46
0	414	879.470842626838	47
0	421	883.519975797881	48
0	422	886.470748365759	49
0	423	889.271801544583	50
0	434	918.474901203841	51
0	442	932.95499797957	52
0	448	937.087903064749	53
0	451	947.606060377701	54
0	460	972.108184800654	55
0	480	1043.600519331667	56
0	483	1062.221824855093	57
0	500	1081.038108023486	58
0	501	1082.559230913177	59
0	515	1115.313296374902	60
0	519	1132.025868897564	61
0	534	1157.541163817664	62
0	537	1162.464871918121	63
0	547	1173.464526148622	64
0	550	1176.691994143815	65
0	555	1185.400207500366	66
0	587	1236.666448394572	67
0	602	1289.511834275859	68
0	646	1375.167026068546	69
0	647	1377.69368177718	70
0	658	1417.619102109601	71
0	671	1427.988499731937	72
0	674	1440.036739162998	73
0	681	1456.578615065705	74
0	684	1460.303509453435	75
0	687	1468.230073820141	76
0	688	1468.779253897226	77
0	689	1469.409634268323	78
0	692	1471.453467039569	79
0	712	1507.316685374657	80
0	715	1522.609004646605	81
0	716	1523.441984212979	82
0	720	1531.210066004728	83
0	730	1567.576103112115	84
0	739	1577.589139781897	85
0	742	1582.284351675076	86
0	758	1622.46648597697	87
0	764	1628.346919896378	88
0	773	1637.754840745315	89
0	782	1650.508499260933	90
0	786	1660.160481604531	91
0	801	1700.170177386142	92
0	804	1711.523055494311	93
0	805	1712.247154016955	94
0	812	1721.093426455114	95
0	819	1732.758106249994	96
0	827	1743.012305475494	97
0	839	1769.6307411483	98
0	842	1794.866584043362	99
0	843	1798.667656412332	100
0	861	1838.428117013513	101
0	877	1870.554069809943	102
0	894	1901.502933920921	103
0	908	1915.148518538969	104
0	924	1970.720577979858	105
0	939	1984.144565598209	106
0	956	2024.355491593225	107
0	972	2076.29129546134	108
0	979	2098.671634418581	109
0	996	2122.330683742636	110
0	1013	2171.702190838223	111
0	1017	2177.321565411803	112
0	1020	2184.459929526471	113
0	1026	2198.68276874378	114
0	1029	2206.276254096687	115
0	1036	2222.368884794303	116
0	1037	2227.071288079485	117
0	1052	2280.791082649515	118
0	1062	2292.542934325833	119
0	1083	2334.577343896308	120
0	1088	2336.882941233333	121
0	1101	2371.58812348353	122
0	1102	2372.698603190795	123
0	1117	2396.475871631733	124
0	1131	2428.323044603587	125
0	1141	2441.693118966685	126
0	1144	2448.594707483831	127
1	172	352.130554891321	1
1	173	352.927689561948	0
1	199	419.824288542282	0
1	200	427.922919793437	0
1	208	445.426883461239	0
1	209	445.483634846768	0
1	218	481.155473799364	0
1	219	482.623445529356	0
1	239	536.946986058516	0
1	240	540.103626412954	0
1	242	541.720738592907	0
1	244	541.736319955185	1
1	245	542.013573484638	1
1	247	545.749899725905	1
1	252	557.490400795264	1
1	257	567.564240005452	0
1	286	642.852204457678	0
1	288	646.904432915695	1
1	289	646.909364677438	1
1	292	648.158271931021	0
1	301	666.123998518003	0
1	302	671.369134696912	0
1	304	673.379073049835	0
1	305	675.974953750651	0
1	311	692.296201596188	0
1	312	696.644158598497	0
1	315	707.174758416955	0
1	317	707.316586279335	1
1	318	709.074450502644	1
1	319	709.99936697877	0
1	321	718.627327699064	0
1	322	719.026131063424	0
1	324	719.093978241006	0
1	327	721.782126274418	0
1	329	725.978438086876	0
1	336	735.243146366857	0
1	342	740.857761909457	0
1	347	746.149996156744	0
1	353	759.785179545867	0
1	360	769.235542157537	0
1	362	769.99705848	0
1	366	773.001749095169	1
1	368	773.957541426202	2
1	369	774.842505725638	2
1	373	780.867851638882	2
1	374	792.625640676717	2
1	375	795.211284919797	1
1	376	797.645015244678	0
1	398	853.673845421965	0
1	402	862.799389841877	1
1	403	864.02193246501	1
1	411	868.098797839271	1
1	414	879.470842626838	1
1	418	880.277491819915	1
1	420	882.177038103687	2
1	421	883.519975797881	2
1	422	886.470748365759	1
1	423	889.271801544583	0
1	433	912.935758198835	0
1	434	918.474901203841	0
1	441	932.202672012874	0
1	442	932.95499797957	0
1	447	936.657389288969	0
1	448	937.087903064749	0
1	450	946.297682443241	0
1	451	947.606060377701	0
1	455	960.738265453186	0
1	460	972.108184800654	0
1	479	1042.502595974247	0
1	480	1043.600519331667	0
1	482	1060.452690583967	0
1	483	1062.221824855093	0
1	491	1073.028472791389	0
1	493	1073.979749661901	1
1	500	1081.038108023486	1
1	501	1082.559230913177	0
1	514	1113.293494763991	0
1	515	1115.313296374902	0
1	518	1132.000155132253	0
1	519	1132.025868897564	0
1	531	1154.808071207918	0
1	534	1157.541163817664	0
1	536	1158.547296278815	0
1	537	1162.464871918121	0
1	540	1170.522199205898	0
1	544	1171.867477851254	1
1	546	1172.13455232041	2
1	547	1173.464526148622	2
1	550	1176.691994143815	1
1	555	1185.400207500366	0
1	586	1231.608305717097	0
1	587	1236.666448394572	0
1	601	1288.624242739881	0
1	602	1289.511834275859	0
1	643	1356.036850805122	0
1	645	1372.606487445524	1
1	646	1375.167026068546	1
1	647	1377.69368177718	0
1	655	1405.653119015198	0
1	657	1415.389328740932	1
1	658	1417.619102109601	1
1	662	1422.655085990457	1
1	664	1422.976987813847	2
1	668	1425.03253417898	3
1	671	1427.988499731937	3
1	673	1430.283059070374	3
1	674	1440.036739162998	3
1	680	1453.338074498799	3
1	681	1456.578615065705	3
1	683	1458.853815662555	3
1	684	1460.303509453435	3
1	687	1468.230073820141	2
1	688	1468.779253897226	1
1	689	1469.409634268323	0
1	691	1470.455632448849	0
1	692	1471.453467039569	0
1	703	1493.449335598144	0
1	705	1496.052380205525	1
1	712	1507.316685374657	1
1	714	1514.884379549808	1
1	715	1522.609004646605	1
1	716	1523.441984212979	0
1	719	1528.555324124831	0
1	720	1531.210066004728	0
1	727	1564.373909976404	0
1	729	1565.073784446035	1
1	730	1567.576103112115	1
1	732	1568.88161662372	1
1	739	1577.589139781897	1
1	742	1582.284351675076	0
1	757	1616.890074396541	0
1	758	1622.46648597697	0
1	761	1626.810805176556	0
1	764	1628.346919896378	0
1	768	1632.799960695581	0
1	772	1636.823592669957	1
1	773	1637.754840745315	1
1	782	1650.508499260933	0
1	785	1658.548708404319	0
1	786	1660.160481604531	0
1	792	1686.708174305305	0
1	794	1694.179105853179	1
1	801	1700.170177386142	1
1	803	1705.252233173425	1
1	804	1711.523055494311	1
1	805	1712.247154016955	0
1	811	1719.93445107556	0
1	812	1721.093426455114	0
1	814	1724.59685573388	0
1	819	1732.758106249994	0
1	826	1740.42133159935	0
1	827	1743.012305475494	0
1	832	1757.194056480443	0
1	834	1761.281828584842	1
1	836	1761.918109262225	2
1	839	1769.6307411483	2
1	842	1794.866584043362	1
1	843	1798.667656412332	0
1	860	1831.77425238343	0
1	861	1838.428117013513	0
1	876	1868.713537013691	0
1	877	1870.554069809943	0
1	893	1898.558444776125	0
1	894	1901.502933920921	0
1	907	1910.506246022932	0
1	908	1915.148518538969	0
1	923	1966.608133512492	0
1	924	1970.720577979858	0
1	934	1976.663636876505	0
1	939	1984.144565598209	0
1	955	2021.706676798273	0
1	956	2024.355491593225	0
1	971	2073.959348802285	0
1	972	2076.29129546134	0
1	976	2092.180436930985	0
1	979	2098.671634418581	0
1	993	2118.166042985004	0
1	996	2122.330683742636	0
1	1012	2169.154750841632	0
1	1013	2171.702190838223	0
1	1016	2177.061307273094	0
1	1017	2177.321565411803	0
1	1019	2178.914416394662	0
1	1020	2184.459929526471	0
1	1025	2195.814478513715	0
1	1026	2198.68276874378	0
1	1028	2200.177172437229	0
1	1029	2206.276254096687	0
1	1031	2214.891347264506	0
1	1033	2215.816986545285	1
1	1036	2222.368884794303	1
1	1037	2227.071288079485	0
1	1051	2280.78927417951	0
1	1052	2280.791082649515	0
1	1061	2288.659915777357	0
1	1062	2292.542934325833	0
1	1080	2325.886460952761	0
1	1083	2334.577343896308	0
1	1085	2335.729066720743	0
1	1088	2336.882941233333	0
1	1094	2363.241703758442	0
1	1096	2369.572912620892	1
1	1101	2371.58812348353	1
1	1102	2372.698603190795	0
1	1112	2385.090107213244	0
1	1117	2396.475871631733	0
1	1128	2420.381264551342	0
1	1131	2428.323044603587	0
1	1140	2438.055371942036	0
1	1141	2441.693118966685	0
1	1143	2446.879911890008	0
1	1144	2448.594707483831	0
2	172	352.130554891321	3.538716429871
2	173	352.927689561948	3.174547102125
2	200	427.922919793437	8.098631251155
2	209	445.483634846768	0.056751385529
2	219	482.623445529356	1.467971729992
2	240	540.103626412954	3.156640354438
2	245	542.013573484638	0.292834891731
2	252	557.490400795264	15.754080840079
2	257	567.564240005452	21.814340279547
2	289	646.909364677438	4.05716021976
2	292	648.158271931021	1.253839015326
2	302	671.369134696912	5.245136178909
2	305	675.974953750651	2.595880700816
2	312	696.644158598497	4.347957002309
2	318	709.074450502644	1.899692085689
2	319	709.99936697877	2.682780699435
2	322	719.026131063424	0.39880336436
2	327	721.782126274418	2.688148033412
2	336	735.243146366857	9.264708279981
2	347	746.149996156744	5.292234247287
2	360	769.235542157537	9.45036261167
2	369	774.842505725638	4.845447245638
2	374	792.625640676717	19.623891581548
2	375	795.211284919797	21.253743493595
2	376	797.645015244678	16.777163605796
2	403	864.02193246501	10.348087043045
2	414	879.470842626838	16.671452784961
2	421	883.519975797881	15.42117795861
2	422	886.470748365759	6.193256545844
2	423	889.271801544583	7.094763440896
2	434	918.474901203841	5.539143005006
2	442	932.95499797957	0.752325966696
2	448	937.087903064749	0.43051377578
2	451	947.606060377701	1.30837793446
2	460	972.108184800654	11.369919347468
2	480	1043.600519331667	1.09792335742
2	483	1062.221824855093	1.769134271126
2	500	1081.038108023486	8.009635232097
2	501	1082.559230913177	8.579481251276
2	515	1115.313296374902	2.019801610911
2	519	1132.025868897564	0.025713765311
2	534	1157.541163817664	2.733092609746
2	537	1162.464871918121	3.917575639306
2	547	1173.464526148622	2.942326942724
2	550	1176.691994143815	4.824516292561
2	555	1185.400207500366	13.265655179956
2	587	1236.666448394572	5.058142677475
2	602	1289.511834275859	0.887591535978
2	646	1375.167026068546	19.130175263424
2	647	1377.69368177718	5.087194331656
2	658	1417.619102109601	11.965983094403
2	671	1427.988499731937	12.599170991005
2	674	1440.036739162998	17.381653172541
2	681	1456.578615065705	33.601627251858
2	684	1460.303509453435	35.270975274455
2	687	1468.230073820141	37.947014749767
2	688	1468.779253897226	15.441179398427
2	689	1469.409634268323	10.555818605768
2	692	1471.453467039569	0.99783459072
2	712	1507.316685374657	13.867349776513
2	715	1522.609004646605	26.55662444108
2	716	1523.441984212979	8.557604663171
2	720	1531.210066004728	2.654741879897
2	730	1567.576103112115	3.202193135711
2	739	1577.589139781897	12.515355335862
2	742	1582.284351675076	13.402735051356
2	758	1622.46648597697	5.576411580429
2	764	1628.346919896378	1.536114719822
2	773	1637.754840745315	4.954880049734
2	782	1650.508499260933	13.684906590976
2	786	1660.160481604531	1.611773200212
2	801	1700.170177386142	13.462003080837
2	804	1711.523055494311	17.343949641132
2	805	1712.247154016955	6.99492084353
2	812	1721.093426455114	1.158975379554
2	819	1732.758106249994	8.161250516114
2	827	1743.012305475494	2.590973876144
2	839	1769.6307411483	12.436684667857
2	842	1794.866584043362	33.58475545852
2	843	1798.667656412332	36.749547150107
2	861	1838.428117013513	6.653864630083
2	877	1870.554069809943	1.840532796252
2	894	1901.502933920921	2.944489144796
2	908	1915.148518538969	4.642272516037
2	924	1970.720577979858	4.112444467366
2	939	1984.144565598209	7.480928721704
2	956	2024.355491593225	2.648814794952
2	972	2076.29129546134	2.331946659055
2	979	2098.671634418581	6.491197487596
2	996	2122.330683742636	4.164640757632
2	1013	2171.702190838223	2.547439996591
2	1017	2177.321565411803	0.260258138709
2	1020	2184.459929526471	5.545513131809
2	1026	2198.68276874378	2.868290230065
2	1029	2206.276254096687	6.099081659458
2	1036	2222.368884794303	7.477537529797
2	1037	2227.071288079485	11.2543015342
2	1052	2280.791082649515	0.001808470005
2	1062	2292.542934325833	3.883018548476
2	1083	2334.577343896308	8.690882943547
2	1088	2336.882941233333	1.15387451259
2	1101	2371.58812348353	8.346419725088
2	1102	2372.698603190795	3.125690569903
2	1117	2396.475871631733	11.385764418489
2	1131	2428.323044603587	7.941780052245
2	1141	2441.693118966685	3.637747024649
2	1144	2448.594707483831	1.714795593823
3	172	352.130554891321	2.377412431498
3	199	419.824288542282	0
3	208	445.426883461239	0
3	218	481.155473799364	0
3	239	536.946986058516	0
3	242	541.720738592907	0
3	245	542.013573484638	0.277253529453
3	252	557.490400795264	11.740501069359
3	286	642.852204457678	0
3	289	646.909364677438	0.004931761743
3	301	666.123998518003	0
3	304	673.379073049835	0
3	311	692.296201596188	0
3	315	707.174758416955	0
3	318	709.074450502644	1.757864223309
3	321	718.627327699064	0
3	324	719.093978241006	0
3	329	725.978438086876	0
3	342	740.857761909457	0
3	353	759.785179545867	0
3	362	769.99705848	0
3	369	774.842505725638	1.840756630469
3	374	792.625640676717	18.668099250515
3	375	795.211284919797	14.343433280915
3	398	853.673845421965	0
3	403	864.02193246501	1.222542623133
3	414	879.470842626838	11.372044787567
3	421	883.519975797881	3.242483977966
3	422	886.470748365759	4.293710262072
3	433	912.935758198835	0
3	441	932.202672012874	0
3	447	936.657389288969	0
3	450	946.297682443241	0
3	455	960.738265453186	0
3	479	1042.502595974247	0
3	482	1060.452690583967	0
3	491	1073.028472791389	0
3	500	1081.038108023486	7.058358361585
3	514	1113.293494763991	0
3	518	1132.000155132253	0
3	531	1154.808071207918	0
3	536	1158.547296278815	0
3	540	1170.522199205898	0
3	547	1173.464526148622	1.597048297368
3	550	1176.691994143815	4.557441823405
3	586	1231.608305717097	0
3	601	1288.624242739881	0
3	643	1356.036850805122	0
3	646	1375.167026068546	2.560538623022
3	655	1405.653119015198	0
3	658	1417.619102109601	2.229773368669
3	671	1427.988499731937	5.33341374148
3	674	1440.036739162998	17.059751349151
3	681	1456.578615065705	31.546080886725
3	684	1460.303509453435	30.020450383061
3	687	1468.230073820141	14.891999321342
3	688	1468.779253897226	9.925438234671
3	691	1470.455632448849	0
3	703	1493.449335598144	0
3	712	1507.316685374657	11.264305169132
3	715	1522.609004646605	7.724625096797
3	719	1528.555324124831	0
3	727	1564.373909976404	0
3	730	1567.576103112115	2.50231866608
3	739	1577.589139781897	8.707523158177
3	757	1616.890074396541	0
3	761	1626.810805176556	0
3	768	1632.799960695581	0
3	773	1637.754840745315	0.931248075358
3	785	1658.548708404319	0
3	792	1686.708174305305	0
3	801	1700.170177386142	5.991071532963
3	804	1711.523055494311	6.270822320886
3	811	1719.93445107556	0
3	814	1724.59685573388	0
3	826	1740.42133159935	0
3	832	1757.194056480443	0
3	839	1769.6307411483	8.348912563458
3	842	1794.866584043362	32.948474781137
3	860	1831.77425238343	0
3	876	1868.713537013691	0
3	893	1898.558444776125	0
3	907	1910.506246022932	0
3	923	1966.608133512492	0
3	934	1976.663636876505	0
3	955	2021.706676798273	0
3	971	2073.959348802285	0
3	976	2092.180436930985	0
3	993	2118.166042985004	0
3	1012	2169.154750841632	0
3	1016	2177.061307273094	0
3	1019	2178.914416394662	0
3	1025	2195.814478513715	0
3	1028	2200.177172437229	0
3	1031	2214.891347264506	0
3	1036	2222.368884794303	6.551898249018
3	1051	2280.78927417951	0
3	1061	2288.659915777357	0
3	1080	2325.886460952761	0
3	1085	2335.729066720743	0
3	1094	2363.241703758442	0
3	1101	2371.58812348353	2.015210862638
3	1112	2385.090107213244	0
3	1128	2420.381264551342	0
3	1140	2438.055371942036	0
3	1143	2446.879911890008	0
4	173	352.927689561948	3.587545911907
4	176	367.376450425266	0
4	179	384.176460755635	0
4	182	387.199074950632	0.763036263177
4	185	391.952056832985	0
4	188	399.675621198148	5.809505376189
4	191	405.29804909769	0.824074872862
4	194	410.436848643051	0
4	197	418.962261761174	0
4	200	427.922919793437	8.098631251155
4	203	433.967834275657	3.925163223923
4	206	441.443807283647	0
4	209	445.483634846768	0.056751385529
4	212	473.00260902335	0
4	215	476.006952100977	0.63767402124
4	221	493.286867919828	0
4	224	501.939221806893	0
4	227	509.038289566614	0
4	230	518.619025209951	0
4	233	528.562184431506	0
4	236	531.363241601417	0.953754980945
4	257	567.564240005452	19.134552767574
4	258	572.820980679328	19.96878983301
4	261	580.03246205652	21.250299400452
4	262	580.664834287873	20.879709236121
4	269	598.357302690541	24.205119399472
4	272	606.471023264855	24.69388253163
4	273	612.325607500276	20.417084033352
4	274	612.846789547575	17.600904627886
4	279	615.20920373163	15.464509987329
4	280	616.018790743241	1.963817587979
4	281	616.504042583924	2.302251444225
4	284	639.373022439287	0
4	292	648.158271931021	5.306067473343
4	293	649.428725796898	2.247172369408
4	296	658.412344747376	0
4	299	662.241880940892	0
4	302	671.369134696912	5.245136178909
4	305	675.974953750651	2.595880700816
4	312	696.644158598497	16.909068928704
4	313	705.284876462289	23.983361590902
4	319	709.99936697877	17.703165382582
4	322	719.026131063424	11.851372646469
4	327	721.782126274418	3.154798575354
4	336	735.243146366857	16.149168125851
4	337	735.264794558765	15.510737688298
4	338	736.558547632806	10.58010954593
4	347	746.149996156744	18.43545534155
4	350	751.386864734528	22.823706083013
4	351	755.20875825258	24.569436399951
4	360	769.235542157537	31.183625089036
4	376	797.645015244678	56.787253335221
4	377	803.583630672996	60.440418348295
4	380	812.928667226373	66.884800020987
4	381	818.302509663491	69.513771282706
4	382	819.778585755481	59.993406209614
4	387	827.564755410862	66.391279626237
4	390	836.337857471627	74.790946456144
4	391	838.891455334948	76.731694272906
4	396	853.329588883553	83.332530403553
4	423	889.271801544583	118.70612546219
4	426	896.941838651226	117.88545026104
4	429	909.355525153464	104.69013741866
4	430	911.976501744909	90.835024625273
4	431	912.606917920244	89.492447912252
4	434	918.474901203841	88.64099864593
4	435	925.558567198337	83.581817825072
4	436	927.240007492175	82.486047682361
4	439	932.015809946579	78.341964524614
4	442	932.95499797957	75.470924305732
4	445	934.948256900941	70.857730843582
4	448	937.087903064749	72.68180959024
4	451	947.606060377701	83.19600986209
4	452	947.945351797953	74.792799202265
4	453	960.39191975648	80.211399095629
4	460	972.108184800654	79.965051504461
4	461	973.032471968568	67.131327831711
4	462	973.572805276093	60.637047077258
4	463	976.948689993462	46.98435745593
4	464	978.920313021332	46.717641008458
4	465	986.510308425228	53.493232536519
4	468	989.723849385163	53.066460096194
4	469	990.7923480796	44.494665636359
4	470	992.084482276923	31.346216823737
4	471	1001.457733149284	34.419280778649
4	472	1005.92651294894	35.159751364249
4	473	1012.062232172861	23.233060702067
4	476	1033.712953239657	0
4	485	1063.897103797653	0
4	488	1069.431815990701	2.226758499567
4	501	1082.559230913177	8.295383892077
4	502	1089.621185070975	13.550762885832
4	503	1098.259429432626	20.026106604865
4	506	1100.820633055485	0
4	509	1101.908923238913	0.366402397108
4	512	1111.342333799117	0
4	515	1115.313296374902	2.019801610911
4	521	1137.351662066246	0
4	524	1143.757808395093	0
4	527	1148.722540957953	0
4	534	1157.541163817664	6.935563525877
4	537	1162.464871918121	7.656800710203
4	538	1162.919429214277	7.068458166113
4	555	1185.400207500366	26.852911221551
4	556	1185.509134320799	14.986935114901
4	563	1195.074461358898	23.310249338089
4	566	1199.620994777234	25.982576784269
4	569	1206.482429692738	23.438442151424
4	576	1215.715569842092	31.251969543409
4	583	1227.641460093034	41.346769236011
4	584	1229.376014308408	35.948220756798
4	587	1236.666448394572	42.714219373181
4	588	1242.845593956568	44.726929207086
4	591	1252.981043640007	48.739700401085
4	592	1253.467509241246	43.121188752567
4	593	1264.090358166422	49.757734215052
4	594	1265.00311614519	50.172274981674
4	595	1265.167941791837	45.218854869648
4	596	1269.06963557866	46.155339776849
4	597	1270.723743527087	47.430472726736
4	598	1274.568571938308	42.960266221211
4	599	1286.885243780256	38.1970389433
4	602	1289.511834275859	0.887591535978
4	605	1290.898130123353	0
4	608	1293.370749998608	1.547587875446
4	611	1296.241011070996	1.664608527469
4	614	1304.070144681555	0
4	617	1307.985075354321	2.144160210807
4	620	1319.757161600396	0
4	623	1323.432945874271	0
4	628	1332.288647387884	2.540023821735
4	629	1335.73610137999	5.053595544727
4	632	1340.718512005517	0
4	635	1345.620839481459	0.433398906974
4	638	1350.785968730655	0
4	641	1353.787760982314	2.915580131496
4	647	1377.69368177718	21.656830972058
4	650	1382.607022192613	0
4	653	1400.916642425074	0
4	689	1469.409634268323	63.756515253125
4	692	1471.453467039569	49.346110435775
4	693	1474.303510418001	49.33189585207
4	716	1523.441984212979	97.212455522056
4	717	1524.808635000373	73.336931297231
4	720	1531.210066004728	78.932231720165
4	721	1533.927493107916	70.962319433619
4	722	1542.983495020683	72.527862571834
4	723	1545.33978473639	59.823261487793
4	724	1552.624382924811	64.901844470988
4	725	1560.776198935789	72.932103242437
4	742	1582.284351675076	92.364944755884
4	745	1591.076657543712	97.627321945568
4	746	1592.710747189907	89.097251462801
4	747	1599.596046852152	95.292818841807
4	748	1601.081974493554	95.34325051122
4	749	1601.715530965011	73.16020684018
4	750	1604.779386005333	40.405476028929
4	753	1609.20138000365	37.421568280967
4	754	1612.450718043314	39.072117977874
4	755	1613.703545125765	38.836170382225
4	758	1622.46648597697	41.51638443561
4	759	1626.80813351255	37.396121217413
4	764	1628.346919896378	21.572028354793
4	782	1650.508499260933	33.618424864392
4	783	1655.754218166228	28.943412989672
4	786	1660.160481604531	33.249428392666
4	789	1683.566927124865	51.51930411034
4	790	1683.765851087566	50.965890391985
4	805	1712.247154016955	78.444449084933
4	806	1715.374241527904	70.826696912606
4	807	1716.653832008867	71.454010743035
4	812	1721.093426455114	71.055561257428
4	819	1732.758106249994	82.475101991092
4	824	1738.562345706086	80.013637301767
4	827	1743.012305475494	65.808486804115
4	828	1751.745908680039	65.037734374734
4	829	1755.953082678479	61.724829232056
4	830	1756.494856960392	60.742006840014
4	843	1798.667656412332	101.73908842187
4	846	1801.336340503038	84.26904268776
4	851	1815.743504043225	95.809052967665
4	858	1828.858131604426	104.26127587055
4	861	1838.428117013513	112.69009408148
4	862	1841.829743656258	109.29594123496
4	863	1845.254506772627	109.5354593476
4	864	1846.145508903674	108.99842533682
4	865	1850.214204330931	109.79287273158
4	870	1857.264552039707	100.07049555926
4	871	1861.052085031452	92.119333201112
4	874	1865.329855422973	75.497316787679
4	877	1870.554069809943	70.352144764108
4	878	1871.087026323257	69.689202403888
4	879	1872.049173388105	58.631905489156
4	882	1873.685699272126	52.839747222021
4	883	1878.649124198738	57.540124156665
4	886	1881.572538732274	57.124299934743
4	887	1886.118035708507	54.343783325077
4	890	1890.315064411652	38.551688424737
4	891	1894.080777174588	40.317676123323
4	894	1901.502933920921	39.887199556279
4	897	1904.981997257316	36.268460243625
4	898	1905.564509731416	32.961688533396
4	901	1906.359304310024	27.00323072314
4	902	1907.948665235169	21.260303551845
4	903	1908.312712044105	9.75426726798
4	908	1915.148518538969	12.706499486845
4	909	1918.213940146442	12.352625659716
4	910	1920.661700755353	10.884292759514
4	913	1927.907181322343	17.400935299411
4	916	1934.21912700426	12.036431567914
4	917	1940.434142093138	10.275528206878
4	920	1963.91214132306	0
4	926	1973.318976600654	0
4	929	1973.653274424004	0.29196465644
4	932	1976.346395841102	1.22981372012
4	939	1984.144565598209	7.480928721704
4	942	1986.279134581847	8.706167508586
4	943	1988.614834555181	9.538199363885
4	946	1989.384147909033	4.122204618149
4	947	1990.502914754062	1.199459893822
4	950	2015.354681933544	0
4	953	2020.548439221487	0
4	956	2024.355491593225	2.648814794952
4	959	2026.249793000474	0.523978263336
4	962	2032.01908448859	0
4	965	2055.502620266609	0
4	968	2062.748906771211	2.173403187524
4	974	2084.709706378142	0
4	979	2098.671634418581	6.491197487596
4	982	2101.129683203205	8.189838654369
4	985	2102.686481967037	3.649392552094
4	986	2105.207605592561	2.616467981542
4	991	2117.163646232912	0.79486596849
4	996	2122.330683742636	5.848082693867
4	997	2122.90009744061	4.734054455606
4	1000	2130.465517027631	11.141453385919
4	1001	2132.877728542461	9.203453897205
4	1004	2142.850386694104	4.809703748721
4	1007	2150.885637978048	0
4	1010	2167.367114672204	0
4	1013	2171.702190838223	2.547439996591
4	1022	2186.034893997877	0
4	1037	2227.071288079485	5.844208149164
4	1040	2238.889269602652	0
4	1043	2254.483068097837	0
4	1046	2271.075409916749	0
4	1049	2280.771826103366	0
4	1052	2280.791082649515	0.001808470005
4	1057	2286.070382686732	2.206297990739
4	1062	2292.542934325833	8.173184484543
4	1063	2294.534281585401	6.091785728519
4	1066	2298.258073725935	9.598157948578
4	1067	2298.397002536495	0.816756511807
4	1070	2309.781809862415	0
4	1083	2334.577343896308	21.804531141436
4	1088	2336.882941233333	23.361618005078
4	1089	2337.676526545951	19.343959092255
4	1092	2362.166132812157	43.297580359982
4	1102	2372.698603190795	46.812142238034
4	1103	2378.781870763394	50.875139330391
4	1104	2379.377874419823	43.64880769908
4	1105	2379.46915482122	42.603254387486
4	1110	2384.04283025808	44.239005758849
4	1117	2396.475871631733	33.234167873291
4	1122	2412.918370635235	41.770603815227
4	1123	2414.227731286153	43.075696906186
4	1124	2415.083498131437	34.196294349732
4	1131	2428.323044603587	45.13406034378
4	1132	2428.59577252109	43.505665307846
4	1135	2430.703003541926	44.305329782257
4	1136	2432.115044504843	40.996412294403
4	1141	2441.693118966685	41.101813068302
4	1144	2448.594707483831	41.078779131904
4	1147	2460.259395820249	42.129387104249
4	1152	2463.64472095643	43.263456405088
4	1157	2478.09439824328	54.215571103827
4	1160	2487.008265219154	56.974695845807
4	1163	2488.423213828884	52.87815609005
4	1164	2497.016444265253	58.961072323217
4	1165	2498.48434076982	51.604428879812
5	174	353.782187580069	36
5	177	375.582048238362	37
5	182	387.199074950632	38
5	183	390.246183207136	39
5	188	399.675621198148	40
5	191	405.29804909769	41
5	192	409.537481445019	42
5	195	418.258645999928	43
5	203	433.967834275657	44
5	204	437.254411561243	45
5	210	446.535262343067	46
5	215	476.006952100977	47
5	216	479.302861241079	48
5	222	494.87240031219	49
5	225	503.631927634728	50
5	228	512.535062131071	51
5	231	525.78991639243	52
5	236	531.363241601417	53
5	237	532.060144873955	54
5	258	572.820980679328	55
5	261	580.03246205652	56
5	262	580.664834287873	57
5	269	598.357302690541	58
5	272	606.471023264855	59
5	273	612.325607500276	60
5	274	612.846789547575	61
5	279	615.20920373163	62
5	280	616.018790743241	63
5	281	616.504042583924	64
5	282	618.843585354532	65
5	293	649.428725796898	66
5	294	655.607620992365	67
5	297	662.182527885854	68
5	313	705.284876462289	69
5	337	735.264794558765	70
5	338	736.558547632806	71
5	350	751.386864734528	72
5	351	755.20875825258	73
5	377	803.583630672996	74
5	380	812.928667226373	75
5	381	818.302509663491	76
5	382	819.778585755481	77
5	387	827.564755410862	78
5	390	836.337857471627	79
5	391	838.891455334948	80
5	396	853.329588883553	81
5	426	896.941838651226	82
5	429	909.355525153464	83
5	430	911.976501744909	84
5	431	912.606917920244	85
5	435	925.558567198337	86
5	436	927.240007492175	87
5	439	932.015809946579	88
5	445	934.948256900941	89
5	452	947.945351797953	90
5	453	960.39191975648	91
5	461	973.032471968568	92
5	462	973.572805276093	93
5	463	976.948689993462	94
5	464	978.920313021332	95
5	465	986.510308425228	96
5	468	989.723849385163	97
5	469	990.7923480796	98
5	470	992.084482276923	99
5	471	1001.457733149284	100
5	472	1005.92651294894	101
5	473	1012.062232172861	102
5	474	1025.92944278943	103
5	477	1035.405293866178	104
5	488	1069.431815990701	105
5	489	1072.215753688227	106
5	502	1089.621185070975	107
5	503	1098.259429432626	108
5	504	1100.252117201251	109
5	509	1101.908923238913	110
5	510	1103.850913642035	111
5	516	1119.180980166934	112
5	522	1138.371320010254	113
5	525	1147.518188630599	114
5	538	1162.919429214277	115
5	556	1185.509134320799	116
5	563	1195.074461358898	117
5	566	1199.620994777234	118
5	569	1206.482429692738	119
5	576	1215.715569842092	120
5	583	1227.641460093034	121
5	584	1229.376014308408	122
5	588	1242.845593956568	123
5	591	1252.981043640007	124
5	592	1253.467509241246	125
5	593	1264.090358166422	126
5	594	1265.00311614519	127
5	595	1265.167941791837	128
5	596	1269.06963557866	129
5	597	1270.723743527087	130
5	598	1274.568571938308	131
5	599	1286.885243780256	132
5	603	1289.630984896164	133
5	608	1293.370749998608	134
5	611	1296.241011070996	135
5	612	1301.392550582644	136
5	617	1307.985075354321	137
5	618	1318.356336651962	138
5	621	1322.083671003	139
5	628	1332.288647387884	140
5	629	1335.73610137999	141
5	630	1336.562467880351	142
5	635	1345.620839481459	143
5	636	1346.471268732074	144
5	641	1353.787760982314	145
5	648	1379.697756845056	146
5	651	1387.787260594776	147
5	693	1474.303510418001	148
5	717	1524.808635000373	149
5	721	1533.927493107916	150
5	722	1542.983495020683	151
5	723	1545.33978473639	152
5	724	1552.624382924811	153
5	725	1560.776198935789	154
5	745	1591.076657543712	155
5	746	1592.710747189907	156
5	747	1599.596046852152	157
5	748	1601.081974493554	158
5	749	1601.715530965011	159
5	750	1604.779386005333	160
5	753	1609.20138000365	161
5	754	1612.450718043314	162
5	755	1613.703545125765	163
5	759	1626.80813351255	164
5	783	1655.754218166228	165
5	789	1683.566927124865	166
5	790	1683.765851087566	167
5	806	1715.374241527904	168
5	807	1716.653832008867	169
5	824	1738.562345706086	170
5	828	1751.745908680039	171
5	829	1755.953082678479	172
5	830	1756.494856960392	173
5	846	1801.336340503038	174
5	851	1815.743504043225	175
5	858	1828.858131604426	176
5	862	1841.829743656258	177
5	863	1845.254506772627	178
5	864	1846.145508903674	179
5	865	1850.214204330931	180
5	870	1857.264552039707	181
5	871	1861.052085031452	182
5	874	1865.329855422973	183
5	878	1871.087026323257	184
5	879	1872.049173388105	185
5	882	1873.685699272126	186
5	883	1878.649124198738	187
5	886	1881.572538732274	188
5	887	1886.118035708507	189
5	890	1890.315064411652	190
5	891	1894.080777174588	191
5	897	1904.981997257316	192
5	898	1905.564509731416	193
5	901	1906.359304310024	194
5	902	1907.948665235169	195
5	903	1908.312712044105	196
5	909	1918.213940146442	197
5	910	1920.661700755353	198
5	913	1927.907181322343	199
5	916	1934.21912700426	200
5	917	1940.434142093138	201
5	918	1942.861768838633	202
5	921	1966.523412864416	203
5	929	1973.653274424004	204
5	932	1976.346395841102	205
5	942	1986.279134581847	206
5	943	1988.614834555181	207
5	946	1989.384147909033	208
5	947	1990.502914754062	209
5	948	1996.967663949244	210
5	951	2017.843966650807	211
5	959	2026.249793000474	212
5	960	2031.216919541762	213
5	963	2034.010781350173	214
5	968	2062.748906771211	215
5	969	2063.890077048756	216
5	982	2101.129683203205	217
5	985	2102.686481967037	218
5	986	2105.207605592561	219
5	991	2117.163646232912	220
5	997	2122.90009744061	221
5	1000	2130.465517027631	222
5	1001	2132.877728542461	223
5	1004	2142.850386694104	224
5	1005	2144.572080611094	225
5	1008	2155.369973379668	226
5	1014	2176.196187973409	227
5	1023	2188.523717618764	228
5	1038	2230.240818187199	229
5	1041	2241.726275894378	230
5	1044	2255.016229478609	231
5	1047	2274.598319321665	232
5	1057	2286.070382686732	233
5	1063	2294.534281585401	234
5	1066	2298.258073725935	235
5	1067	2298.397002536495	236
5	1068	2299.910578003579	237
5	1089	2337.676526545951	238
5	1092	2362.166132812157	239
5	1103	2378.781870763394	240
5	1104	2379.377874419823	241
5	1105	2379.46915482122	242
5	1110	2384.04283025808	243
5	1122	2412.918370635235	244
5	1123	2414.227731286153	245
5	1124	2415.083498131437	246
5	1132	2428.59577252109	247
5	1135	2430.703003541926	248
5	1136	2432.115044504843	249
5	1147	2460.259395820249	250
5	1152	2463.64472095643	251
5	1157	2478.09439824328	252
5	1160	2487.008265219154	253
5	1163	2488.423213828884	254
5	1164	2497.016444265253	255
5	1165	2498.48434076982	256
6	174	353.782187580069	0
6	176	367.376450425266	0
6	177	375.582048238362	0
6	179	384.176460755635	0
6	181	386.436038687455	1
6	182	387.199074950632	1
6	183	390.246183207136	0
6	185	391.952056832985	0
6	187	393.866115821959	1
6	188	399.675621198148	1
6	190	404.473974224828	1
6	191	405.29804909769	1
6	192	409.537481445019	0
6	194	410.436848643051	0
6	195	418.258645999928	0
6	197	418.962261761174	0
6	202	430.042671051734	1
6	203	433.967834275657	1
6	204	437.254411561243	0
6	206	441.443807283647	0
6	210	446.535262343067	0
6	212	473.00260902335	0
6	214	475.369278079737	1
6	215	476.006952100977	1
6	216	479.302861241079	0
6	221	493.286867919828	0
6	222	494.87240031219	0
6	224	501.939221806893	0
6	225	503.631927634728	0
6	227	509.038289566614	0
6	228	512.535062131071	0
6	230	518.619025209951	0
6	231	525.78991639243	0
6	233	528.562184431506	0
6	235	530.409486620472	1
6	236	531.363241601417	1
6	237	532.060144873955	0
6	249	548.429687237878	0
6	251	552.852190846318	1
6	254	558.782162656068	2
6	256	559.785125051752	3
6	258	572.820980679328	3
6	260	574.152183291069	3
6	261	580.03246205652	3
6	262	580.664834287873	2
6	264	581.777140733225	2
6	266	591.908523466924	3
6	268	595.245884919689	4
6	269	598.357302690541	4
6	271	599.744693744301	4
6	272	606.471023264855	4
6	273	612.325607500276	3
6	274	612.846789547575	2
6	276	614.054973155262	2
6	278	614.201791139699	3
6	279	615.20920373163	3
6	280	616.018790743241	2
6	281	616.504042583924	1
6	282	618.843585354532	0
6	284	639.373022439287	0
6	291	647.18155342749	1
6	293	649.428725796898	1
6	294	655.607620992365	0
6	296	658.412344747376	0
6	297	662.182527885854	0
6	299	662.241880940892	0
6	307	679.735089669793	1
6	309	681.301514871387	2
6	313	705.284876462289	2
6	326	719.754056870467	2
6	331	727.714540815194	3
6	333	728.563158651515	4
6	335	730.639321852629	5
6	337	735.264794558765	5
6	338	736.558547632806	4
6	340	738.051917068501	4
6	344	743.143212324701	5
6	346	746.043867205386	6
6	349	748.788738380785	7
6	350	751.386864734528	7
6	351	755.20875825258	6
6	355	761.173475784625	6
6	357	761.546911015483	7
6	359	762.159761062042	8
6	364	770.565676082391	9
6	371	779.056388390191	10
6	377	803.583630672996	10
6	379	804.665387734801	10
6	380	812.928667226373	10
6	381	818.302509663491	9
6	382	819.778585755481	8
6	384	821.141477119636	8
6	386	823.114470007992	9
6	387	827.564755410862	9
6	389	829.833902557911	9
6	390	836.337857471627	9
6	391	838.891455334948	8
6	393	841.976749373265	8
6	395	844.753959809814	9
6	396	853.329588883553	9
6	400	857.484073673838	9
6	405	864.090526057359	10
6	407	864.406093474509	11
6	409	864.410050515611	12
6	413	873.152552595688	13
6	416	880.180520660851	14
6	425	892.143133296193	15
6	426	896.941838651226	15
6	428	905.901144136857	15
6	429	909.355525153464	15
6	430	911.976501744909	14
6	431	912.606917920244	13
6	435	925.558567198337	12
6	436	927.240007492175	11
6	438	929.964332537532	11
6	439	932.015809946579	11
6	444	933.017075888709	11
6	445	934.948256900941	11
6	452	947.945351797953	10
6	453	960.39191975648	9
6	457	967.038452370635	9
6	459	970.766761584691	10
6	461	973.032471968568	10
6	462	973.572805276093	9
6	463	976.948689993462	8
6	464	978.920313021332	7
6	465	986.510308425228	6
6	467	988.829171470794	6
6	468	989.723849385163	6
6	469	990.7923480796	5
6	470	992.084482276923	4
6	471	1001.457733149284	3
6	472	1005.92651294894	2
6	473	1012.062232172861	1
6	474	1025.92944278943	0
6	476	1033.712953239657	0
6	477	1035.405293866178	0
6	485	1063.897103797653	0
6	487	1067.205057491134	1
6	488	1069.431815990701	1
6	489	1072.215753688227	0
6	495	1074.2638470211	0
6	497	1076.070422185143	1
6	499	1078.233322827761	2
6	502	1089.621185070975	2
6	503	1098.259429432626	1
6	504	1100.252117201251	0
6	506	1100.820633055485	0
6	508	1101.542520841805	1
6	509	1101.908923238913	1
6	510	1103.850913642035	0
6	512	1111.342333799117	0
6	516	1119.180980166934	0
6	521	1137.351662066246	0
6	522	1138.371320010254	0
6	524	1143.757808395093	0
6	525	1147.518188630599	0
6	527	1148.722540957953	0
6	529	1150.605600291787	1
6	533	1155.850971048164	2
6	538	1162.919429214277	2
6	542	1171.764212020809	2
6	549	1173.638417992965	3
6	552	1183.043987541314	4
6	554	1184.463600298683	5
6	556	1185.509134320799	5
6	558	1186.294690857023	5
6	560	1193.42779355161	6
6	562	1193.952229021391	7
6	563	1195.074461358898	7
6	565	1198.118664749482	7
6	566	1199.620994777234	7
6	568	1204.241343238922	7
6	569	1206.482429692738	7
6	571	1210.346320488679	7
6	573	1214.33262395137	8
6	575	1214.830841163516	9
6	576	1215.715569842092	9
6	578	1219.949086922189	9
6	580	1222.914295801811	10
6	582	1223.293270800351	11
6	583	1227.641460093034	11
6	584	1229.376014308408	10
6	588	1242.845593956568	9
6	590	1248.688204836956	9
6	591	1252.981043640007	9
6	592	1253.467509241246	8
6	593	1264.090358166422	7
6	594	1265.00311614519	6
6	595	1265.167941791837	5
6	596	1269.06963557866	4
6	597	1270.723743527087	3
6	598	1274.568571938308	2
6	599	1286.885243780256	1
6	603	1289.630984896164	0
6	605	1290.898130123353	0
6	607	1291.823162123162	1
6	608	1293.370749998608	1
6	610	1294.576402543527	1
6	611	1296.241011070996	1
6	612	1301.392550582644	0
6	614	1304.070144681555	0
6	616	1305.840915143514	1
6	617	1307.985075354321	1
6	618	1318.356336651962	0
6	620	1319.757161600396	0
6	621	1322.083671003	0
6	623	1323.432945874271	0
6	625	1329.748623566149	1
6	627	1330.682505835263	2
6	628	1332.288647387884	2
6	629	1335.73610137999	1
6	630	1336.562467880351	0
6	632	1340.718512005517	0
6	634	1345.187440574485	1
6	635	1345.620839481459	1
6	636	1346.471268732074	0
6	638	1350.785968730655	0
6	640	1350.872180850818	1
6	641	1353.787760982314	1
6	648	1379.697756845056	0
6	650	1382.607022192613	0
6	651	1387.787260594776	0
6	653	1400.916642425074	0
6	660	1422.107356603794	1
6	666	1424.971614565931	2
6	670	1426.229528690923	3
6	676	1451.471703703142	4
6	678	1452.277834284563	5
6	686	1462.965173674297	6
6	693	1474.303510418001	6
6	695	1485.516523248597	6
6	697	1487.722538453823	7
6	699	1487.844095693352	8
6	701	1489.919406919192	9
6	707	1503.613495727106	10
6	709	1504.303228010345	11
6	711	1505.738723982334	12
6	717	1524.808635000373	12
6	721	1533.927493107916	11
6	722	1542.983495020683	10
6	723	1545.33978473639	9
6	724	1552.624382924811	8
6	725	1560.776198935789	7
6	734	1571.779811722683	7
6	736	1573.37860006544	8
6	738	1574.86737474354	9
6	741	1580.95010154136	10
6	744	1589.412012295137	11
6	745	1591.076657543712	11
6	746	1592.710747189907	10
6	747	1599.596046852152	9
6	748	1601.081974493554	8
6	749	1601.715530965011	7
6	750	1604.779386005333	6
6	752	1606.774891541585	6
6	753	1609.20138000365	6
6	754	1612.450718043314	5
6	755	1613.703545125765	4
6	759	1626.80813351255	3
6	763	1626.911053211865	3
6	766	1632.047623014525	4
6	770	1633.802704932022	5
6	775	1644.547544615298	6
6	777	1645.199821265832	7
6	779	1650.037865197686	8
6	781	1650.283004258902	9
6	783	1655.754218166228	9
6	788	1677.203818671379	9
6	789	1683.566927124865	9
6	790	1683.765851087566	8
6	796	1694.228253446423	8
6	798	1695.752850120378	9
6	800	1696.928567990461	10
6	806	1715.374241527904	10
6	807	1716.653832008867	9
6	809	1717.067297815278	9
6	816	1725.738022932032	10
6	818	1732.5338024213	11
6	821	1735.719047425022	12
6	823	1737.147083566854	13
6	824	1738.562345706086	13
6	828	1751.745908680039	12
6	829	1755.953082678479	11
6	830	1756.494856960392	10
6	838	1768.93275183034	10
6	841	1789.832538635294	11
6	845	1800.201925045835	12
6	846	1801.336340503038	12
6	848	1801.397823919369	12
6	850	1813.417267898949	13
6	851	1815.743504043225	13
6	853	1820.845952050105	13
6	855	1821.109000042073	14
6	857	1824.448238797531	15
6	858	1828.858131604426	15
6	862	1841.829743656258	14
6	863	1845.254506772627	13
6	864	1846.145508903674	12
6	865	1850.214204330931	11
6	867	1851.763375986915	11
6	869	1853.763101051265	12
6	870	1857.264552039707	12
6	871	1861.052085031452	11
6	873	1861.615734364642	11
6	874	1865.329855422973	11
6	878	1871.087026323257	10
6	879	1872.049173388105	9
6	881	1872.60282119802	9
6	882	1873.685699272126	9
6	883	1878.649124198738	8
6	885	1879.356073586884	8
6	886	1881.572538732274	8
6	887	1886.118035708507	7
6	889	1886.688361683324	7
6	890	1890.315064411652	7
6	891	1894.080777174588	6
6	896	1902.442019052124	6
6	897	1904.981997257316	6
6	898	1905.564509731416	5
6	900	1905.861314486726	5
6	901	1906.359304310024	5
6	902	1907.948665235169	4
6	903	1908.312712044105	3
6	905	1909.777407995839	3
6	909	1918.213940146442	3
6	910	1920.661700755353	2
6	912	1922.182695436346	2
6	913	1927.907181322343	2
6	915	1930.15861388626	2
6	916	1934.21912700426	2
6	917	1940.434142093138	1
6	918	1942.861768838633	0
6	920	1963.91214132306	0
6	921	1966.523412864416	0
6	926	1973.318976600654	0
6	928	1973.361309767564	1
6	929	1973.653274424004	1
6	931	1975.116582120982	1
6	932	1976.346395841102	1
6	936	1977.572967073261	1
6	938	1979.076635191296	2
6	941	1985.261943290884	3
6	942	1986.279134581847	3
6	943	1988.614834555181	2
6	945	1989.30345486024	2
6	946	1989.384147909033	2
6	947	1990.502914754062	1
6	948	1996.967663949244	0
6	950	2015.354681933544	0
6	951	2017.843966650807	0
6	953	2020.548439221487	0
6	958	2025.725814737138	1
6	959	2026.249793000474	1
6	960	2031.216919541762	0
6	962	2032.01908448859	0
6	963	2034.010781350173	0
6	965	2055.502620266609	0
6	967	2060.575503583687	1
6	968	2062.748906771211	1
6	969	2063.890077048756	0
6	974	2084.709706378142	0
6	978	2092.939844548836	1
6	981	2099.037089414943	2
6	982	2101.129683203205	2
6	984	2102.591137611019	2
6	985	2102.686481967037	2
6	986	2105.207605592561	1
6	988	2116.368780264422	1
6	990	2116.482601048769	2
6	991	2117.163646232912	2
6	995	2119.324063641712	2
6	997	2122.90009744061	2
6	999	2123.674274645256	2
6	1000	2130.465517027631	2
6	1001	2132.877728542461	1
6	1003	2138.040682945383	1
6	1004	2142.850386694104	1
6	1005	2144.572080611094	0
6	1007	2150.885637978048	0
6	1008	2155.369973379668	0
6	1010	2167.367114672204	0
6	1014	2176.196187973409	0
6	1022	2186.034893997877	0
6	1023	2188.523717618764	0
6	1035	2221.227079930321	0
6	1038	2230.240818187199	0
6	1040	2238.889269602652	0
6	1041	2241.726275894378	0
6	1043	2254.483068097837	0
6	1044	2255.016229478609	0
6	1046	2271.075409916749	0
6	1047	2274.598319321665	0
6	1049	2280.771826103366	0
6	1054	2283.864084695993	1
6	1056	2284.36974984129	2
6	1057	2286.070382686732	2
6	1059	2288.442495856882	2
6	1063	2294.534281585401	2
6	1065	2297.580246024688	2
6	1066	2298.258073725935	2
6	1067	2298.397002536495	1
6	1068	2299.910578003579	0
6	1070	2309.781809862415	0
6	1072	2312.772812754872	1
6	1074	2313.521323228255	2
6	1076	2318.332567453696	3
6	1078	2318.868552452175	4
6	1082	2327.906731433003	5
6	1087	2336.865900433734	6
6	1089	2337.676526545951	6
6	1091	2339.803824499231	6
6	1092	2362.166132812157	6
6	1098	2371.147766820008	6
6	1100	2371.152034379967	7
6	1103	2378.781870763394	7
6	1104	2379.377874419823	6
6	1105	2379.46915482122	5
6	1107	2380.887203781705	5
6	1109	2383.188984259807	6
6	1110	2384.04283025808	6
6	1114	2386.397673759669	6
6	1116	2391.11863221044	7
6	1119	2400.591305898383	8
6	1121	2407.515928351927	9
6	1122	2412.918370635235	9
6	1123	2414.227731286153	8
6	1124	2415.083498131437	7
6	1126	2418.130008716	7
6	1130	2423.878827139453	8
6	1132	2428.59577252109	8
6	1134	2430.033569373347	8
6	1135	2430.703003541926	8
6	1136	2432.115044504843	7
6	1138	2435.545057738834	7
6	1146	2457.691458169595	8
6	1147	2460.259395820249	8
6	1149	2461.138953990144	8
6	1151	2462.293654580893	9
6	1152	2463.64472095643	9
6	1154	2473.557527797445	9
6	1156	2474.41331895417	10
6	1157	2478.09439824328	10
6	1159	2483.314383275376	10
6	1160	2487.008265219154	10
6	1162	2487.898238471302	10
6	1163	2488.423213828884	10
6	1164	2497.016444265253	9
6	1165	2498.48434076982	8
7	174	353.782187580069	4.442043930028
7	177	375.582048238362	8.205597813096
7	182	387.199074950632	3.022614194997
7	183	390.246183207136	3.810144519681
7	188	399.675621198148	7.723564365163
7	191	405.29804909769	11.431933275731
7	192	409.537481445019	5.063507220191
7	195	418.258645999928	7.821797356877
7	203	433.967834275657	14.143545733375
7	204	437.254411561243	7.211740509509
7	210	446.535262343067	1.108378881828
7	215	476.006952100977	3.004343077627
7	216	479.302861241079	3.933583161342
7	222	494.87240031219	1.585532392362
7	225	503.631927634728	1.692705827835
7	228	512.535062131071	3.496772564457
7	231	525.78991639243	7.170891182479
7	236	531.363241601417	2.801057169911
7	237	532.060144873955	1.650658253483
7	258	572.820980679328	24.39129344145
7	261	580.03246205652	27.180271210202
7	262	580.664834287873	21.882671631805
7	269	598.357302690541	38.572177638789
7	272	606.471023264855	32.318839973786
7	273	612.325607500276	30.548466767051
7	274	612.846789547575	20.938266080651
7	279	615.20920373163	19.963318811941
7	280	616.018790743241	16.27409699894
7	281	616.504042583924	2.449069428662
7	282	618.843585354532	4.641794214833
7	293	649.428725796898	6.57652133922
7	294	655.607620992365	8.426067564875
7	297	662.182527885854	3.770183138478
7	313	705.284876462289	25.549786792496
7	337	735.264794558765	16.170816317759
7	338	736.558547632806	16.804490762339
7	350	751.386864734528	23.672323919334
7	351	755.20875825258	26.645599601065
7	377	803.583630672996	62.725868763539
7	380	812.928667226373	69.785454901672
7	381	818.302509663491	72.258642458105
7	382	819.778585755481	70.989847374696
7	387	827.564755410862	67.779575864995
7	390	836.337857471627	75.164381687002
7	391	838.891455334948	77.344544319465
7	396	853.329588883553	91.169827821511
7	426	896.941838651226	126.37616256883
7	429	909.355525153464	130.29913676327
7	430	911.976501744909	107.31111401011
7	431	912.606917920244	91.465440800608
7	435	925.558567198337	95.724664640426
7	436	927.240007492175	85.26325811891
7	439	932.015809946579	87.261850136765
7	445	934.948256900941	77.464183227103
7	452	947.945351797953	83.535301282342
7	453	960.39191975648	87.239367160792
7	461	973.032471968568	80.889338672375
7	462	973.572805276093	67.671661139236
7	463	976.948689993462	64.012931794627
7	464	978.920313021332	48.9559804838
7	465	986.510308425228	54.307636412354
7	468	989.723849385163	56.706773496454
7	469	990.7923480796	54.134958790631
7	470	992.084482276923	45.786799833682
7	471	1001.457733149284	40.719467696098
7	472	1005.92651294894	38.888060578305
7	473	1012.062232172861	41.29547058817
7	474	1025.92944278943	37.100271318636
7	477	1035.405293866178	1.692340626521
7	488	1069.431815990701	5.534712193048
7	489	1072.215753688227	5.010696197093
7	502	1089.621185070975	15.357338049875
7	503	1098.259429432626	22.189007247483
7	504	1100.252117201251	22.01879437349
7	509	1101.908923238913	1.088290183428
7	510	1103.850913642035	2.30839280023
7	516	1119.180980166934	5.887485402943
7	522	1138.371320010254	1.019657944008
7	525	1147.518188630599	3.760380235506
7	538	1162.919429214277	8.111358006359
7	556	1185.509134320799	26.961838041984
7	563	1195.074461358898	24.552262153
7	566	1199.620994777234	27.856782756425
7	569	1206.482429692738	32.844011699773
7	576	1215.715569842092	32.671582300778
7	583	1227.641460093034	43.177859794351
7	584	1229.376014308408	43.081323451385
7	588	1242.845593956568	48.893364935177
7	591	1252.981043640007	54.862378890525
7	592	1253.467509241246	49.226166002324
7	593	1264.090358166422	53.744037677743
7	594	1265.00311614519	50.67049219382
7	595	1265.167941791837	50.337100628321
7	596	1269.06963557866	49.120548656471
7	597	1270.723743527087	47.809447725276
7	598	1274.568571938308	51.275301137957
7	599	1286.885243780256	55.276938063159
7	603	1289.630984896164	1.006742156283
7	608	1293.370749998608	2.472619875255
7	611	1296.241011070996	4.417848947834
7	612	1301.392550582644	6.816148039117
7	617	1307.985075354321	3.914930672766
7	618	1318.356336651962	12.515421508448
7	621	1322.083671003	2.326509402604
7	628	1332.288647387884	8.855701513613
7	629	1335.73610137999	5.987477813841
7	630	1336.562467880351	5.879962045088
7	635	1345.620839481459	4.902327475942
7	636	1346.471268732074	1.283828157589
7	641	1353.787760982314	3.001792251659
7	648	1379.697756845056	23.660906039934
7	651	1387.787260594776	5.180238402163
7	693	1474.303510418001	52.196153814207
7	717	1524.808635000373	98.57910630945
7	721	1533.927493107916	81.649658823353
7	722	1542.983495020683	80.018321346386
7	723	1545.33978473639	74.884152287541
7	724	1552.624382924811	67.107859676214
7	725	1560.776198935789	73.053660481966
7	745	1591.076657543712	101.15725062452
7	746	1592.710747189907	99.261411591763
7	747	1599.596046852152	95.982551125046
7	748	1601.081974493554	96.778746483209
7	749	1601.715530965011	95.976806982677
7	750	1604.779386005333	76.224061880502
7	753	1609.20138000365	44.827470027246
7	754	1612.450718043314	40.670906320631
7	755	1613.703545125765	40.324945060325
7	759	1626.80813351255	45.85803197119
7	783	1655.754218166228	38.864143769687
7	789	1683.566927124865	56.655873913
7	790	1683.765851087566	51.718228073041
7	806	1715.374241527904	81.571536595882
7	807	1716.653832008867	72.106287393569
7	824	1738.562345706086	88.279341447184
7	828	1751.745908680039	74.54209000866
7	829	1755.953082678479	69.244908373174
7	830	1756.494856960392	62.266603513969
7	846	1801.336340503038	104.40777251258
7	851	1815.743504043225	98.676206227947
7	858	1828.858131604426	108.92368052887
7	862	1841.829743656258	116.09172072423
7	863	1845.254506772627	112.72070435133
7	864	1846.145508903674	110.42646147865
7	865	1850.214204330931	113.06712076408
7	870	1857.264552039707	116.84322044036
7	871	1861.052085031452	103.85802855101
7	874	1865.329855422973	96.397103592633
7	878	1871.087026323257	70.885101277422
7	879	1872.049173388105	70.651349468736
7	882	1873.685699272126	60.268431373177
7	883	1878.649124198738	57.803172148633
7	886	1881.572538732274	60.463538690201
7	887	1886.118035708507	61.669796910976
7	890	1890.315064411652	58.540812028222
7	891	1894.080777174588	42.317401187673
7	897	1904.981997257316	43.366262892674
7	898	1905.564509731416	36.850972717725
7	901	1906.359304310024	33.756483112004
7	902	1907.948665235169	28.592591648285
7	903	1908.312712044105	21.624350360781
7	909	1918.213940146442	15.771921094318
7	910	1920.661700755353	14.800386268627
7	913	1927.907181322343	18.129773326504
7	916	1934.21912700426	23.712880981328
7	917	1940.434142093138	18.251446656792
7	918	1942.861768838633	12.703154952373
7	921	1966.523412864416	2.611271541356
7	929	1973.653274424004	0.33429782335
7	932	1976.346395841102	2.985086073538
7	942	1986.279134581847	9.615497705342
7	943	1988.614834555181	11.04186748192
7	946	1989.384147909033	10.307512717737
7	947	1990.502914754062	5.240971463178
7	948	1996.967663949244	7.664209089004
7	951	2017.843966650807	2.489284717263
7	959	2026.249793000474	4.543116202201
7	960	2031.216919541762	5.491104804624
7	963	2034.010781350173	1.991696861583
7	968	2062.748906771211	7.246286504602
7	969	2063.890077048756	3.314573465069
7	982	2101.129683203205	8.94924627222
7	985	2102.686481967037	9.746637418201
7	986	2105.207605592561	6.170516177618
7	991	2117.163646232912	14.572508621893
7	997	2122.90009744061	6.417496391841
7	1000	2130.465517027631	12.299474042627
7	1001	2132.877728542461	13.553664900749
7	1004	2142.850386694104	19.176112048848
7	1005	2144.572080611094	6.531397665711
7	1008	2155.369973379668	4.48433540162
7	1014	2176.196187973409	7.041437131777
7	1023	2188.523717618764	2.488823620887
7	1038	2230.240818187199	9.013738256878
7	1041	2241.726275894378	2.837006291726
7	1044	2255.016229478609	0.533161380772
7	1047	2274.598319321665	3.522909404916
7	1057	2286.070382686732	5.281108507222
7	1063	2294.534281585401	10.164531744111
7	1066	2298.258073725935	9.815577869053
7	1067	2298.397002536495	9.737086759138
7	1068	2299.910578003579	2.330331978891
7	1089	2337.676526545951	24.155203317696
7	1092	2362.166132812157	43.833565358461
7	1103	2378.781870763394	52.895409810633
7	1104	2379.377874419823	51.47114298682
7	1105	2379.46915482122	43.740088100477
7	1110	2384.04283025808	47.176929824346
7	1122	2412.918370635235	49.676666876793
7	1123	2414.227731286153	43.079964466145
7	1124	2415.083498131437	43.93146375147
7	1132	2428.59577252109	45.406788261283
7	1135	2430.703003541926	45.612896328682
7	1136	2432.115044504843	45.717370745174
7	1147	2460.259395820249	52.743467468322
7	1152	2463.64472095643	45.51471224043
7	1157	2478.09439824328	57.713133691938
7	1160	2487.008265219154	63.129438079701
7	1163	2488.423213828884	58.389644455537
7	1164	2497.016444265253	61.471386526419
7	1165	2498.48434076982	60.428968827784
8	176	367.376450425266	1
8	179	384.176460755635	1
8	181	386.436038687455	2
8	185	391.952056832985	1
8	187	393.866115821959	2
8	190	404.473974224828	2
8	194	410.436848643051	1
8	197	418.962261761174	1
8	202	430.042671051734	2
8	206	441.443807283647	1
8	212	473.00260902335	1
8	214	475.369278079737	2
8	221	493.286867919828	1
8	224	501.939221806893	1
8	227	509.038289566614	1
8	230	518.619025209951	1
8	233	528.562184431506	1
8	235	530.409486620472	2
8	249	548.429687237878	1
8	251	552.852190846318	2
8	254	558.782162656068	3
8	256	559.785125051752	4
8	260	574.152183291069	4
8	264	581.777140733225	3
8	266	591.908523466924	4
8	268	595.245884919689	5
8	271	599.744693744301	5
8	276	614.054973155262	3
8	278	614.201791139699	4
8	284	639.373022439287	1
8	291	647.18155342749	2
8	296	658.412344747376	1
8	299	662.241880940892	1
8	307	679.735089669793	2
8	309	681.301514871387	3
8	326	719.754056870467	3
8	331	727.714540815194	4
8	333	728.563158651515	5
8	335	730.639321852629	6
8	340	738.051917068501	5
8	344	743.143212324701	6
8	346	746.043867205386	7
8	349	748.788738380785	8
8	355	761.173475784625	7
8	357	761.546911015483	8
8	359	762.159761062042	9
8	364	770.565676082391	10
8	371	779.056388390191	11
8	379	804.665387734801	11
8	384	821.141477119636	9
8	386	823.114470007992	10
8	389	829.833902557911	10
8	393	841.976749373265	9
8	395	844.753959809814	10
8	400	857.484073673838	10
8	405	864.090526057359	11
8	407	864.406093474509	12
8	409	864.410050515611	13
8	413	873.152552595688	14
8	416	880.180520660851	15
8	425	892.143133296193	16
8	428	905.901144136857	16
8	438	929.964332537532	12
8	444	933.017075888709	12
8	457	967.038452370635	10
8	459	970.766761584691	11
8	467	988.829171470794	7
8	476	1033.712953239657	1
8	485	1063.897103797653	1
8	487	1067.205057491134	2
8	495	1074.2638470211	1
8	497	1076.070422185143	2
8	499	1078.233322827761	3
8	506	1100.820633055485	1
8	508	1101.542520841805	2
8	512	1111.342333799117	1
8	521	1137.351662066246	1
8	524	1143.757808395093	1
8	527	1148.722540957953	1
8	529	1150.605600291787	2
8	533	1155.850971048164	3
8	542	1171.764212020809	3
8	549	1173.638417992965	4
8	552	1183.043987541314	5
8	554	1184.463600298683	6
8	558	1186.294690857023	6
8	560	1193.42779355161	7
8	562	1193.952229021391	8
8	565	1198.118664749482	8
8	568	1204.241343238922	8
8	571	1210.346320488679	8
8	573	1214.33262395137	9
8	575	1214.830841163516	10
8	578	1219.949086922189	10
8	580	1222.914295801811	11
8	582	1223.293270800351	12
8	590	1248.688204836956	10
8	605	1290.898130123353	1
8	607	1291.823162123162	2
8	610	1294.576402543527	2
8	614	1304.070144681555	1
8	616	1305.840915143514	2
8	620	1319.757161600396	1
8	623	1323.432945874271	1
8	625	1329.748623566149	2
8	627	1330.682505835263	3
8	632	1340.718512005517	1
8	634	1345.187440574485	2
8	638	1350.785968730655	1
8	640	1350.872180850818	2
8	650	1382.607022192613	1
8	653	1400.916642425074	1
8	660	1422.107356603794	2
8	666	1424.971614565931	3
8	670	1426.229528690923	4
8	676	1451.471703703142	5
8	678	1452.277834284563	6
8	686	1462.965173674297	7
8	695	1485.516523248597	7
8	697	1487.722538453823	8
8	699	1487.844095693352	9
8	701	1489.919406919192	10
8	707	1503.613495727106	11
8	709	1504.303228010345	12
8	711	1505.738723982334	13
8	734	1571.779811722683	8
8	736	1573.37860006544	9
8	738	1574.86737474354	10
8	741	1580.95010154136	11
8	744	1589.412012295137	12
8	752	1606.774891541585	7
8	763	1626.911053211865	4
8	766	1632.047623014525	5
8	770	1633.802704932022	6
8	775	1644.547544615298	7
8	777	1645.199821265832	8
8	779	1650.037865197686	9
8	781	1650.283004258902	10
8	788	1677.203818671379	10
8	796	1694.228253446423	9
8	798	1695.752850120378	10
8	800	1696.928567990461	11
8	809	1717.067297815278	10
8	816	1725.738022932032	11
8	818	1732.5338024213	12
8	821	1735.719047425022	13
8	823	1737.147083566854	14
8	838	1768.93275183034	11
8	841	1789.832538635294	12
8	845	1800.201925045835	13
8	848	1801.397823919369	13
8	850	1813.417267898949	14
8	853	1820.845952050105	14
8	855	1821.109000042073	15
8	857	1824.448238797531	16
8	867	1851.763375986915	12
8	869	1853.763101051265	13
8	873	1861.615734364642	12
8	881	1872.60282119802	10
8	885	1879.356073586884	9
8	889	1886.688361683324	8
8	896	1902.442019052124	7
8	900	1905.861314486726	6
8	905	1909.777407995839	4
8	912	1922.182695436346	3
8	915	1930.15861388626	3
8	920	1963.91214132306	1
8	926	1973.318976600654	1
8	928	1973.361309767564	2
8	931	1975.116582120982	2
8	936	1977.572967073261	2
8	938	1979.076635191296	3
8	941	1985.261943290884	4
8	945	1989.30345486024	3
8	950	2015.354681933544	1
8	953	2020.548439221487	1
8	958	2025.725814737138	2
8	962	2032.01908448859	1
8	965	2055.502620266609	1
8	967	2060.575503583687	2
8	974	2084.709706378142	1
8	978	2092.939844548836	2
8	981	2099.037089414943	3
8	984	2102.591137611019	3
8	988	2116.368780264422	2
8	990	2116.482601048769	3
8	995	2119.324063641712	3
8	999	2123.674274645256	3
8	1003	2138.040682945383	2
8	1007	2150.885637978048	1
8	1010	2167.367114672204	1
8	1022	2186.034893997877	1
8	1035	2221.227079930321	1
8	1040	2238.889269602652	1
8	1043	2254.483068097837	1
8	1046	2271.075409916749	1
8	1049	2280.771826103366	1
8	1054	2283.864084695993	2
8	1056	2284.36974984129	3
8	1059	2288.442495856882	3
8	1065	2297.580246024688	3
8	1070	2309.781809862415	1
8	1072	2312.772812754872	2
8	1074	2313.521323228255	3
8	1076	2318.332567453696	4
8	1078	2318.868552452175	5
8	1082	2327.906731433003	6
8	1087	2336.865900433734	7
8	1091	2339.803824499231	7
8	1098	2371.147766820008	7
8	1100	2371.152034379967	8
8	1107	2380.887203781705	6
8	1109	2383.188984259807	7
8	1114	2386.397673759669	7
8	1116	2391.11863221044	8
8	1119	2400.591305898383	9
8	1121	2407.515928351927	10
8	1126	2418.130008716	8
8	1130	2423.878827139453	9
8	1134	2430.033569373347	9
8	1138	2435.545057738834	8
8	1146	2457.691458169595	9
8	1149	2461.138953990144	9
8	1151	2462.293654580893	10
8	1154	2473.557527797445	10
8	1156	2474.41331895417	11
8	1159	2483.314383275376	11
8	1162	2487.898238471302	11
9	199	419.824288542282	1
9	208	445.426883461239	1
9	218	481.155473799364	1
9	239	536.946986058516	1
9	242	541.720738592907	1
9	244	541.736319955185	2
9	247	545.749899725905	2
9	286	642.852204457678	1
9	288	646.904432915695	2
9	301	666.123998518003	1
9	304	673.379073049835	1
9	311	692.296201596188	1
9	315	707.174758416955	1
9	317	707.316586279335	2
9	321	718.627327699064	1
9	324	719.093978241006	1
9	329	725.978438086876	1
9	342	740.857761909457	1
9	353	759.785179545867	1
9	362	769.99705848	1
9	366	773.001749095169	2
9	368	773.957541426202	3
9	373	780.867851638882	3
9	398	853.673845421965	1
9	402	862.799389841877	2
9	411	868.098797839271	2
9	418	880.277491819915	2
9	420	882.177038103687	3
9	433	912.935758198835	1
9	441	932.202672012874	1
9	447	936.657389288969	1
9	450	946.297682443241	1
9	455	960.738265453186	1
9	479	1042.502595974247	1
9	482	1060.452690583967	1
9	491	1073.028472791389	1
9	493	1073.979749661901	2
9	514	1113.293494763991	1
9	518	1132.000155132253	1
9	531	1154.808071207918	1
9	536	1158.547296278815	1
9	540	1170.522199205898	1
9	544	1171.867477851254	2
9	546	1172.13455232041	3
9	586	1231.608305717097	1
9	601	1288.624242739881	1
9	643	1356.036850805122	1
9	645	1372.606487445524	2
9	655	1405.653119015198	1
9	657	1415.389328740932	2
9	662	1422.655085990457	2
9	664	1422.976987813847	3
9	668	1425.03253417898	4
9	673	1430.283059070374	4
9	680	1453.338074498799	4
9	683	1458.853815662555	4
9	691	1470.455632448849	1
9	703	1493.449335598144	1
9	705	1496.052380205525	2
9	714	1514.884379549808	2
9	719	1528.555324124831	1
9	727	1564.373909976404	1
9	729	1565.073784446035	2
9	732	1568.88161662372	2
9	757	1616.890074396541	1
9	761	1626.810805176556	1
9	768	1632.799960695581	1
9	772	1636.823592669957	2
9	785	1658.548708404319	1
9	792	1686.708174305305	1
9	794	1694.179105853179	2
9	803	1705.252233173425	2
9	811	1719.93445107556	1
9	814	1724.59685573388	1
9	826	1740.42133159935	1
9	832	1757.194056480443	1
9	834	1761.281828584842	2
9	836	1761.918109262225	3
9	860	1831.77425238343	1
9	876	1868.713537013691	1
9	893	1898.558444776125	1
9	907	1910.506246022932	1
9	923	1966.608133512492	1
9	934	1976.663636876505	1
9	955	2021.706676798273	1
9	971	2073.959348802285	1
9	976	2092.180436930985	1
9	993	2118.166042985004	1
9	1012	2169.154750841632	1
9	1016	2177.061307273094	1
9	1019	2178.914416394662	1
9	1025	2195.814478513715	1
9	1028	2200.177172437229	1
9	1031	2214.891347264506	1
9	1033	2215.816986545285	2
9	1051	2280.78927417951	1
9	1061	2288.659915777357	1
9	1080	2325.886460952761	1
9	1085	2335.729066720743	1
9	1094	2363.241703758442	1
9	1096	2369.572912620892	2
9	1112	2385.090107213244	1
9	1128	2420.381264551342	1
9	1140	2438.055371942036	1
9	1143	2446.879911890008	1
10	199	419.824288542282	8
10	208	445.426883461239	9
10	286	642.852204457678	10
10	301	666.123998518003	11
10	304	673.379073049835	12
10	311	692.296201596188	13
10	315	707.174758416955	14
10	321	718.627327699064	15
10	324	719.093978241006	16
10	329	725.978438086876	17
10	342	740.857761909457	18
10	353	759.785179545867	19
10	362	769.99705848	20
10	398	853.673845421965	21
10	433	912.935758198835	22
10	441	932.202672012874	23
10	447	936.657389288969	24
10	450	946.297682443241	25
10	455	960.738265453186	26
10	514	1113.293494763991	27
10	531	1154.808071207918	28
10	536	1158.547296278815	29
10	540	1170.522199205898	30
10	586	1231.608305717097	31
10	601	1288.624242739881	32
10	643	1356.036850805122	33
10	655	1405.653119015198	34
10	691	1470.455632448849	35
10	703	1493.449335598144	36
10	719	1528.555324124831	37
10	727	1564.373909976404	38
10	757	1616.890074396541	39
10	761	1626.810805176556	40
10	768	1632.799960695581	41
10	785	1658.548708404319	42
10	792	1686.708174305305	43
10	811	1719.93445107556	44
10	814	1724.59685573388	45
10	826	1740.42133159935	46
10	832	1757.194056480443	47
10	860	1831.77425238343	48
10	876	1868.713537013691	49
10	893	1898.558444776125	50
10	907	1910.506246022932	51
10	934	1976.663636876505	52
10	955	2021.706676798273	53
10	976	2092.180436930985	54
10	993	2118.166042985004	55
10	1012	2169.154750841632	56
10	1051	2280.78927417951	57
10	1061	2288.659915777357	58
10	1080	2325.886460952761	59
10	1085	2335.729066720743	60
10	1094	2363.241703758442	61
10	1112	2385.090107213244	62
10	1128	2420.381264551342	63
10	1140	2438.055371942036	64
10	1143	2446.879911890008	65
11	1166	2500	0.1024
12	1166	2500	0.0508

