file 61155 1678524320                                           
version 2
run experiments_medium_game_mode1-1491-20230311-09:45:20-16152
attr configname experiments_medium_game_mode1
attr datetime 20230311-09:45:20
attr experiment experiments_medium_game_mode1
attr inifile omnetpp.ini
attr iterationvars "$0=7, $1=7, $2=100"
attr iterationvarsf 7,7,100-
attr measurement "$0=7, $1=7, $2=100"
attr network Network
attr processid 16152
attr repetition 21
attr replication #21
attr resultdir results
attr runnumber 1491
attr seedset 21
param *.boss.arrival_mean 20
param *.boss.service_mean 7
param *.minion.arrival_mean 10
param *.minion.service_mean 7
param *.player.recover_rate_x 100
param **.minion.arrival_distribution 0
param **.minion.service_distribution 0
param **.boss.arrival_distribution 0
param **.boss.service_distribution 0

vector 0 Network.player boss_defeated_stat:vector ETV
attr source signal_boss_defeated
vector 1 Network.player boss_jobs_queue_number_stat:vector ETV
attr source signal_boss_jobs_queue_number
vector 2 Network.player boss_response_time_stat:vector ETV
attr source signal_boss_response_time
vector 3 Network.player minion_waiting_time_stat:vector ETV
attr source signal_minion_waiting_time
vector 4 Network.player minion_defeated_stat:vector ETV
attr source signal_minion_defeated
vector 5 Network.player minion_jobs_queue_number_stat:vector ETV
attr source signal_minion_jobs_queue_number
vector 6 Network.player minion_response_time_stat:vector ETV
attr source signal_minion_response_time
vector 7 Network.player minion_jobs_number_stat:vector ETV
attr source signal_minion_jobs_number
vector 8 Network.player boss_jobs_number_stat:vector ETV
attr source signal_boss_jobs_number
vector 9 Network.player minion_recovered_stat:vector ETV
attr source signal_minion_recovered
vector 10 Network.player boss_waiting_time_stat:vector ETV
attr source signal_boss_waiting_time
vector 11 Network.player minion_throughput:vector ETV
attr source signal_minion_throughput
vector 12 Network.player boss_throughput:vector ETV
attr source signal_boss_throughput
0	2021 2541 140 1055 350.100067167953 2445.609016269122 95 15 109 5890 436620
1	4562 4874 140 1068 350.100067167953 2490.842751616098 190 0 3 78 118
2	9436 3692 140 1055 350.100067167953 2445.609016269122 95 0.074351495671 34.136929997917 838.49137312413 14340.097015101
3	13128 10310 140 1064 350.100067167953 2486.648289913398 264 0 342.3660328005 48431.801774985 12033132.9365
4	23438 5565 141 1064 352.607669736332 2486.648289913398 204 24 227 25602 3920506
5	29003 11241 141 1070 352.607669736332 2491.481527160442 425 0 47 10291 327915
6	40244 8049 141 1064 352.607669736332 2486.648289913398 204 0.005862269559 351.67105829256 39007.540716172 9968574.5856987
7	48293 5851 146 1070 363.579054885799 2491.481527160442 221 1 48 5545 178779
8	54144 2438 175 1068 437.655607876823 2490.842751616098 95 1 4 134 232
9	56582 1601 175 1068 437.655607876823 2490.842751616098 60 10 69 2370 111610
10	58183 2931 175 1068 437.655607876823 2490.842751616098 95 0 28.262843058626 236.82610825595 3477.8783816974
11	61114 20 1071 1071 2500 2500 1 0.0908 0.0908 0.0908 0.00824464
12	61134 20 1071 1071 2500 2500 1 0.0436 0.0436 0.0436 0.00190096

