version 2
run experiments_medium_game_mode1-5-20230311-09:39:58-8682
attr configname experiments_medium_game_mode1
attr datetime 20230311-09:39:58
attr experiment experiments_medium_game_mode1
attr inifile omnetpp.ini
attr iterationvars "$0=5, $1=3, $2=0"
attr iterationvarsf 5,3,0-
attr measurement "$0=5, $1=3, $2=0"
attr network Network
attr processid 8682
attr repetition 5
attr replication #5
attr resultdir results
attr runnumber 5
attr seedset 5
param *.boss.arrival_mean 20
param *.boss.service_mean 5
param *.minion.arrival_mean 10
param *.minion.service_mean 3
param *.player.recover_rate_x 0
param **.minion.arrival_distribution 0
param **.minion.service_distribution 0
param **.boss.arrival_distribution 0
param **.boss.service_distribution 0

vector 0 Network.player boss_defeated_stat:vector ETV
attr source signal_boss_defeated
vector 1 Network.player boss_jobs_queue_number_stat:vector ETV
attr source signal_boss_jobs_queue_number
vector 2 Network.player boss_response_time_stat:vector ETV
attr source signal_boss_response_time
vector 3 Network.player minion_jobs_number_stat:vector ETV
attr source signal_minion_jobs_number
vector 4 Network.player minion_jobs_queue_number_stat:vector ETV
attr source signal_minion_jobs_queue_number
vector 5 Network.player minion_waiting_time_stat:vector ETV
attr source signal_minion_waiting_time
vector 6 Network.player minion_defeated_stat:vector ETV
attr source signal_minion_defeated
vector 7 Network.player minion_response_time_stat:vector ETV
attr source signal_minion_response_time
vector 8 Network.player boss_jobs_number_stat:vector ETV
attr source signal_boss_jobs_number
vector 9 Network.player boss_waiting_time_stat:vector ETV
attr source signal_boss_waiting_time
vector 10 Network.player minion_recovered_stat:vector ETV
attr source signal_minion_recovered
vector 11 Network.player minion_throughput:vector ETV
attr source signal_minion_throughput
vector 12 Network.player boss_throughput:vector ETV
attr source signal_boss_throughput
0	132	352.153959226776	19
0	143	384.69280911483	20
0	144	384.705148719596	21
0	147	392.482374793744	22
0	161	412.705211130998	23
0	172	441.531727928661	24
0	175	452.343563383107	25
0	176	452.343978869191	26
0	186	468.891454611709	27
0	216	526.417460262455	28
0	221	530.870354257102	29
0	222	533.586420236173	30
0	223	552.767964943804	31
0	226	558.489530617745	32
0	229	567.814208826407	33
0	232	574.798551494121	34
0	250	628.11473213203	35
0	260	642.546476969679	36
0	275	664.17758241064	37
0	276	666.68972877646	38
0	279	671.199275535015	39
0	296	715.306736918413	40
0	311	749.903906968698	41
0	332	802.030438096236	42
0	341	827.780229350482	43
0	374	883.044307710069	44
0	380	887.922958595102	45
0	387	895.543049325011	46
0	397	907.591083990979	47
0	406	918.584068381125	48
0	412	935.022515319217	49
0	430	965.218297256321	50
0	441	982.591652479872	51
0	448	993.185950264623	52
0	469	1018.987042073783	53
0	487	1088.314506891259	54
0	488	1090.441489807599	55
0	497	1110.419174333675	56
0	511	1169.126654541772	57
0	531	1199.437235879577	58
0	551	1281.786542774799	59
0	573	1334.879190531219	60
0	588	1363.149784318676	61
0	609	1412.491568744757	62
0	617	1448.728424851259	63
0	625	1465.554158252425	64
0	626	1466.188933255895	65
0	630	1474.729489876305	66
0	637	1483.128397108793	67
0	644	1504.98893954686	68
0	660	1541.622308759249	69
0	663	1547.026002522998	70
0	668	1571.563760989928	71
0	697	1632.039400920458	72
0	706	1650.09608815842	73
0	711	1662.751489283489	74
0	712	1665.873193352555	75
0	725	1678.68321485218	76
0	732	1692.104979253927	77
0	739	1704.613992080955	78
0	747	1713.944045116367	79
0	756	1740.275274389941	80
0	761	1746.071274878812	81
0	779	1812.445026922555	82
0	784	1819.872577436233	83
0	789	1831.601341753254	84
0	790	1836.934664151769	85
0	799	1854.292799308779	86
0	802	1858.655424758866	87
0	810	1868.973370291887	88
0	813	1870.082691133772	89
0	818	1883.840859431133	90
0	828	1907.548248491526	91
0	836	1944.937328115123	92
0	845	1970.870615890977	93
0	849	1979.684186589338	94
0	854	1984.884514547349	95
0	864	2005.504154040987	96
0	867	2009.84951805665	97
0	881	2043.604316702735	98
0	891	2068.65135966665	99
0	899	2076.399424914474	100
0	907	2092.243061902602	101
0	912	2102.779165017444	102
0	923	2120.283816049611	103
0	927	2131.235981524293	104
0	932	2157.943203256875	105
0	946	2177.41957526298	106
0	952	2191.834015886391	107
0	953	2191.971899365691	108
0	993	2265.177139724753	109
0	1014	2295.510252125768	110
0	1017	2319.55534565468	111
0	1042	2371.472353185635	112
0	1043	2374.606931049781	113
0	1053	2386.87237976446	114
0	1054	2397.431203829804	115
0	1065	2437.764480382394	116
0	1066	2438.562408681822	117
0	1074	2463.969349622183	118
0	1077	2470.145155841424	119
0	1080	2478.978392042899	120
1	132	352.153959226776	0
1	140	381.910508285344	0
1	142	382.12216177113	1
1	143	384.69280911483	1
1	144	384.705148719596	0
1	146	385.458599038288	0
1	147	392.482374793744	0
1	152	401.932998597983	0
1	154	404.293112790177	1
1	161	412.705211130998	1
1	169	437.903864460807	1
1	171	439.767450543379	2
1	172	441.531727928661	2
1	175	452.343563383107	1
1	176	452.343978869191	0
1	185	467.105152708054	0
1	186	468.891454611709	0
1	209	507.778352471988	0
1	211	511.970843354015	1
1	213	523.641403692857	2
1	215	523.764599663184	3
1	216	526.417460262455	3
1	218	526.525142992614	3
1	221	530.870354257102	3
1	222	533.586420236173	2
1	223	552.767964943804	1
1	225	556.097184880185	1
1	226	558.489530617745	1
1	228	564.45633319999	1
1	229	567.814208826407	1
1	232	574.798551494121	0
1	249	627.778284939314	0
1	250	628.11473213203	0
1	259	638.222539276565	0
1	260	642.546476969679	0
1	272	662.431607004495	0
1	274	662.436923341715	1
1	275	664.17758241064	1
1	276	666.68972877646	0
1	278	669.501349085891	0
1	279	671.199275535015	0
1	295	712.041199677948	0
1	296	715.306736918413	0
1	308	741.260931673624	0
1	311	749.903906968698	0
1	329	799.551242766425	0
1	332	802.030438096236	0
1	340	822.860284331871	0
1	341	827.780229350482	0
1	371	877.543810870645	0
1	374	883.044307710069	0
1	379	887.337605029767	0
1	380	887.922958595102	0
1	382	888.487505027603	0
1	387	895.543049325011	0
1	396	907.588439234243	0
1	397	907.591083990979	0
1	399	909.614822051967	0
1	406	918.584068381125	0
1	409	920.771602651114	0
1	412	935.022515319217	0
1	429	964.27347470108	0
1	430	965.218297256321	0
1	440	981.828805080065	0
1	441	982.591652479872	0
1	447	991.993690733228	0
1	448	993.185950264623	0
1	464	1016.249624094874	0
1	469	1018.987042073783	0
1	482	1077.928705248913	0
1	484	1080.302015026252	1
1	487	1088.314506891259	1
1	488	1090.441489807599	0
1	496	1107.584578418003	0
1	497	1110.419174333675	0
1	506	1158.933809594803	0
1	511	1169.126654541772	0
1	530	1188.996723057024	0
1	531	1199.437235879577	0
1	550	1278.988197943606	0
1	551	1281.786542774799	0
1	572	1331.699076905576	0
1	573	1334.879190531219	0
1	583	1354.3265869964	0
1	588	1363.149784318676	0
1	608	1410.690821772367	0
1	609	1412.491568744757	0
1	614	1442.401810080516	0
1	617	1448.728424851259	0
1	620	1458.263650676793	0
1	622	1458.853799594753	1
1	625	1465.554158252425	1
1	626	1466.188933255895	0
1	629	1474.67750170795	0
1	630	1474.729489876305	0
1	632	1478.591938273987	0
1	637	1483.128397108793	0
1	641	1499.350124495382	0
1	644	1504.98893954686	0
1	659	1540.927398831871	0
1	660	1541.622308759249	0
1	662	1543.83572861612	0
1	663	1547.026002522998	0
1	667	1571.160236717777	0
1	668	1571.563760989928	0
1	692	1627.011532211296	0
1	697	1632.039400920458	0
1	701	1641.200728983196	0
1	705	1649.139788179428	1
1	706	1650.09608815842	1
1	708	1651.886764969815	1
1	711	1662.751489283489	1
1	712	1665.873193352555	0
1	724	1677.97722850772	0
1	725	1678.68321485218	0
1	731	1691.221218932796	0
1	732	1692.104979253927	0
1	734	1695.469903337416	0
1	739	1704.613992080955	0
1	742	1709.973952942435	0
1	747	1713.944045116367	0
1	755	1734.173751778239	0
1	756	1740.275274389941	0
1	760	1741.631715878164	0
1	761	1746.071274878812	0
1	770	1795.251777029999	0
1	772	1796.186514870931	1
1	778	1810.233699922377	2
1	779	1812.445026922555	2
1	784	1819.872577436233	1
1	786	1821.747407345427	1
1	789	1831.601341753254	1
1	790	1836.934664151769	0
1	798	1852.560548192826	0
1	799	1854.292799308779	0
1	801	1854.576513861016	0
1	802	1858.655424758866	0
1	809	1868.175832967458	0
1	810	1868.973370291887	0
1	812	1869.101112407136	0
1	813	1870.082691133772	0
1	815	1883.079443135498	0
1	818	1883.840859431133	0
1	827	1906.172223784969	0
1	828	1907.548248491526	0
1	835	1929.509174591028	0
1	836	1944.937328115123	0
1	842	1967.343964080476	0
1	845	1970.870615890977	0
1	848	1979.682068380707	0
1	849	1979.684186589338	0
1	851	1982.357432335051	0
1	854	1984.884514547349	0
1	863	2003.786686497585	0
1	864	2005.504154040987	0
1	866	2006.5504223079	0
1	867	2009.84951805665	0
1	880	2040.249635521158	0
1	881	2043.604316702735	0
1	884	2053.063007369747	0
1	891	2068.65135966665	0
1	898	2076.247451695774	0
1	899	2076.399424914474	0
1	902	2080.649378436169	0
1	904	2086.329528345313	1
1	907	2092.243061902602	1
1	912	2102.779165017444	0
1	922	2116.760152658708	0
1	923	2120.283816049611	0
1	926	2130.649701280081	0
1	927	2131.235981524293	0
1	929	2149.349687489204	0
1	932	2157.943203256875	0
1	941	2171.319197265902	0
1	946	2177.41957526298	0
1	949	2183.040962897326	0
1	951	2183.478361293144	1
1	952	2191.834015886391	1
1	953	2191.971899365691	0
1	992	2263.858396856056	0
1	993	2265.177139724753	0
1	1013	2294.457992447564	0
1	1014	2295.510252125768	0
1	1016	2319.143568197383	0
1	1017	2319.55534565468	0
1	1037	2364.097716176362	0
1	1041	2369.034416376807	1
1	1042	2371.472353185635	1
1	1043	2374.606931049781	0
1	1046	2379.332298766566	0
1	1050	2382.99845866801	1
1	1053	2386.87237976446	1
1	1054	2397.431203829804	0
1	1060	2420.064793868789	0
1	1064	2435.541766541786	1
1	1065	2437.764480382394	1
1	1066	2438.562408681822	0
1	1073	2461.309526535168	0
1	1074	2463.969349622183	0
1	1076	2468.83020005602	0
1	1077	2470.145155841424	0
1	1079	2471.034788360199	0
1	1080	2478.978392042899	0
2	132	352.153959226776	2.654547265895
2	143	384.69280911483	2.782300829486
2	144	384.705148719596	2.582986948466
2	147	392.482374793744	7.023775755456
2	161	412.705211130998	10.772212533015
2	172	441.531727928661	37.238615138484
2	175	452.343563383107	14.4396989223
2	176	452.343978869191	12.576528325812
2	186	468.891454611709	1.786301903655
2	216	526.417460262455	18.639107790467
2	221	530.870354257102	18.899510903087
2	222	533.586420236173	9.945016543316
2	223	552.767964943804	29.00336528062
2	226	558.489530617745	31.964387625131
2	229	567.814208826407	11.717023946222
2	232	574.798551494121	10.342218294131
2	250	628.11473213203	0.336447192716
2	260	642.546476969679	4.323937693114
2	275	664.17758241064	1.745975406145
2	276	666.68972877646	4.252805434745
2	279	671.199275535015	1.697926449124
2	296	715.306736918413	3.265537240465
2	311	749.903906968698	8.642975295074
2	332	802.030438096236	2.479195329811
2	341	827.780229350482	4.919945018611
2	374	883.044307710069	5.500496839424
2	380	887.922958595102	0.585353565335
2	387	895.543049325011	7.055544297408
2	397	907.591083990979	0.002644756736
2	406	918.584068381125	8.969246329158
2	412	935.022515319217	14.250912668103
2	430	965.218297256321	0.944822555241
2	441	982.591652479872	0.762847399807
2	448	993.185950264623	1.192259531395
2	469	1018.987042073783	2.737417978909
2	487	1088.314506891259	10.385801642346
2	488	1090.441489807599	10.139474781347
2	497	1110.419174333675	2.834595915672
2	511	1169.126654541772	10.192844946969
2	531	1199.437235879577	10.440512822553
2	551	1281.786542774799	2.798344831193
2	573	1334.879190531219	3.180113625643
2	588	1363.149784318676	8.823197322276
2	609	1412.491568744757	1.80074697239
2	617	1448.728424851259	6.326614770743
2	625	1465.554158252425	7.290507575632
2	626	1466.188933255895	7.335133661142
2	630	1474.729489876305	0.051988168355
2	637	1483.128397108793	4.536458834806
2	644	1504.98893954686	5.638815051478
2	660	1541.622308759249	0.694909927378
2	663	1547.026002522998	3.190273906878
2	668	1571.563760989928	0.403524272151
2	697	1632.039400920458	5.027868709162
2	706	1650.09608815842	8.895359175224
2	711	1662.751489283489	13.611701104061
2	712	1665.873193352555	13.98642838274
2	725	1678.68321485218	0.70598634446
2	732	1692.104979253927	0.883760321131
2	739	1704.613992080955	9.144088743539
2	747	1713.944045116367	3.970092173932
2	756	1740.275274389941	6.101522611702
2	761	1746.071274878812	4.439559000648
2	779	1812.445026922555	17.193249892556
2	784	1819.872577436233	23.686062565302
2	789	1831.601341753254	21.367641830877
2	790	1836.934664151769	15.187256806342
2	799	1854.292799308779	1.732251115953
2	802	1858.655424758866	4.07891089785
2	810	1868.973370291887	0.797537324429
2	813	1870.082691133772	0.981578726636
2	818	1883.840859431133	0.761416295635
2	828	1907.548248491526	1.376024706557
2	836	1944.937328115123	15.428153524095
2	845	1970.870615890977	3.526651810501
2	849	1979.684186589338	0.002118208631
2	854	1984.884514547349	2.527082212298
2	864	2005.504154040987	1.717467543402
2	867	2009.84951805665	3.29909574875
2	881	2043.604316702735	3.354681181577
2	891	2068.65135966665	15.588352296903
2	899	2076.399424914474	0.1519732187
2	907	2092.243061902602	11.593683466433
2	912	2102.779165017444	16.449636672131
2	923	2120.283816049611	3.523663390903
2	927	2131.235981524293	0.586280244212
2	932	2157.943203256875	8.593515767671
2	946	2177.41957526298	6.100377997078
2	952	2191.834015886391	8.793052989065
2	953	2191.971899365691	8.493538072547
2	993	2265.177139724753	1.318742868697
2	1014	2295.510252125768	1.052259678204
2	1017	2319.55534565468	0.411777457297
2	1042	2371.472353185635	7.374637009273
2	1043	2374.606931049781	5.572514672974
2	1053	2386.87237976446	7.540080997894
2	1054	2397.431203829804	14.432745161794
2	1065	2437.764480382394	17.699686513605
2	1066	2438.562408681822	3.020642140036
2	1074	2463.969349622183	2.659823087015
2	1077	2470.145155841424	1.314955785404
2	1080	2478.978392042899	7.9436036827
3	134	354.172507827807	1
3	137	373.165573927013	1
3	149	393.279838510632	1
3	156	408.207277351423	1
3	158	411.99829745011	2
3	160	412.37183081957	3
3	163	436.073400872944	4
3	165	437.314233815506	5
3	167	437.327952946813	6
3	174	451.242256151972	7
3	180	459.810452974783	6
3	183	462.544540123058	6
3	188	468.979055047066	7
3	190	471.920162134502	8
3	194	475.095408618298	7
3	199	494.588354537745	5
3	202	497.713550616588	5
3	220	527.626775085374	1
3	231	571.143215401286	2
3	235	579.391432256081	2
3	239	605.943574795199	1
3	241	607.913223543641	2
3	243	609.957947543076	3
3	247	624.665666816139	2
3	252	630.706851864441	3
3	256	637.487093734645	2
3	262	643.417267897842	2
3	266	653.393714807935	1
3	269	656.310268947339	1
3	281	674.6047529137	1
3	284	695.335114389194	1
3	287	701.516242444663	1
3	290	704.925125838561	1
3	293	711.815483747498	1
3	298	715.664169776615	2
3	302	727.040126940911	1
3	305	735.618888755847	1
3	310	746.139589939481	1
3	314	762.644089716245	1
3	317	765.774707186922	1
3	320	768.538631314541	1
3	322	769.235612506848	2
3	326	787.248359323836	1
3	331	802.008149240264	1
3	335	815.757023724541	1
3	338	822.315232027055	1
3	343	828.136835226231	2
3	346	832.129773314188	2
3	348	833.062464632352	3
3	351	840.209054935251	3
3	356	845.043579502083	1
3	358	848.103789288935	2
3	362	853.51756743213	1
3	364	857.235620783026	2
3	368	871.716141047027	1
3	373	881.573981200952	1
3	376	883.796395950465	2
3	384	891.948409974863	2
3	386	892.451265341315	3
3	389	896.287023108023	4
3	394	907.496880138223	2
3	401	912.519557305623	3
3	403	912.719751269411	4
3	405	915.703469079402	5
3	411	931.627609079209	5
3	415	940.35611761368	5
3	422	952.926673196333	1
3	424	954.689615315032	2
3	426	958.18994317615	3
3	432	967.306304503991	3
3	436	971.293520383222	2
3	443	988.770386098451	1
3	445	991.89196686214	2
3	450	993.592636988663	3
3	452	995.06088645478	4
3	458	1008.314780315635	1
3	461	1012.966214610902	1
3	466	1018.219575777321	1
3	468	1018.378246406112	2
3	473	1033.460060157527	1
3	476	1037.687100701228	1
3	479	1053.982005230281	1
3	486	1087.119359711866	1
3	491	1102.540491660609	1
3	494	1104.720238786165	1
3	500	1113.692156924454	1
3	503	1148.073931961739	1
3	508	1158.994943503307	1
3	510	1159.869971217089	2
3	514	1170.270592856227	2
3	517	1172.886145916887	2
3	521	1178.431073673036	1
3	523	1180.180260533885	2
3	527	1187.386849011417	1
3	533	1213.938108252133	1
3	536	1220.894768537029	1
3	539	1246.89843674697	1
3	541	1247.276325723585	2
3	545	1266.056222790817	1
3	548	1278.370214318002	1
3	553	1284.448987743469	2
3	557	1294.136166031973	1
3	560	1301.96258254879	1
3	563	1317.004740683419	1
3	565	1321.089472312076	2
3	569	1327.240403897141	1
3	575	1339.31192988468	1
3	578	1344.089152158986	1
3	581	1354.139097917223	1
3	585	1357.590687385923	2
3	587	1362.401640317386	3
3	593	1370.548662839093	1
3	596	1393.477834516225	1
3	599	1394.357009853883	1
3	602	1399.467597341814	1
3	605	1409.444819982285	1
3	611	1413.916469106427	1
3	616	1442.842899766702	1
3	624	1460.245386861678	1
3	634	1482.431277285998	1
3	636	1482.922469037112	2
3	643	1504.007678257348	1
3	647	1516.603279450633	1
3	650	1520.830688733209	1
3	652	1521.897440116271	2
3	656	1534.041056993256	1
3	665	1567.933072131845	1
3	671	1575.426811134132	1
3	673	1577.614321941095	2
3	677	1588.382349111459	1
3	680	1604.98445020996	1
3	683	1608.10816906207	1
3	685	1611.611585584382	2
3	689	1620.970579796187	1
3	694	1629.016241169596	1
3	696	1629.509796788956	2
3	703	1645.107593448206	1
3	710	1656.998456245854	2
3	714	1667.385312246145	3
3	718	1670.941665386543	2
3	722	1677.340756018396	1
3	728	1679.151605878875	1
3	736	1698.499432454028	1
3	738	1702.537875751213	2
3	744	1710.023199632792	2
3	746	1711.831678986269	3
3	750	1715.794270075167	3
3	758	1740.402810295447	1
3	764	1754.371851842985	1
3	767	1757.712952114246	1
3	774	1803.563631578393	1
3	776	1804.702121163114	2
3	781	1813.945618333506	3
3	783	1815.189939142241	4
3	788	1830.000877789753	5
3	793	1844.087242559274	5
3	806	1865.352465476735	1
3	817	1883.609421275364	1
3	820	1885.977274496929	2
3	822	1886.339112843074	3
3	830	1925.322903074237	1
3	832	1926.617656675168	2
3	838	1946.452518246029	2
3	844	1968.617331088617	1
3	853	1983.774184273965	1
3	857	1991.012150132266	1
3	860	1995.96333466045	1
3	869	2021.788839862228	1
3	872	2027.965610252793	1
3	875	2036.670246191136	1
3	878	2038.612038391061	1
3	886	2053.451391923639	1
3	888	2059.720372977221	2
3	890	2065.213904978399	3
3	894	2070.960011779213	3
3	906	2088.416297189241	1
3	909	2094.55514914724	2
3	911	2099.423059657969	3
3	915	2109.526301819064	3
3	918	2113.901216392289	3
3	931	2152.7373224416	1
3	934	2158.324858173646	2
3	938	2170.032935115697	1
3	943	2175.059280819876	1
3	945	2175.89386075536	2
3	956	2194.513301538501	1
3	958	2197.181186761374	2
3	961	2201.862421686758	2
3	965	2205.989717082358	1
3	968	2210.635198036061	1
3	971	2215.605995918517	1
3	974	2220.983562150837	1
3	977	2237.146804838887	1
3	979	2242.672738216294	2
3	981	2243.211192938679	3
3	986	2254.082127145278	1
3	988	2255.276179260871	2
3	990	2257.380623580054	3
3	996	2265.712071714624	3
3	1000	2278.530645851194	2
3	1002	2279.373335041389	3
3	1005	2282.299088262717	3
3	1010	2288.557943251978	1
3	1019	2321.438632138943	1
3	1022	2332.743083346899	1
3	1024	2334.166339972331	2
3	1026	2334.24183420918	3
3	1031	2350.681956625492	1
3	1034	2362.032617962155	1
3	1039	2366.417596998391	1
3	1048	2382.613350806866	1
3	1052	2383.497710697982	2
3	1058	2419.292970577924	1
3	1062	2432.429685492346	2
3	1070	2452.103637946343	1
4	134	354.172507827807	0
4	135	358.601294351195	0
4	137	373.165573927013	0
4	138	373.754073577382	0
4	149	393.279838510632	0
4	150	394.691216800596	0
4	156	408.207277351423	0
4	158	411.99829745011	1
4	160	412.37183081957	2
4	163	436.073400872944	3
4	165	437.314233815506	4
4	167	437.327952946813	5
4	174	451.242256151972	6
4	177	454.399096603492	6
4	178	456.063060447484	5
4	180	459.810452974783	5
4	181	462.041743404251	5
4	183	462.544540123058	5
4	188	468.979055047066	6
4	190	471.920162134502	7
4	191	473.159630630026	7
4	192	474.153662033303	6
4	194	475.095408618298	6
4	195	484.722244462549	6
4	196	487.340208483893	5
4	197	491.612852071788	4
4	199	494.588354537745	4
4	200	496.784307374085	4
4	202	497.713550616588	4
4	203	498.86061239656	4
4	204	500.315355275092	3
4	205	501.347326508233	2
4	206	502.923714840605	1
4	207	505.454880696468	0
4	220	527.626775085374	0
4	231	571.143215401286	1
4	233	578.547140526941	1
4	235	579.391432256081	1
4	236	584.803823440732	1
4	237	585.750709420881	0
4	239	605.943574795199	0
4	241	607.913223543641	1
4	243	609.957947543076	2
4	244	613.773535751365	2
4	245	619.548096206269	1
4	247	624.665666816139	1
4	252	630.706851864441	2
4	253	635.445933021224	2
4	254	636.652135796053	1
4	256	637.487093734645	1
4	257	637.691281226681	1
4	262	643.417267897842	1
4	263	646.306033823694	1
4	264	647.100248427299	0
4	266	653.393714807935	0
4	267	655.574872607434	0
4	269	656.310268947339	0
4	270	657.241974334888	0
4	281	674.6047529137	0
4	282	675.155929305055	0
4	284	695.335114389194	0
4	285	695.602172463239	0
4	287	701.516242444663	0
4	288	702.580668031448	0
4	290	704.925125838561	0
4	291	709.094291533298	0
4	293	711.815483747498	0
4	298	715.664169776615	1
4	299	716.083007702857	1
4	300	717.543423851575	0
4	302	727.040126940911	0
4	303	728.229104540175	0
4	305	735.618888755847	0
4	306	738.418114492072	0
4	310	746.139589939481	0
4	312	751.753245134433	0
4	314	762.644089716245	0
4	315	763.177363227926	0
4	317	765.774707186922	0
4	318	768.132918972467	0
4	320	768.538631314541	0
4	322	769.235612506848	1
4	323	770.078574642195	1
4	324	770.813978665419	0
4	326	787.248359323836	0
4	327	792.14300801099	0
4	331	802.008149240264	0
4	333	806.856777414347	0
4	335	815.757023724541	0
4	336	818.09255486457	0
4	338	822.315232027055	0
4	343	828.136835226231	1
4	344	831.126561855114	1
4	346	832.129773314188	1
4	348	833.062464632352	2
4	349	835.376973281357	2
4	351	840.209054935251	2
4	352	841.054220746202	2
4	353	842.578330884214	1
4	354	843.51229600601	0
4	356	845.043579502083	0
4	358	848.103789288935	1
4	359	849.89396026419	1
4	360	852.756130483601	0
4	362	853.51756743213	0
4	364	857.235620783026	1
4	365	859.181040829311	1
4	366	862.354224184714	0
4	368	871.716141047027	0
4	369	871.973791776638	0
4	373	881.573981200952	0
4	376	883.796395950465	1
4	377	884.51158050419	1
4	384	891.948409974863	1
4	386	892.451265341315	2
4	389	896.287023108023	3
4	390	900.723807108491	3
4	391	902.308506763658	2
4	392	904.531425360314	1
4	394	907.496880138223	1
4	401	912.519557305623	2
4	403	912.719751269411	3
4	405	915.703469079402	4
4	407	920.511736824834	4
4	411	931.627609079209	4
4	413	937.774158268014	4
4	415	940.35611761368	4
4	416	942.063257407618	4
4	417	948.921631658929	3
4	418	949.501168735164	2
4	419	950.229632948041	1
4	420	952.249856168041	0
4	422	952.926673196333	0
4	424	954.689615315032	1
4	426	958.18994317615	2
4	427	959.627638680341	2
4	432	967.306304503991	2
4	433	969.591964184277	2
4	434	970.232464429844	1
4	436	971.293520383222	1
4	437	976.107099901279	1
4	438	977.758516393251	0
4	443	988.770386098451	0
4	445	991.89196686214	1
4	450	993.592636988663	2
4	452	995.06088645478	3
4	453	998.539845813005	3
4	454	999.976353951416	2
4	455	1006.534908125243	1
4	456	1006.622568835249	0
4	458	1008.314780315635	0
4	459	1011.915328242257	0
4	461	1012.966214610902	0
4	462	1013.957943540532	0
4	466	1018.219575777321	0
4	468	1018.378246406112	1
4	470	1020.804596268488	1
4	471	1024.546656381984	0
4	473	1033.460060157527	0
4	474	1034.555543428533	0
4	476	1037.687100701228	0
4	477	1039.114952314648	0
4	479	1053.982005230281	0
4	480	1059.127807577268	0
4	486	1087.119359711866	0
4	489	1093.170849962242	0
4	491	1102.540491660609	0
4	492	1102.991790736186	0
4	494	1104.720238786165	0
4	498	1111.515397920917	0
4	500	1113.692156924454	0
4	501	1115.231123312576	0
4	503	1148.073931961739	0
4	504	1149.061250894308	0
4	508	1158.994943503307	0
4	510	1159.869971217089	1
4	512	1169.915475863038	1
4	514	1170.270592856227	1
4	515	1172.641279409917	1
4	517	1172.886145916887	1
4	518	1175.319425100911	1
4	519	1177.415415482826	0
4	521	1178.431073673036	0
4	523	1180.180260533885	1
4	524	1184.952806613277	1
4	525	1185.38797985695	0
4	527	1187.386849011417	0
4	528	1188.578186413156	0
4	533	1213.938108252133	0
4	534	1216.972183814413	0
4	536	1220.894768537029	0
4	537	1225.793036395809	0
4	539	1246.89843674697	0
4	541	1247.276325723585	1
4	542	1248.537524473518	1
4	543	1253.327872079632	0
4	545	1266.056222790817	0
4	546	1267.1285680141	0
4	548	1278.370214318002	0
4	553	1284.448987743469	1
4	554	1284.455651540373	1
4	555	1293.341656203974	0
4	557	1294.136166031973	0
4	558	1294.975754169788	0
4	560	1301.96258254879	0
4	561	1305.442814983462	0
4	563	1317.004740683419	0
4	565	1321.089472312076	1
4	566	1322.138425784552	1
4	567	1326.041939218691	0
4	569	1327.240403897141	0
4	570	1329.131491166083	0
4	575	1339.31192988468	0
4	576	1340.804875321455	0
4	578	1344.089152158986	0
4	579	1348.120106768227	0
4	581	1354.139097917223	0
4	585	1357.590687385923	1
4	587	1362.401640317386	2
4	589	1363.214974085348	2
4	590	1365.067126142628	1
4	591	1366.547433273569	0
4	593	1370.548662839093	0
4	594	1376.535856261333	0
4	596	1393.477834516225	0
4	597	1393.810165244312	0
4	599	1394.357009853883	0
4	600	1397.990649632402	0
4	602	1399.467597341814	0
4	603	1408.805787764488	0
4	605	1409.444819982285	0
4	606	1409.996498600249	0
4	611	1413.916469106427	0
4	612	1417.701323997489	0
4	616	1442.842899766702	0
4	618	1449.321022130235	0
4	624	1460.245386861678	0
4	627	1467.598335559613	0
4	634	1482.431277285998	0
4	636	1482.922469037112	1
4	638	1488.817858173477	1
4	639	1497.674057437006	0
4	643	1504.007678257348	0
4	645	1506.351860737834	0
4	647	1516.603279450633	0
4	648	1517.41125997756	0
4	650	1520.830688733209	0
4	652	1521.897440116271	1
4	653	1522.269809050423	1
4	654	1525.880639137528	0
4	656	1534.041056993256	0
4	657	1534.167298757502	0
4	665	1567.933072131845	0
4	669	1572.156603046062	0
4	671	1575.426811134132	0
4	673	1577.614321941095	1
4	674	1578.443513952025	1
4	675	1579.805838843236	0
4	677	1588.382349111459	0
4	678	1593.274002019749	0
4	680	1604.98445020996	0
4	681	1605.075182698394	0
4	683	1608.10816906207	0
4	685	1611.611585584382	1
4	686	1614.936375351476	1
4	687	1616.604221824633	0
4	689	1620.970579796187	0
4	690	1621.620437520528	0
4	694	1629.016241169596	0
4	696	1629.509796788956	1
4	698	1632.431016845585	1
4	699	1638.272939757987	0
4	703	1645.107593448206	0
4	710	1656.998456245854	1
4	714	1667.385312246145	2
4	715	1669.818560492034	2
4	716	1670.401972083039	1
4	718	1670.941665386543	1
4	719	1671.836812218483	1
4	720	1673.239732763977	0
4	722	1677.340756018396	0
4	726	1678.795641541942	0
4	728	1679.151605878875	0
4	729	1680.596759861487	0
4	736	1698.499432454028	0
4	738	1702.537875751213	1
4	740	1709.045702375823	1
4	744	1710.023199632792	1
4	746	1711.831678986269	2
4	748	1715.552208276281	2
4	750	1715.794270075167	2
4	751	1716.841943507482	2
4	752	1718.988960710301	1
4	753	1723.69295011243	0
4	758	1740.402810295447	0
4	762	1747.101553312525	0
4	764	1754.371851842985	0
4	765	1755.510421511904	0
4	767	1757.712952114246	0
4	768	1759.934943602967	0
4	774	1803.563631578393	0
4	776	1804.702121163114	1
4	781	1813.945618333506	2
4	783	1815.189939142241	3
4	788	1830.000877789753	4
4	791	1839.295195219643	4
4	793	1844.087242559274	4
4	794	1847.35454100216	4
4	795	1849.779020111455	3
4	796	1850.628401218352	2
4	803	1859.804021448538	1
4	804	1860.22103669908	0
4	806	1865.352465476735	0
4	807	1866.180089099328	0
4	817	1883.609421275364	0
4	820	1885.977274496929	1
4	822	1886.339112843074	2
4	823	1888.919813519261	2
4	824	1897.208607871535	1
4	825	1898.29525146491	0
4	830	1925.322903074237	0
4	832	1926.617656675168	1
4	833	1928.42882635614	1
4	838	1946.452518246029	1
4	839	1947.232394413555	1
4	840	1947.96554718537	0
4	844	1968.617331088617	0
4	846	1978.588213961239	0
4	853	1983.774184273965	0
4	855	1988.342933625966	0
4	857	1991.012150132266	0
4	858	1991.229763553998	0
4	860	1995.96333466045	0
4	861	1998.300172786728	0
4	869	2021.788839862228	0
4	870	2026.355449340812	0
4	872	2027.965610252793	0
4	873	2029.52790293284	0
4	875	2036.670246191136	0
4	876	2036.777447920183	0
4	878	2038.612038391061	0
4	882	2043.664719947315	0
4	886	2053.451391923639	0
4	888	2059.720372977221	1
4	890	2065.213904978399	2
4	892	2070.785779899517	2
4	894	2070.960011779213	2
4	895	2074.303928866639	2
4	896	2076.036918155282	1
4	900	2078.106963906248	0
4	906	2088.416297189241	0
4	909	2094.55514914724	1
4	911	2099.423059657969	2
4	913	2106.297767674697	2
4	915	2109.526301819064	2
4	916	2111.74358117601	2
4	918	2113.901216392289	2
4	919	2116.275708695274	2
4	920	2116.692488065297	1
4	924	2120.36129396487	0
4	931	2152.7373224416	0
4	934	2158.324858173646	1
4	935	2160.175083338614	1
4	936	2160.407545170956	0
4	938	2170.032935115697	0
4	939	2170.087572427443	0
4	943	2175.059280819876	0
4	945	2175.89386075536	1
4	947	2180.205003296009	1
4	954	2194.035672294409	0
4	956	2194.513301538501	0
4	958	2197.181186761374	1
4	959	2198.251334013917	1
4	961	2201.862421686758	1
4	962	2205.146937049542	1
4	963	2205.637228785002	0
4	965	2205.989717082358	0
4	966	2207.041890963014	0
4	968	2210.635198036061	0
4	969	2213.496892200203	0
4	971	2215.605995918517	0
4	972	2216.377083079415	0
4	974	2220.983562150837	0
4	975	2221.474123917697	0
4	977	2237.146804838887	0
4	979	2242.672738216294	1
4	981	2243.211192938679	2
4	982	2243.459666094543	2
4	983	2245.31786340806	1
4	984	2246.911621124518	0
4	986	2254.082127145278	0
4	988	2255.276179260871	1
4	990	2257.380623580054	2
4	994	2265.590479484307	2
4	996	2265.712071714624	2
4	997	2271.154944568015	2
4	998	2273.154498429877	1
4	1000	2278.530645851194	1
4	1002	2279.373335041389	2
4	1003	2279.650885047934	2
4	1005	2282.299088262717	2
4	1006	2283.183021638621	2
4	1007	2283.921046544913	1
4	1008	2285.785194998221	0
4	1010	2288.557943251978	0
4	1011	2291.412665883729	0
4	1019	2321.438632138943	0
4	1020	2328.897204900255	0
4	1022	2332.743083346899	0
4	1024	2334.166339972331	1
4	1026	2334.24183420918	2
4	1027	2334.497061823697	2
4	1028	2338.453725876855	1
4	1029	2342.651082535788	0
4	1031	2350.681956625492	0
4	1032	2350.68826476356	0
4	1034	2362.032617962155	0
4	1035	2363.867314055458	0
4	1039	2366.417596998391	0
4	1044	2377.959667369637	0
4	1048	2382.613350806866	0
4	1052	2383.497710697982	1
4	1055	2397.543113130782	1
4	1056	2400.136671292081	0
4	1058	2419.292970577924	0
4	1062	2432.429685492346	1
4	1067	2441.033583354444	1
4	1068	2442.989630898247	0
4	1070	2452.103637946343	0
4	1071	2453.373030090818	0
5	134	354.172507827807	0
5	137	373.165573927013	0
5	149	393.279838510632	0
5	176	452.343978869191	44.136701517768
5	177	454.399096603492	42.400799153382
5	178	456.063060447484	43.691229627914
5	181	462.041743404251	25.968342531307
5	186	468.891454611709	31.577220796203
5	191	473.159630630026	35.831677683213
5	192	474.153662033303	22.911405881331
5	195	484.722244462549	24.911791487766
5	196	487.340208483893	24.795668360835
5	197	491.612852071788	24.507699363734
5	200	496.784307374085	27.805252327019
5	203	498.86061239656	26.940450262058
5	204	500.315355275092	25.219946656794
5	205	501.347326508233	6.758971970488
5	206	502.923714840605	5.210164224017
5	232	574.798551494121	47.171776408747
5	233	578.547140526941	7.403925125655
5	236	584.803823440732	5.412391184651
5	239	605.943574795199	0
5	244	613.773535751365	5.860312207724
5	245	619.548096206269	9.590148663193
5	250	628.11473213203	3.449065315891
5	253	635.445933021224	7.66764808191
5	254	636.652135796053	5.945283931612
5	257	637.691281226681	0.204187492036
5	260	642.546476969679	4.323937693114
5	263	646.306033823694	2.888765925852
5	266	653.393714807935	0
5	269	656.310268947339	0
5	281	674.6047529137	0
5	284	695.335114389194	0
5	287	701.516242444663	0
5	290	704.925125838561	0
5	293	711.815483747498	0
5	296	715.306736918413	3.265537240465
5	299	716.083007702857	0.418837926242
5	302	727.040126940911	0
5	305	735.618888755847	0
5	311	749.903906968698	3.764317029217
5	314	762.644089716245	0
5	317	765.774707186922	0
5	320	768.538631314541	0
5	323	770.078574642195	0.842962135347
5	326	787.248359323836	0
5	332	802.030438096236	0.022288855972
5	335	815.757023724541	0
5	338	822.315232027055	0
5	341	827.780229350482	4.919945018611
5	344	831.126561855114	2.989726628883
5	349	835.376973281357	3.247199967169
5	352	841.054220746202	7.99175611385
5	353	842.578330884214	2.369275948963
5	356	845.043579502083	0
5	359	849.89396026419	1.790170975255
5	362	853.51756743213	0
5	365	859.181040829311	1.945420046285
5	368	871.716141047027	0
5	374	883.044307710069	1.470326509117
5	377	884.51158050419	0.715184553725
5	380	887.922958595102	0.585353565335
5	387	895.543049325011	7.055544297408
5	390	900.723807108491	8.775397133628
5	391	902.308506763658	9.857241422343
5	392	904.531425360314	8.244402252291
5	397	907.591083990979	0.094203852756
5	406	918.584068381125	10.995629146882
5	407	920.511736824834	10.896914772867
5	412	935.022515319217	22.502958013594
5	413	937.774158268014	25.054406998603
5	416	942.063257407618	26.359788328216
5	417	948.921631658929	28.150029007815
5	418	949.501168735164	17.873559655955
5	419	950.229632948041	9.873515334361
5	422	952.926673196333	0
5	427	959.627638680341	4.938023365309
5	430	965.218297256321	7.028354080171
5	433	969.591964184277	5.318489483197
5	434	970.232464429844	2.926159925853
5	437	976.107099901279	4.813579518057
5	443	988.770386098451	0
5	448	993.185950264623	1.293983402483
5	453	998.539845813005	6.546155079777
5	454	999.976353951416	6.383716962753
5	455	1006.534908125243	11.474021670463
5	458	1008.314780315635	0
5	461	1012.966214610902	0
5	469	1018.987042073783	0.767466296462
5	470	1020.804596268488	2.426349862376
5	473	1033.460060157527	0
5	476	1037.687100701228	0
5	479	1053.982005230281	0
5	488	1090.441489807599	3.322130095733
5	491	1102.540491660609	0
5	494	1104.720238786165	0
5	497	1110.419174333675	2.834595915672
5	500	1113.692156924454	0
5	503	1148.073931961739	0
5	511	1169.126654541772	10.131711038465
5	512	1169.915475863038	10.045504645949
5	515	1172.641279409917	2.37068655369
5	518	1175.319425100911	2.433279184024
5	521	1178.431073673036	0
5	524	1184.952806613277	4.772546079392
5	527	1187.386849011417	0
5	533	1213.938108252133	0
5	536	1220.894768537029	0
5	539	1246.89843674697	0
5	542	1248.537524473518	1.261198749933
5	545	1266.056222790817	0
5	548	1278.370214318002	0
5	551	1281.786542774799	2.798344831193
5	554	1284.455651540373	0.006663796904
5	557	1294.136166031973	0
5	560	1301.96258254879	0
5	563	1317.004740683419	0
5	566	1322.138425784552	1.048953472476
5	569	1327.240403897141	0
5	575	1339.31192988468	0
5	578	1344.089152158986	0
5	581	1354.139097917223	0
5	588	1363.149784318676	8.823197322276
5	589	1363.214974085348	5.624286699425
5	590	1365.067126142628	2.665485825242
5	593	1370.548662839093	0
5	596	1393.477834516225	0
5	599	1394.357009853883	0
5	602	1399.467597341814	0
5	605	1409.444819982285	0
5	611	1413.916469106427	0
5	617	1448.728424851259	5.885525084557
5	626	1466.188933255895	5.943546394217
5	637	1483.128397108793	0.697119822795
5	638	1488.817858173477	5.895389136365
5	644	1504.98893954686	0.981261289512
5	647	1516.603279450633	0
5	650	1520.830688733209	0
5	653	1522.269809050423	0.372368934152
5	656	1534.041056993256	0
5	665	1567.933072131845	0
5	668	1571.563760989928	0.403524272151
5	671	1575.426811134132	0
5	674	1578.443513952025	0.82919201093
5	677	1588.382349111459	0
5	680	1604.98445020996	0
5	683	1608.10816906207	0
5	686	1614.936375351476	3.324789767094
5	689	1620.970579796187	0
5	697	1632.039400920458	3.023159750862
5	698	1632.431016845585	2.921220056629
5	712	1665.873193352555	20.765599904349
5	715	1669.818560492034	12.82010424618
5	716	1670.401972083039	3.016659836894
5	719	1671.836812218483	0.89514683194
5	722	1677.340756018396	0
5	725	1678.68321485218	0.70598634446
5	728	1679.151605878875	0
5	739	1704.613992080955	6.114559626927
5	740	1709.045702375823	6.50782662461
5	747	1713.944045116367	3.970092173932
5	748	1715.552208276281	5.529008643489
5	751	1716.841943507482	5.010264521213
5	752	1718.988960710301	3.194690635134
5	758	1740.402810295447	0
5	761	1746.071274878812	4.439559000648
5	764	1754.371851842985	0
5	767	1757.712952114246	0
5	790	1836.934664151769	33.371032573376
5	791	1839.295195219643	34.593074056529
5	794	1847.35454100216	33.408922668654
5	795	1849.779020111455	34.589080969214
5	796	1850.628401218352	20.627523428599
5	799	1854.292799308779	10.205556749505
5	802	1858.655424758866	6.09487656604
5	803	1859.804021448538	5.227507587522
5	806	1865.352465476735	0
5	818	1883.840859431133	0.231438155769
5	823	1888.919813519261	2.942539022332
5	824	1897.208607871535	10.869495028461
5	830	1925.322903074237	0
5	833	1928.42882635614	1.811169680972
5	836	1944.937328115123	15.428153524095
5	839	1947.232394413555	0.779876167526
5	845	1970.870615890977	2.25328480236
5	854	1984.884514547349	1.110330273384
5	857	1991.012150132266	0
5	860	1995.96333466045	0
5	869	2021.788839862228	0
5	872	2027.965610252793	0
5	875	2036.670246191136	0
5	878	2038.612038391061	0
5	881	2043.604316702735	3.354681181577
5	891	2068.65135966665	15.199967743011
5	892	2070.785779899517	11.065406922296
5	895	2074.303928866639	9.09002388824
5	896	2076.036918155282	5.076906376069
5	899	2076.399424914474	0.1519732187
5	912	2102.779165017444	14.362867828203
5	913	2106.297767674697	11.742618527457
5	916	2111.74358117601	12.320521518041
5	919	2116.275708695274	6.74940687621
5	920	2116.692488065297	2.791271673008
5	923	2120.283816049611	3.523663390903
5	932	2157.943203256875	5.205880815275
5	935	2160.175083338614	1.850225164968
5	938	2170.032935115697	0
5	946	2177.41957526298	2.360294443104
5	947	2180.205003296009	4.311142540649
5	953	2191.971899365691	8.930936468365
5	956	2194.513301538501	0
5	959	2198.251334013917	1.070147252543
5	962	2205.146937049542	3.284515362784
5	965	2205.989717082358	0
5	968	2210.635198036061	0
5	971	2215.605995918517	0
5	974	2220.983562150837	0
5	977	2237.146804838887	0
5	982	2243.459666094543	0.786927878249
5	983	2245.31786340806	2.106670469381
5	986	2254.082127145278	0
5	993	2265.177139724753	9.900960463882
5	994	2265.590479484307	8.209855904253
5	997	2271.154944568015	7.296547711959
5	998	2273.154498429877	7.442426715253
5	1003	2279.650885047934	1.12023919674
5	1006	2283.183021638621	3.809686597232
5	1007	2283.921046544913	1.621958282196
5	1010	2288.557943251978	0
5	1019	2321.438632138943	0
5	1022	2332.743083346899	0
5	1027	2334.497061823697	0.330721851366
5	1028	2338.453725876855	4.211891667675
5	1031	2350.681956625492	0
5	1034	2362.032617962155	0
5	1043	2374.606931049781	8.18933405139
5	1054	2397.431203829804	14.817853022938
5	1055	2397.543113130782	14.0454024328
5	1058	2419.292970577924	0
5	1066	2438.562408681822	18.497614813033
5	1067	2441.033583354444	8.603897862098
5	1070	2452.103637946343	0
6	135	358.601294351195	26
6	138	373.754073577382	27
6	150	394.691216800596	28
6	177	454.399096603492	29
6	178	456.063060447484	30
6	181	462.041743404251	31
6	191	473.159630630026	32
6	192	474.153662033303	33
6	195	484.722244462549	34
6	196	487.340208483893	35
6	197	491.612852071788	36
6	200	496.784307374085	37
6	203	498.86061239656	38
6	204	500.315355275092	39
6	205	501.347326508233	40
6	206	502.923714840605	41
6	207	505.454880696468	42
6	233	578.547140526941	43
6	236	584.803823440732	44
6	237	585.750709420881	45
6	244	613.773535751365	46
6	245	619.548096206269	47
6	253	635.445933021224	48
6	254	636.652135796053	49
6	257	637.691281226681	50
6	263	646.306033823694	51
6	264	647.100248427299	52
6	267	655.574872607434	53
6	270	657.241974334888	54
6	282	675.155929305055	55
6	285	695.602172463239	56
6	288	702.580668031448	57
6	291	709.094291533298	58
6	299	716.083007702857	59
6	300	717.543423851575	60
6	303	728.229104540175	61
6	306	738.418114492072	62
6	312	751.753245134433	63
6	315	763.177363227926	64
6	318	768.132918972467	65
6	323	770.078574642195	66
6	324	770.813978665419	67
6	327	792.14300801099	68
6	333	806.856777414347	69
6	336	818.09255486457	70
6	344	831.126561855114	71
6	349	835.376973281357	72
6	352	841.054220746202	73
6	353	842.578330884214	74
6	354	843.51229600601	75
6	359	849.89396026419	76
6	360	852.756130483601	77
6	365	859.181040829311	78
6	366	862.354224184714	79
6	369	871.973791776638	80
6	377	884.51158050419	81
6	390	900.723807108491	82
6	391	902.308506763658	83
6	392	904.531425360314	84
6	407	920.511736824834	85
6	413	937.774158268014	86
6	416	942.063257407618	87
6	417	948.921631658929	88
6	418	949.501168735164	89
6	419	950.229632948041	90
6	420	952.249856168041	91
6	427	959.627638680341	92
6	433	969.591964184277	93
6	434	970.232464429844	94
6	437	976.107099901279	95
6	438	977.758516393251	96
6	453	998.539845813005	97
6	454	999.976353951416	98
6	455	1006.534908125243	99
6	456	1006.622568835249	100
6	459	1011.915328242257	101
6	462	1013.957943540532	102
6	470	1020.804596268488	103
6	471	1024.546656381984	104
6	474	1034.555543428533	105
6	477	1039.114952314648	106
6	480	1059.127807577268	107
6	489	1093.170849962242	108
6	492	1102.991790736186	109
6	498	1111.515397920917	110
6	501	1115.231123312576	111
6	504	1149.061250894308	112
6	512	1169.915475863038	113
6	515	1172.641279409917	114
6	518	1175.319425100911	115
6	519	1177.415415482826	116
6	524	1184.952806613277	117
6	525	1185.38797985695	118
6	528	1188.578186413156	119
6	534	1216.972183814413	120
6	537	1225.793036395809	121
6	542	1248.537524473518	122
6	543	1253.327872079632	123
6	546	1267.1285680141	124
6	554	1284.455651540373	125
6	555	1293.341656203974	126
6	558	1294.975754169788	127
6	561	1305.442814983462	128
6	566	1322.138425784552	129
6	567	1326.041939218691	130
6	570	1329.131491166083	131
6	576	1340.804875321455	132
6	579	1348.120106768227	133
6	589	1363.214974085348	134
6	590	1365.067126142628	135
6	591	1366.547433273569	136
6	594	1376.535856261333	137
6	597	1393.810165244312	138
6	600	1397.990649632402	139
6	603	1408.805787764488	140
6	606	1409.996498600249	141
6	612	1417.701323997489	142
6	618	1449.321022130235	143
6	627	1467.598335559613	144
6	638	1488.817858173477	145
6	639	1497.674057437006	146
6	645	1506.351860737834	147
6	648	1517.41125997756	148
6	653	1522.269809050423	149
6	654	1525.880639137528	150
6	657	1534.167298757502	151
6	669	1572.156603046062	152
6	674	1578.443513952025	153
6	675	1579.805838843236	154
6	678	1593.274002019749	155
6	681	1605.075182698394	156
6	686	1614.936375351476	157
6	687	1616.604221824633	158
6	690	1621.620437520528	159
6	698	1632.431016845585	160
6	699	1638.272939757987	161
6	715	1669.818560492034	162
6	716	1670.401972083039	163
6	719	1671.836812218483	164
6	720	1673.239732763977	165
6	726	1678.795641541942	166
6	729	1680.596759861487	167
6	740	1709.045702375823	168
6	748	1715.552208276281	169
6	751	1716.841943507482	170
6	752	1718.988960710301	171
6	753	1723.69295011243	172
6	762	1747.101553312525	173
6	765	1755.510421511904	174
6	768	1759.934943602967	175
6	791	1839.295195219643	176
6	794	1847.35454100216	177
6	795	1849.779020111455	178
6	796	1850.628401218352	179
6	803	1859.804021448538	180
6	804	1860.22103669908	181
6	807	1866.180089099328	182
6	823	1888.919813519261	183
6	824	1897.208607871535	184
6	825	1898.29525146491	185
6	833	1928.42882635614	186
6	839	1947.232394413555	187
6	840	1947.96554718537	188
6	846	1978.588213961239	189
6	855	1988.342933625966	190
6	858	1991.229763553998	191
6	861	1998.300172786728	192
6	870	2026.355449340812	193
6	873	2029.52790293284	194
6	876	2036.777447920183	195
6	882	2043.664719947315	196
6	892	2070.785779899517	197
6	895	2074.303928866639	198
6	896	2076.036918155282	199
6	900	2078.106963906248	200
6	913	2106.297767674697	201
6	916	2111.74358117601	202
6	919	2116.275708695274	203
6	920	2116.692488065297	204
6	924	2120.36129396487	205
6	935	2160.175083338614	206
6	936	2160.407545170956	207
6	939	2170.087572427443	208
6	947	2180.205003296009	209
6	954	2194.035672294409	210
6	959	2198.251334013917	211
6	962	2205.146937049542	212
6	963	2205.637228785002	213
6	966	2207.041890963014	214
6	969	2213.496892200203	215
6	972	2216.377083079415	216
6	975	2221.474123917697	217
6	982	2243.459666094543	218
6	983	2245.31786340806	219
6	984	2246.911621124518	220
6	994	2265.590479484307	221
6	997	2271.154944568015	222
6	998	2273.154498429877	223
6	1003	2279.650885047934	224
6	1006	2283.183021638621	225
6	1007	2283.921046544913	226
6	1008	2285.785194998221	227
6	1011	2291.412665883729	228
6	1020	2328.897204900255	229
6	1027	2334.497061823697	230
6	1028	2338.453725876855	231
6	1029	2342.651082535788	232
6	1032	2350.68826476356	233
6	1035	2363.867314055458	234
6	1044	2377.959667369637	235
6	1055	2397.543113130782	236
6	1056	2400.136671292081	237
6	1067	2441.033583354444	238
6	1068	2442.989630898247	239
6	1071	2453.373030090818	240
7	135	358.601294351195	4.428786523388
7	138	373.754073577382	0.588499650369
7	150	394.691216800596	1.411378289964
7	177	454.399096603492	46.191819252069
7	178	456.063060447484	44.064762997374
7	181	462.041743404251	49.669912584681
7	191	473.159630630026	35.84539681452
7	192	474.153662033303	36.82570908649
7	195	484.722244462549	33.479988310577
7	196	487.340208483893	27.52975550911
7	197	491.612852071788	29.06831194873
7	200	496.784307374085	29.679154666031
7	203	498.86061239656	29.881557349494
7	204	500.315355275092	28.39519314059
7	205	501.347326508233	26.251917889935
7	206	502.923714840605	8.33536030286
7	207	505.454880696468	7.74133007988
7	233	578.547140526941	50.920365441567
7	236	584.803823440732	13.660608039446
7	237	585.750709420881	6.3592771648
7	244	613.773535751365	7.829960956166
7	245	619.548096206269	11.634872662628
7	253	635.445933021224	10.780266205085
7	254	636.652135796053	8.873850856739
7	257	637.691281226681	6.98442936224
7	263	646.306033823694	8.083494547129
7	264	647.100248427299	3.682980529457
7	267	655.574872607434	2.181157799499
7	270	657.241974334888	0.931705387549
7	282	675.155929305055	0.551176391355
7	285	695.602172463239	0.267058074045
7	288	702.580668031448	1.064425586785
7	291	709.094291533298	4.169165694737
7	299	716.083007702857	4.041808024909
7	300	717.543423851575	1.87925407496
7	303	728.229104540175	1.188977599264
7	306	738.418114492072	2.799225736225
7	312	751.753245134433	5.613655194952
7	315	763.177363227926	0.533273511681
7	318	768.132918972467	2.358211785545
7	323	770.078574642195	1.539943327654
7	324	770.813978665419	1.578366158571
7	327	792.14300801099	4.894648687154
7	333	806.856777414347	4.848628174083
7	336	818.09255486457	2.335531140029
7	344	831.126561855114	8.266277523243
7	349	835.376973281357	7.240138055126
7	352	841.054220746202	8.924447432014
7	353	842.578330884214	9.515866251862
7	354	843.51229600601	3.303241070759
7	359	849.89396026419	4.850380762107
7	360	852.756130483601	4.652341194666
7	365	859.181040829311	5.663473397181
7	366	862.354224184714	5.118603401688
7	369	871.973791776638	0.257650729611
7	377	884.51158050419	2.937599303238
7	390	900.723807108491	12.236302080888
7	391	902.308506763658	10.360096788795
7	392	904.531425360314	12.080160018999
7	407	920.511736824834	12.923297590591
7	413	937.774158268014	25.254600962391
7	416	942.063257407618	29.343506138207
7	417	948.921631658929	33.218162579527
7	418	949.501168735164	28.72956608405
7	419	950.229632948041	18.602023868832
7	420	952.249856168041	11.893738554361
7	427	959.627638680341	6.700965484008
7	433	969.591964184277	11.402021008127
7	434	970.232464429844	5.958989728764
7	437	976.107099901279	8.800795397288
7	438	977.758516393251	6.464996010029
7	453	998.539845813005	6.647878950865
7	454	999.976353951416	7.982663218188
7	455	1006.534908125243	12.94227113658
7	456	1006.622568835249	11.561682380469
7	459	1011.915328242257	3.600547926622
7	462	1013.957943540532	0.99172892963
7	470	1020.804596268488	2.585020491167
7	471	1024.546656381984	6.168409975872
7	474	1034.555543428533	1.095483271006
7	477	1039.114952314648	1.42785161342
7	480	1059.127807577268	5.145802346987
7	489	1093.170849962242	6.051490250376
7	492	1102.991790736186	0.451299075577
7	498	1111.515397920917	3.930819502914
7	501	1115.231123312576	1.538966388122
7	504	1149.061250894308	0.987318932569
7	512	1169.915475863038	10.920532359731
7	515	1172.641279409917	12.771308192828
7	518	1175.319425100911	5.048832244684
7	519	1177.415415482826	4.529269565939
7	524	1184.952806613277	6.521732940241
7	525	1185.38797985695	5.207719323065
7	528	1188.578186413156	1.191337401739
7	534	1216.972183814413	3.03407556228
7	537	1225.793036395809	4.89826785878
7	542	1248.537524473518	1.639087726548
7	543	1253.327872079632	6.051546356047
7	546	1267.1285680141	1.072345223283
7	554	1284.455651540373	5.467453596767
7	555	1293.341656203974	8.892668460505
7	558	1294.975754169788	0.839588137815
7	561	1305.442814983462	3.480232434672
7	566	1322.138425784552	5.133685101133
7	567	1326.041939218691	4.952466906615
7	570	1329.131491166083	1.891087268942
7	576	1340.804875321455	1.492945436775
7	579	1348.120106768227	4.030954609241
7	589	1363.214974085348	8.888387088948
7	590	1365.067126142628	7.476438756705
7	591	1366.547433273569	4.145792956183
7	594	1376.535856261333	5.98719342224
7	597	1393.810165244312	0.332330728087
7	600	1397.990649632402	3.633639778519
7	603	1408.805787764488	9.338190422674
7	606	1409.996498600249	0.551678617964
7	612	1417.701323997489	3.784854891062
7	618	1449.321022130235	6.478122363533
7	627	1467.598335559613	7.352948697935
7	638	1488.817858173477	6.386580887479
7	639	1497.674057437006	14.751588399894
7	645	1506.351860737834	2.344182480486
7	648	1517.41125997756	0.807980526927
7	653	1522.269809050423	1.439120317214
7	654	1525.880639137528	3.983199021257
7	657	1534.167298757502	0.126241764246
7	669	1572.156603046062	0.996366328285
7	674	1578.443513952025	3.016702817893
7	675	1579.805838843236	2.191516902141
7	678	1593.274002019749	4.89165290829
7	681	1605.075182698394	0.090732488434
7	686	1614.936375351476	6.828206289406
7	687	1616.604221824633	4.992636240251
7	690	1621.620437520528	0.649857724341
7	698	1632.431016845585	3.414775675989
7	699	1638.272939757987	8.763142969031
7	715	1669.818560492034	24.710967043828
7	716	1670.401972083039	13.403515837185
7	719	1671.836812218483	4.451499972338
7	720	1673.239732763977	2.298067377434
7	726	1678.795641541942	0.818413034222
7	729	1680.596759861487	1.445153982612
7	740	1709.045702375823	10.546269921795
7	748	1715.552208276281	5.578255333846
7	751	1716.841943507482	6.81874387469
7	752	1718.988960710301	7.157281724032
7	753	1723.69295011243	7.898680037263
7	762	1747.101553312525	5.469837434361
7	765	1755.510421511904	1.138569668919
7	768	1759.934943602967	2.221991488721
7	791	1839.295195219643	35.73156364125
7	794	1847.35454100216	42.652419839046
7	795	1849.779020111455	35.833401777949
7	796	1850.628401218352	35.438462076111
7	803	1859.804021448538	7.243473255712
7	804	1860.22103669908	5.644522838064
7	807	1866.180089099328	0.827623622593
7	823	1888.919813519261	5.310392243897
7	824	1897.208607871535	11.231333374606
7	825	1898.29525146491	11.956138621836
7	833	1928.42882635614	3.105923281903
7	839	1947.232394413555	17.723219822527
7	840	1947.96554718537	1.513028939341
7	846	1978.588213961239	9.970882872622
7	855	1988.342933625966	4.568749352001
7	858	1991.229763553998	0.217613421732
7	861	1998.300172786728	2.336838126278
7	870	2026.355449340812	4.566609478584
7	873	2029.52790293284	1.562292680047
7	876	2036.777447920183	0.107201729047
7	882	2043.664719947315	3.415084426157
7	892	2070.785779899517	17.334387975878
7	895	2074.303928866639	14.583555889418
7	896	2076.036918155282	10.823013176883
7	900	2078.106963906248	1.859512210474
7	913	2106.297767674697	17.881470485456
7	916	2111.74358117601	17.18843202877
7	919	2116.275708695274	16.852649037305
7	920	2116.692488065297	7.166186246233
7	924	2120.36129396487	3.601141306162
7	935	2160.175083338614	7.437760897014
7	936	2160.407545170956	2.08268699731
7	939	2170.087572427443	0.054637311746
7	947	2180.205003296009	5.145722476133
7	954	2194.035672294409	10.994709397083
7	959	2198.251334013917	3.738032475416
7	962	2205.146937049542	7.965750288168
7	963	2205.637228785002	3.774807098244
7	966	2207.041890963014	1.052173880656
7	969	2213.496892200203	2.861694164142
7	972	2216.377083079415	0.771087160898
7	975	2221.474123917697	0.49056176686
7	982	2243.459666094543	6.312861255656
7	983	2245.31786340806	2.645125191766
7	984	2246.911621124518	3.700428185839
7	994	2265.590479484307	10.314300223436
7	997	2271.154944568015	13.774320987961
7	998	2273.154498429877	9.296101573821
7	1003	2279.650885047934	13.93881333331
7	1006	2283.183021638621	4.652375787427
7	1007	2283.921046544913	4.547711503524
7	1008	2285.785194998221	3.486106735504
7	1011	2291.412665883729	2.854722631751
7	1020	2328.897204900255	7.458572761312
7	1027	2334.497061823697	1.753978476798
7	1028	2338.453725876855	4.287385904524
7	1029	2342.651082535788	8.409248326608
7	1032	2350.68826476356	0.006308138068
7	1035	2363.867314055458	1.834696093303
7	1044	2377.959667369637	11.542070371246
7	1055	2397.543113130782	14.929762323916
7	1056	2400.136671292081	16.638960594099
7	1067	2441.033583354444	20.968789485655
7	1068	2442.989630898247	10.559945405901
7	1071	2453.373030090818	1.269392144475
8	140	381.910508285344	1
8	142	382.12216177113	2
8	146	385.458599038288	1
8	152	401.932998597983	1
8	154	404.293112790177	2
8	169	437.903864460807	2
8	171	439.767450543379	3
8	185	467.105152708054	1
8	209	507.778352471988	1
8	211	511.970843354015	2
8	213	523.641403692857	3
8	215	523.764599663184	4
8	218	526.525142992614	4
8	225	556.097184880185	2
8	228	564.45633319999	2
8	249	627.778284939314	1
8	259	638.222539276565	1
8	272	662.431607004495	1
8	274	662.436923341715	2
8	278	669.501349085891	1
8	295	712.041199677948	1
8	308	741.260931673624	1
8	329	799.551242766425	1
8	340	822.860284331871	1
8	371	877.543810870645	1
8	379	887.337605029767	1
8	382	888.487505027603	1
8	396	907.588439234243	1
8	399	909.614822051967	1
8	409	920.771602651114	1
8	429	964.27347470108	1
8	440	981.828805080065	1
8	447	991.993690733228	1
8	464	1016.249624094874	1
8	482	1077.928705248913	1
8	484	1080.302015026252	2
8	496	1107.584578418003	1
8	506	1158.933809594803	1
8	530	1188.996723057024	1
8	550	1278.988197943606	1
8	572	1331.699076905576	1
8	583	1354.3265869964	1
8	608	1410.690821772367	1
8	614	1442.401810080516	1
8	620	1458.263650676793	1
8	622	1458.853799594753	2
8	629	1474.67750170795	1
8	632	1478.591938273987	1
8	641	1499.350124495382	1
8	659	1540.927398831871	1
8	662	1543.83572861612	1
8	667	1571.160236717777	1
8	692	1627.011532211296	1
8	701	1641.200728983196	1
8	705	1649.139788179428	2
8	708	1651.886764969815	2
8	724	1677.97722850772	1
8	731	1691.221218932796	1
8	734	1695.469903337416	1
8	742	1709.973952942435	1
8	755	1734.173751778239	1
8	760	1741.631715878164	1
8	770	1795.251777029999	1
8	772	1796.186514870931	2
8	778	1810.233699922377	3
8	786	1821.747407345427	2
8	798	1852.560548192826	1
8	801	1854.576513861016	1
8	809	1868.175832967458	1
8	812	1869.101112407136	1
8	815	1883.079443135498	1
8	827	1906.172223784969	1
8	835	1929.509174591028	1
8	842	1967.343964080476	1
8	848	1979.682068380707	1
8	851	1982.357432335051	1
8	863	2003.786686497585	1
8	866	2006.5504223079	1
8	880	2040.249635521158	1
8	884	2053.063007369747	1
8	898	2076.247451695774	1
8	902	2080.649378436169	1
8	904	2086.329528345313	2
8	922	2116.760152658708	1
8	926	2130.649701280081	1
8	929	2149.349687489204	1
8	941	2171.319197265902	1
8	949	2183.040962897326	1
8	951	2183.478361293144	2
8	992	2263.858396856056	1
8	1013	2294.457992447564	1
8	1016	2319.143568197383	1
8	1037	2364.097716176362	1
8	1041	2369.034416376807	2
8	1046	2379.332298766566	1
8	1050	2382.99845866801	2
8	1060	2420.064793868789	1
8	1064	2435.541766541786	2
8	1073	2461.309526535168	1
8	1076	2468.83020005602	1
8	1079	2471.034788360199	1
9	140	381.910508285344	0
9	143	384.69280911483	2.5706473437
9	146	385.458599038288	0
9	152	401.932998597983	0
9	161	412.705211130998	8.412098340821
9	172	441.531727928661	3.627863467854
9	175	452.343563383107	12.576112839728
9	185	467.105152708054	0
9	209	507.778352471988	0
9	216	526.417460262455	14.44661690844
9	221	530.870354257102	7.228950564245
9	222	533.586420236173	9.821820572989
9	223	552.767964943804	26.24282195119
9	226	558.489530617745	2.39234573756
9	229	567.814208826407	3.357875626417
9	249	627.778284939314	0
9	259	638.222539276565	0
9	272	662.431607004495	0
9	275	664.17758241064	1.740659068925
9	278	669.501349085891	0
9	295	712.041199677948	0
9	308	741.260931673624	0
9	329	799.551242766425	0
9	340	822.860284331871	0
9	371	877.543810870645	0
9	379	887.337605029767	0
9	382	888.487505027603	0
9	396	907.588439234243	0
9	399	909.614822051967	0
9	409	920.771602651114	0
9	429	964.27347470108	0
9	440	981.828805080065	0
9	447	991.993690733228	0
9	464	1016.249624094874	0
9	482	1077.928705248913	0
9	487	1088.314506891259	8.012491865007
9	496	1107.584578418003	0
9	506	1158.933809594803	0
9	530	1188.996723057024	0
9	550	1278.988197943606	0
9	572	1331.699076905576	0
9	583	1354.3265869964	0
9	608	1410.690821772367	0
9	614	1442.401810080516	0
9	620	1458.263650676793	0
9	625	1465.554158252425	6.700358657672
9	629	1474.67750170795	0
9	632	1478.591938273987	0
9	641	1499.350124495382	0
9	659	1540.927398831871	0
9	662	1543.83572861612	0
9	667	1571.160236717777	0
9	692	1627.011532211296	0
9	701	1641.200728983196	0
9	706	1650.09608815842	0.956299978992
9	711	1662.751489283489	10.864724313674
9	724	1677.97722850772	0
9	731	1691.221218932796	0
9	734	1695.469903337416	0
9	742	1709.973952942435	0
9	755	1734.173751778239	0
9	760	1741.631715878164	0
9	770	1795.251777029999	0
9	779	1812.445026922555	16.258512051624
9	784	1819.872577436233	9.638877513856
9	789	1831.601341753254	9.853934407827
9	798	1852.560548192826	0
9	801	1854.576513861016	0
9	809	1868.175832967458	0
9	812	1869.101112407136	0
9	815	1883.079443135498	0
9	827	1906.172223784969	0
9	835	1929.509174591028	0
9	842	1967.343964080476	0
9	848	1979.682068380707	0
9	851	1982.357432335051	0
9	863	2003.786686497585	0
9	866	2006.5504223079	0
9	880	2040.249635521158	0
9	884	2053.063007369747	0
9	898	2076.247451695774	0
9	902	2080.649378436169	0
9	907	2092.243061902602	5.913533557289
9	922	2116.760152658708	0
9	926	2130.649701280081	0
9	929	2149.349687489204	0
9	941	2171.319197265902	0
9	949	2183.040962897326	0
9	952	2191.834015886391	8.355654593247
9	992	2263.858396856056	0
9	1013	2294.457992447564	0
9	1016	2319.143568197383	0
9	1037	2364.097716176362	0
9	1042	2371.472353185635	2.437936808828
9	1046	2379.332298766566	0
9	1053	2386.87237976446	3.87392109645
9	1060	2420.064793868789	0
9	1065	2437.764480382394	2.222713840608
9	1073	2461.309526535168	0
9	1076	2468.83020005602	0
9	1079	2471.034788360199	0
10	185	467.105152708054	4
10	249	627.778284939314	5
10	259	638.222539276565	6
10	295	712.041199677948	7
10	340	822.860284331871	8
10	379	887.337605029767	9
10	382	888.487505027603	10
10	396	907.588439234243	11
10	399	909.614822051967	12
10	409	920.771602651114	13
10	429	964.27347470108	14
10	447	991.993690733228	15
10	496	1107.584578418003	16
10	550	1278.988197943606	17
10	583	1354.3265869964	18
10	667	1571.160236717777	19
10	724	1677.97722850772	20
10	742	1709.973952942435	21
10	760	1741.631715878164	22
10	798	1852.560548192826	23
10	801	1854.576513861016	24
10	835	1929.509174591028	25
10	880	2040.249635521158	26
10	898	2076.247451695774	27
10	922	2116.760152658708	28
10	949	2183.040962897326	29
10	992	2263.858396856056	30
10	1060	2420.064793868789	31
11	1081	2500	0.096
12	1081	2500	0.048

