file 66404 1678524304                                           
version 2
run experiments_medium_game_mode1-1427-20230311-09:45:04-15829
attr configname experiments_medium_game_mode1
attr datetime 20230311-09:45:04
attr experiment experiments_medium_game_mode1
attr inifile omnetpp.ini
attr iterationvars "$0=7, $1=6, $2=100"
attr iterationvarsf 7,6,100-
attr measurement "$0=7, $1=6, $2=100"
attr network Network
attr processid 15829
attr repetition 17
attr replication #17
attr resultdir results
attr runnumber 1427
attr seedset 17
param *.boss.arrival_mean 20
param *.boss.service_mean 7
param *.minion.arrival_mean 10
param *.minion.service_mean 6
param *.player.recover_rate_x 100
param **.minion.arrival_distribution 0
param **.minion.service_distribution 0
param **.boss.arrival_distribution 0
param **.boss.service_distribution 0

vector 0 Network.player boss_jobs_number_stat:vector ETV
attr source signal_boss_jobs_number
vector 1 Network.player boss_jobs_queue_number_stat:vector ETV
attr source signal_boss_jobs_queue_number
vector 2 Network.player boss_defeated_stat:vector ETV
attr source signal_boss_defeated
vector 3 Network.player boss_response_time_stat:vector ETV
attr source signal_boss_response_time
vector 4 Network.player boss_waiting_time_stat:vector ETV
attr source signal_boss_waiting_time
vector 5 Network.player minion_jobs_number_stat:vector ETV
attr source signal_minion_jobs_number
vector 6 Network.player minion_jobs_queue_number_stat:vector ETV
attr source signal_minion_jobs_queue_number
vector 7 Network.player minion_waiting_time_stat:vector ETV
attr source signal_minion_waiting_time
vector 8 Network.player minion_defeated_stat:vector ETV
attr source signal_minion_defeated
vector 9 Network.player minion_response_time_stat:vector ETV
attr source signal_minion_response_time
vector 10 Network.player minion_recovered_stat:vector ETV
attr source signal_minion_recovered
vector 11 Network.player minion_throughput:vector ETV
attr source signal_minion_throughput
vector 12 Network.player boss_throughput:vector ETV
attr source signal_boss_throughput
0	2021 3033 151 1151 350.171511211393 2489.726720628059 118 1 5 199 457
1	5054 6170 151 1152 350.171511211393 2493.103311790017 240 0 4 168 368
2	11224 3298 152 1152 352.42918485504 2493.103311790017 122 17 138 9455 884073
3	14522 4758 152 1152 352.42918485504 2493.103311790017 122 0.097105125126 48.769181086019 1383.2017030175 28645.687976092
4	19280 3774 152 1151 352.42918485504 2489.726720628059 121 0 46.66706443589 562.26310204371 10742.46569169
5	23054 5716 158 1149 361.587814466951 2488.977018924844 219 1 19 1793 19531
6	28770 11119 158 1153 361.587814466951 2499.675833516911 427 0 18 3027 30887
7	39889 10719 182 1153 391.534492804942 2499.675833516911 274 0 147.78701360458 14576.3101882 1153599.457459
8	50608 5709 185 1153 399.640595388406 2499.675833516911 208 28 235 27352 4346680
9	56317 8244 185 1153 399.640595388406 2499.675833516911 208 0.225441900262 151.33492747878 11737.8255524 933559.14115912
10	64561 1803 189 1151 401.159380145501 2489.726720628059 65 5 69 2405 111865
11	66364 19 1154 1154 2500 2500 1 0.094 0.094 0.094 0.008836
12	66383 20 1154 1154 2500 2500 1 0.0552 0.0552 0.0552 0.00304704

