version 2
run experiments_medium_game_mode1-1712-20230311-09:46:16-17259
attr configname experiments_medium_game_mode1
attr datetime 20230311-09:46:16
attr experiment experiments_medium_game_mode1
attr inifile omnetpp.ini
attr iterationvars "$0=7.5, $1=6, $2=100"
attr iterationvarsf 7.5,6,100-
attr measurement "$0=7.5, $1=6, $2=100"
attr network Network
attr processid 17259
attr repetition 2
attr replication #2
attr resultdir results
attr runnumber 1712
attr seedset 2
param *.boss.arrival_mean 20
param *.boss.service_mean 7.5
param *.minion.arrival_mean 10
param *.minion.service_mean 6
param *.player.recover_rate_x 100
param **.minion.arrival_distribution 0
param **.minion.service_distribution 0
param **.boss.arrival_distribution 0
param **.boss.service_distribution 0

vector 0 Network.player minion_jobs_number_stat:vector ETV
attr source signal_minion_jobs_number
vector 1 Network.player minion_jobs_queue_number_stat:vector ETV
attr source signal_minion_jobs_queue_number
vector 2 Network.player minion_defeated_stat:vector ETV
attr source signal_minion_defeated
vector 3 Network.player minion_response_time_stat:vector ETV
attr source signal_minion_response_time
vector 4 Network.player minion_waiting_time_stat:vector ETV
attr source signal_minion_waiting_time
vector 5 Network.player boss_jobs_number_stat:vector ETV
attr source signal_boss_jobs_number
vector 6 Network.player boss_jobs_queue_number_stat:vector ETV
attr source signal_boss_jobs_queue_number
vector 7 Network.player minion_recovered_stat:vector ETV
attr source signal_minion_recovered
vector 8 Network.player boss_waiting_time_stat:vector ETV
attr source signal_boss_waiting_time
vector 9 Network.player boss_defeated_stat:vector ETV
attr source signal_boss_defeated
vector 10 Network.player boss_response_time_stat:vector ETV
attr source signal_boss_response_time
vector 11 Network.player minion_throughput:vector ETV
attr source signal_minion_throughput
vector 12 Network.player boss_throughput:vector ETV
attr source signal_boss_throughput
0	160	361.253872248248	11
0	167	382.033569988247	10
0	169	386.094833956454	11
0	171	386.647961139654	12
0	173	389.11721552314	13
0	176	392.226410515015	13
0	178	392.907147651836	14
0	180	396.36227194133	15
0	194	437.031828547986	15
0	196	448.318011895377	16
0	198	449.686015902366	17
0	201	453.261598126964	18
0	204	457.149607354789	18
0	207	459.167132141822	18
0	209	459.902982320572	19
0	211	465.705246785592	20
0	213	468.251201226019	21
0	217	475.822507308272	22
0	221	480.825237471622	22
0	230	509.866602764496	21
0	238	532.51419919372	21
0	241	539.722009720888	22
0	244	543.960260144784	23
0	249	555.155696511461	24
0	260	596.98708789577	18
0	262	598.284845066716	19
0	264	598.576374058973	20
0	268	602.620604624623	21
0	270	606.95438653281	22
0	272	610.162704550092	23
0	274	614.958540455523	24
0	278	623.406264846895	25
0	282	637.852286977402	26
0	284	648.643934406955	27
0	287	676.580654484565	28
0	291	679.89463627924	29
0	295	683.746700318794	29
0	297	685.331815749873	30
0	299	690.996536964801	31
0	301	692.204779726722	32
0	306	695.353883843244	32
0	309	706.298540363435	33
0	318	722.445853962356	33
0	320	723.104634167044	34
0	327	733.272343944783	30
0	332	739.797730469372	30
0	334	740.509362681322	31
0	341	750.972521332418	32
0	343	760.22695815373	33
0	345	761.712095157267	34
0	348	777.587614563966	35
0	354	789.201234791078	36
0	356	789.526551019467	37
0	358	789.861488633681	38
0	363	795.939403761245	39
0	371	819.542236411746	37
0	379	835.156933545261	37
0	382	837.724076214384	38
0	396	882.462444236032	32
0	398	890.900647318088	33
0	408	899.670495225509	33
0	411	902.698546084606	33
0	413	903.095442213722	34
0	415	905.089861502072	35
0	418	911.003404036779	35
0	422	915.690760576577	36
0	424	917.775434736723	37
0	429	924.213556890148	38
0	431	934.076817536199	39
0	438	936.960064299383	40
0	440	939.38482909942	41
0	450	957.912134853835	39
0	454	959.548743667564	40
0	461	978.23760579542	39
0	465	985.919423558647	39
0	470	998.744812864239	37
0	472	999.8027166863	38
0	478	1005.637083893272	37
0	481	1018.773414308077	38
0	484	1026.72492787685	38
0	495	1054.801043001804	38
0	497	1064.652973912992	39
0	503	1093.355992575201	40
0	506	1100.282182876396	40
0	508	1104.978036121906	41
0	510	1118.356984565768	42
0	514	1127.414208507312	43
0	519	1133.514281915121	44
0	523	1144.360864369609	45
0	529	1153.951718723298	46
0	535	1161.097070572118	47
0	542	1172.04226562065	48
0	544	1178.407903726891	49
0	552	1184.211304218178	50
0	554	1184.300423029734	51
0	556	1184.435390764814	52
0	558	1185.138503952723	53
0	560	1185.401070630046	54
0	562	1191.107114039485	55
0	565	1194.270322303708	56
0	568	1199.917749928224	57
0	570	1215.207056702361	58
0	572	1217.263576943163	59
0	579	1245.863388766485	60
0	582	1253.407346792082	60
0	584	1254.654480348304	61
0	591	1263.794569950446	62
0	599	1277.485357624897	61
0	603	1290.248085656458	62
0	614	1328.607576263913	61
0	616	1332.266115075993	62
0	623	1345.999171837684	61
0	626	1351.180955470854	61
0	628	1358.024277942655	62
0	637	1375.328048318735	62
0	641	1376.578224452794	63
0	646	1385.424457924955	62
0	653	1400.686626234377	58
0	661	1412.945932439393	56
0	663	1413.277010384735	57
0	666	1420.422398902746	57
0	669	1421.552048863122	57
0	672	1439.27524498052	57
0	674	1441.998615398113	58
0	681	1454.752516381548	57
0	683	1458.614725343514	58
0	689	1478.733427612972	55
0	704	1505.301943959205	52
0	706	1507.576092677335	53
0	709	1513.948258337622	53
0	711	1517.494098948675	54
0	713	1523.807210772095	55
0	718	1530.266107318484	56
0	726	1547.121827412251	53
0	730	1553.926200376688	54
0	732	1556.691645862258	55
0	735	1566.048321592974	56
0	738	1575.850548390337	57
0	746	1592.939572376582	54
0	749	1600.440615470523	55
0	752	1607.942529139216	55
0	758	1617.209974063659	52
0	766	1645.212310001142	49
0	768	1648.295608035408	50
0	774	1661.146836982142	48
0	779	1666.811507272016	46
0	782	1668.780869812961	46
0	787	1675.853363345013	44
0	791	1685.52198025974	43
0	794	1690.619515589583	43
0	797	1698.881351353874	43
0	799	1702.270853690546	44
0	807	1716.684891854079	41
0	815	1742.107707459114	42
0	818	1758.540050622779	43
0	821	1763.847708067724	44
0	824	1767.394836815643	45
0	826	1769.754296063747	46
0	828	1771.243760096415	47
0	836	1797.197225012532	48
0	847	1807.286711899146	49
0	849	1812.682840100208	50
0	851	1812.766270975972	51
0	853	1814.271161976253	52
0	861	1829.810402453992	48
0	863	1830.86100559469	49
0	869	1837.834111699134	48
0	879	1863.053869228857	42
0	895	1921.548888446662	39
0	897	1925.084728108583	40
0	907	1966.461828507534	38
0	919	1996.442726234962	34
0	921	1999.018505728651	35
0	923	2003.133855187522	36
0	925	2022.102208161922	37
0	927	2026.984715526444	38
0	934	2043.741429300996	35
0	942	2068.035895002599	30
0	944	2070.729528780533	31
0	951	2082.060564272508	27
0	960	2092.756536328325	26
0	966	2107.788762825608	26
0	975	2145.586000304457	24
0	978	2157.470008204503	24
0	991	2170.621603874021	24
0	996	2197.669224470044	25
0	1001	2198.674373501187	26
0	1003	2203.554715304965	27
0	1006	2210.498316660967	28
0	1009	2212.274921811409	29
0	1011	2218.480584148708	30
0	1013	2221.48183917862	31
0	1015	2221.489280892939	32
0	1017	2223.125972974633	33
0	1026	2268.169216379668	32
0	1030	2280.874800280286	32
0	1041	2301.881038404028	30
0	1049	2309.910991732672	31
0	1052	2312.359914615875	32
0	1055	2318.170158082466	33
0	1060	2327.468414806708	34
0	1071	2343.996904793849	35
0	1077	2350.382606851478	36
0	1082	2358.611579696822	37
0	1087	2363.060537216027	38
0	1090	2373.50460996526	39
0	1093	2381.039792987798	40
0	1099	2386.087771682966	41
0	1102	2394.407798511697	41
0	1106	2404.565149470387	40
0	1119	2422.495692925158	38
0	1121	2423.823415495132	39
0	1123	2424.472143381992	40
0	1125	2430.129653405028	41
0	1130	2439.453006626528	42
0	1137	2446.289358719912	43
0	1141	2453.293347744151	44
0	1146	2458.70246381101	45
0	1148	2460.449554175474	46
0	1150	2464.794619718189	47
0	1153	2466.366369433583	48
0	1157	2477.751206080727	49
0	1164	2487.907921574443	50
0	1167	2491.854625862879	51
1	160	361.253872248248	10
1	161	363.825889585923	10
1	165	370.058876996075	9
1	167	382.033569988247	9
1	169	386.094833956454	10
1	171	386.647961139654	11
1	173	389.11721552314	12
1	174	390.693034838234	12
1	176	392.226410515015	12
1	178	392.907147651836	13
1	180	396.36227194133	14
1	181	397.899046005137	14
1	194	437.031828547986	14
1	196	448.318011895377	15
1	198	449.686015902366	16
1	201	453.261598126964	17
1	202	456.417245281431	17
1	204	457.149607354789	17
1	205	457.290349623226	17
1	207	459.167132141822	17
1	209	459.902982320572	18
1	211	465.705246785592	19
1	213	468.251201226019	20
1	217	475.822507308272	21
1	219	477.32380088849	21
1	221	480.825237471622	21
1	222	483.919657513541	21
1	223	488.570862531173	20
1	230	509.866602764496	20
1	232	522.554922922556	20
1	238	532.51419919372	20
1	241	539.722009720888	21
1	244	543.960260144784	22
1	249	555.155696511461	23
1	250	555.966228927509	23
1	251	561.924466318734	22
1	252	565.759165994354	21
1	253	572.872794692963	20
1	254	577.865453294743	19
1	255	588.318829435466	18
1	256	594.441545188381	17
1	260	596.98708789577	17
1	262	598.284845066716	18
1	264	598.576374058973	19
1	268	602.620604624623	20
1	270	606.95438653281	21
1	272	610.162704550092	22
1	274	614.958540455523	23
1	278	623.406264846895	24
1	282	637.852286977402	25
1	284	648.643934406955	26
1	287	676.580654484565	27
1	291	679.89463627924	28
1	293	683.432007872737	28
1	295	683.746700318794	28
1	297	685.331815749873	29
1	299	690.996536964801	30
1	301	692.204779726722	31
1	302	693.201890681477	31
1	306	695.353883843244	31
1	309	706.298540363435	32
1	310	715.403259897362	32
1	318	722.445853962356	32
1	320	723.104634167044	33
1	321	724.204307659376	33
1	322	724.866264324904	32
1	323	729.807237059269	31
1	324	730.922585680645	30
1	325	731.418416108441	29
1	327	733.272343944783	29
1	328	735.835805427193	29
1	332	739.797730469372	29
1	334	740.509362681322	30
1	341	750.972521332418	31
1	343	760.22695815373	32
1	345	761.712095157267	33
1	348	777.587614563966	34
1	354	789.201234791078	35
1	356	789.526551019467	36
1	358	789.861488633681	37
1	363	795.939403761245	38
1	364	797.341679801931	38
1	365	803.632740002596	37
1	366	805.043025974611	36
1	371	819.542236411746	36
1	372	824.794794267854	36
1	379	835.156933545261	36
1	382	837.724076214384	37
1	383	840.840258380173	37
1	384	842.071650579011	36
1	388	848.337526226239	35
1	389	849.341711317883	34
1	390	854.571786891323	33
1	391	866.972163184006	32
1	392	876.460690846043	31
1	396	882.462444236032	31
1	398	890.900647318088	32
1	406	897.934222057664	32
1	408	899.670495225509	32
1	409	900.195261834583	32
1	411	902.698546084606	32
1	413	903.095442213722	33
1	415	905.089861502072	34
1	416	908.715063263578	34
1	418	911.003404036779	34
1	422	915.690760576577	35
1	424	917.775434736723	36
1	429	924.213556890148	37
1	431	934.076817536199	38
1	438	936.960064299383	39
1	440	939.38482909942	40
1	443	952.176692261759	40
1	444	954.732860349069	39
1	445	955.197460403467	38
1	450	957.912134853835	38
1	454	959.548743667564	39
1	456	970.72633180901	39
1	457	976.384261750681	38
1	461	978.23760579542	38
1	463	984.913833090915	38
1	465	985.919423558647	38
1	466	989.028261834249	38
1	467	994.433190607653	37
1	468	998.333418076129	36
1	470	998.744812864239	36
1	472	999.8027166863	37
1	473	1001.525475222698	37
1	474	1002.431516115057	36
1	478	1005.637083893272	36
1	481	1018.773414308077	37
1	482	1019.685955429501	37
1	484	1026.72492787685	37
1	485	1035.488485700687	37
1	495	1054.801043001804	37
1	497	1064.652973912992	38
1	503	1093.355992575201	39
1	504	1096.499914815773	39
1	506	1100.282182876396	39
1	508	1104.978036121906	40
1	510	1118.356984565768	41
1	514	1127.414208507312	42
1	519	1133.514281915121	43
1	523	1144.360864369609	44
1	529	1153.951718723298	45
1	535	1161.097070572118	46
1	542	1172.04226562065	47
1	544	1178.407903726891	48
1	552	1184.211304218178	49
1	554	1184.300423029734	50
1	556	1184.435390764814	51
1	558	1185.138503952723	52
1	560	1185.401070630046	53
1	562	1191.107114039485	54
1	565	1194.270322303708	55
1	568	1199.917749928224	56
1	570	1215.207056702361	57
1	572	1217.263576943163	58
1	579	1245.863388766485	59
1	580	1253.396840482252	59
1	582	1253.407346792082	59
1	584	1254.654480348304	60
1	591	1263.794569950446	61
1	593	1267.749839315041	61
1	597	1276.504807505782	60
1	599	1277.485357624897	60
1	603	1290.248085656458	61
1	608	1307.9950613143	61
1	609	1308.236586842202	60
1	614	1328.607576263913	60
1	616	1332.266115075993	61
1	620	1341.321516023168	61
1	621	1341.584297464555	60
1	623	1345.999171837684	60
1	624	1347.681858799459	60
1	626	1351.180955470854	60
1	628	1358.024277942655	61
1	635	1375.11720782902	61
1	637	1375.328048318735	61
1	641	1376.578224452794	62
1	643	1379.748189404945	62
1	644	1381.716946158554	61
1	646	1385.424457924955	61
1	647	1392.595848771975	61
1	648	1392.922962401665	60
1	649	1393.244620716757	59
1	650	1396.343842385483	58
1	651	1396.579849245514	57
1	653	1400.686626234377	57
1	654	1403.299741014218	57
1	655	1404.414332089404	56
1	656	1404.93834963041	55
1	661	1412.945932439393	55
1	663	1413.277010384735	56
1	664	1419.856546919784	56
1	666	1420.422398902746	56
1	667	1421.028698492565	56
1	669	1421.552048863122	56
1	670	1432.64041262361	56
1	672	1439.27524498052	56
1	674	1441.998615398113	57
1	675	1442.577487521614	57
1	676	1443.642251419473	56
1	681	1454.752516381548	56
1	683	1458.614725343514	57
1	684	1469.371306153098	57
1	685	1470.267450168824	56
1	686	1470.703426345034	55
1	687	1473.315110126034	54
1	689	1478.733427612972	54
1	690	1479.371681469965	54
1	691	1479.40236925084	53
1	701	1498.810293282111	52
1	702	1500.054674606051	51
1	704	1505.301943959205	51
1	706	1507.576092677335	52
1	707	1509.746095915836	52
1	709	1513.948258337622	52
1	711	1517.494098948675	53
1	713	1523.807210772095	54
1	718	1530.266107318484	55
1	719	1530.637575845218	55
1	720	1530.849984605766	54
1	721	1532.711795511202	53
1	722	1541.775089295022	52
1	726	1547.121827412251	52
1	730	1553.926200376688	53
1	732	1556.691645862258	54
1	735	1566.048321592974	55
1	738	1575.850548390337	56
1	739	1577.354508090166	56
1	740	1577.493302849448	55
1	741	1577.936601187831	54
1	742	1580.757801536639	53
1	746	1592.939572376582	53
1	749	1600.440615470523	54
1	750	1600.46621731064	54
1	752	1607.942529139216	54
1	753	1610.251474846671	54
1	754	1612.770123990595	53
1	755	1612.797569742996	52
1	756	1616.320703631094	51
1	758	1617.209974063659	51
1	759	1617.793633626574	51
1	760	1622.098667832153	50
1	761	1626.235267665967	49
1	762	1632.65466648539	48
1	766	1645.212310001142	48
1	768	1648.295608035408	49
1	770	1655.316915672718	49
1	771	1658.527075670792	48
1	772	1659.081542075543	47
1	774	1661.146836982142	47
1	775	1661.393358041764	47
1	776	1662.840103191671	46
1	777	1663.211268613017	45
1	779	1666.811507272016	45
1	780	1667.987248916245	45
1	782	1668.780869812961	45
1	783	1669.452224262511	45
1	784	1669.677015829479	44
1	785	1675.166025791539	43
1	787	1675.853363345013	43
1	788	1676.752218972325	43
1	789	1680.03652438485	42
1	791	1685.52198025974	42
1	792	1690.233748963653	42
1	794	1690.619515589583	42
1	795	1698.069463668455	42
1	797	1698.881351353874	42
1	799	1702.270853690546	43
1	800	1702.447671441553	43
1	801	1703.893877734744	42
1	802	1707.120167945927	41
1	803	1711.517910622597	40
1	807	1716.684891854079	40
1	815	1742.107707459114	41
1	818	1758.540050622779	42
1	821	1763.847708067724	43
1	824	1767.394836815643	44
1	826	1769.754296063747	45
1	828	1771.243760096415	46
1	836	1797.197225012532	47
1	847	1807.286711899146	48
1	849	1812.682840100208	49
1	851	1812.766270975972	50
1	853	1814.271161976253	51
1	855	1819.271753947442	51
1	856	1819.320824323174	50
1	857	1819.475558262891	49
1	858	1822.848764551685	48
1	859	1825.315221648681	47
1	861	1829.810402453992	47
1	863	1830.86100559469	48
1	864	1833.278074418668	48
1	865	1837.145075799476	47
1	869	1837.834111699134	47
1	871	1839.20362487543	47
1	872	1844.332800656773	46
1	873	1849.207311203637	45
1	874	1850.076964661116	44
1	875	1852.23960517996	43
1	876	1853.192090160349	42
1	877	1855.403698318459	41
1	879	1863.053869228857	41
1	886	1882.126167248572	41
1	887	1883.654302369179	40
1	888	1888.536370818286	39
1	889	1889.43272700459	38
1	895	1921.548888446662	38
1	897	1925.084728108583	39
1	903	1952.5042998585	39
1	904	1958.230319214621	38
1	905	1965.794276388456	37
1	907	1966.461828507534	37
1	908	1969.857080088539	37
1	909	1974.896511813705	36
1	910	1982.599739486588	35
1	911	1983.813558321744	34
1	915	1985.727972438301	33
1	919	1996.442726234962	33
1	921	1999.018505728651	34
1	923	2003.133855187522	35
1	925	2022.102208161922	36
1	927	2026.984715526444	37
1	929	2038.914703526678	37
1	930	2039.15731924862	36
1	931	2041.206342454132	35
1	932	2043.189358960518	34
1	934	2043.741429300996	34
1	935	2043.841916988875	34
1	936	2051.065371732352	33
1	937	2053.707449455797	32
1	938	2057.75459797936	31
1	939	2058.724343664015	30
1	940	2064.723872754913	29
1	942	2068.035895002599	29
1	944	2070.729528780533	30
1	945	2074.767168975624	30
1	946	2074.999421984934	29
1	947	2075.181398758695	28
1	948	2079.341576997046	27
1	949	2081.514113794865	26
1	951	2082.060564272508	26
1	955	2084.535728936262	26
1	956	2087.161712989415	25
1	960	2092.756536328325	25
1	962	2100.941899613473	25
1	966	2107.788762825608	25
1	968	2115.935717728648	25
1	969	2122.442014895386	24
1	973	2144.222931273364	23
1	975	2145.586000304457	23
1	976	2148.733556465258	23
1	978	2157.470008204503	23
1	985	2163.221493458563	23
1	991	2170.621603874021	23
1	996	2197.669224470044	24
1	1001	2198.674373501187	25
1	1003	2203.554715304965	26
1	1006	2210.498316660967	27
1	1009	2212.274921811409	28
1	1011	2218.480584148708	29
1	1013	2221.48183917862	30
1	1015	2221.489280892939	31
1	1017	2223.125972974633	32
1	1018	2226.210336065303	32
1	1019	2235.457512653045	31
1	1026	2268.169216379668	31
1	1028	2275.176931637599	31
1	1030	2280.874800280286	31
1	1034	2285.570225705139	31
1	1038	2300.474539504511	30
1	1039	2300.903156042363	29
1	1041	2301.881038404028	29
1	1049	2309.910991732672	30
1	1052	2312.359914615875	31
1	1055	2318.170158082466	32
1	1060	2327.468414806708	33
1	1071	2343.996904793849	34
1	1077	2350.382606851478	35
1	1082	2358.611579696822	36
1	1087	2363.060537216027	37
1	1090	2373.50460996526	38
1	1093	2381.039792987798	39
1	1099	2386.087771682966	40
1	1100	2390.057500782487	40
1	1102	2394.407798511697	40
1	1103	2394.796437088987	40
1	1104	2401.515027586907	39
1	1106	2404.565149470387	39
1	1107	2405.160277852315	39
1	1108	2406.979683337608	38
1	1109	2408.794562085004	37
1	1119	2422.495692925158	37
1	1121	2423.823415495132	38
1	1123	2424.472143381992	39
1	1125	2430.129653405028	40
1	1130	2439.453006626528	41
1	1137	2446.289358719912	42
1	1141	2453.293347744151	43
1	1146	2458.70246381101	44
1	1148	2460.449554175474	45
1	1150	2464.794619718189	46
1	1153	2466.366369433583	47
1	1157	2477.751206080727	48
1	1164	2487.907921574443	49
1	1167	2491.854625862879	50
2	161	363.825889585923	25
2	165	370.058876996075	26
2	174	390.693034838234	27
2	181	397.899046005137	28
2	202	456.417245281431	29
2	205	457.290349623226	30
2	219	477.32380088849	31
2	222	483.919657513541	32
2	223	488.570862531173	33
2	232	522.554922922556	34
2	250	555.966228927509	35
2	251	561.924466318734	36
2	252	565.759165994354	37
2	253	572.872794692963	38
2	254	577.865453294743	39
2	255	588.318829435466	40
2	256	594.441545188381	41
2	293	683.432007872737	42
2	302	693.201890681477	43
2	310	715.403259897362	44
2	321	724.204307659376	45
2	322	724.866264324904	46
2	323	729.807237059269	47
2	324	730.922585680645	48
2	325	731.418416108441	49
2	328	735.835805427193	50
2	364	797.341679801931	51
2	365	803.632740002596	52
2	366	805.043025974611	53
2	372	824.794794267854	54
2	383	840.840258380173	55
2	384	842.071650579011	56
2	388	848.337526226239	57
2	389	849.341711317883	58
2	390	854.571786891323	59
2	391	866.972163184006	60
2	392	876.460690846043	61
2	406	897.934222057664	62
2	409	900.195261834583	63
2	416	908.715063263578	64
2	443	952.176692261759	65
2	444	954.732860349069	66
2	445	955.197460403467	67
2	456	970.72633180901	68
2	457	976.384261750681	69
2	463	984.913833090915	70
2	466	989.028261834249	71
2	467	994.433190607653	72
2	468	998.333418076129	73
2	473	1001.525475222698	74
2	474	1002.431516115057	75
2	482	1019.685955429501	76
2	485	1035.488485700687	77
2	504	1096.499914815773	78
2	580	1253.396840482252	79
2	593	1267.749839315041	80
2	597	1276.504807505782	81
2	608	1307.9950613143	82
2	609	1308.236586842202	83
2	620	1341.321516023168	84
2	621	1341.584297464555	85
2	624	1347.681858799459	86
2	635	1375.11720782902	87
2	643	1379.748189404945	88
2	644	1381.716946158554	89
2	647	1392.595848771975	90
2	648	1392.922962401665	91
2	649	1393.244620716757	92
2	650	1396.343842385483	93
2	651	1396.579849245514	94
2	654	1403.299741014218	95
2	655	1404.414332089404	96
2	656	1404.93834963041	97
2	664	1419.856546919784	98
2	667	1421.028698492565	99
2	670	1432.64041262361	100
2	675	1442.577487521614	101
2	676	1443.642251419473	102
2	684	1469.371306153098	103
2	685	1470.267450168824	104
2	686	1470.703426345034	105
2	687	1473.315110126034	106
2	690	1479.371681469965	107
2	691	1479.40236925084	108
2	701	1498.810293282111	109
2	702	1500.054674606051	110
2	707	1509.746095915836	111
2	719	1530.637575845218	112
2	720	1530.849984605766	113
2	721	1532.711795511202	114
2	722	1541.775089295022	115
2	739	1577.354508090166	116
2	740	1577.493302849448	117
2	741	1577.936601187831	118
2	742	1580.757801536639	119
2	750	1600.46621731064	120
2	753	1610.251474846671	121
2	754	1612.770123990595	122
2	755	1612.797569742996	123
2	756	1616.320703631094	124
2	759	1617.793633626574	125
2	760	1622.098667832153	126
2	761	1626.235267665967	127
2	762	1632.65466648539	128
2	770	1655.316915672718	129
2	771	1658.527075670792	130
2	772	1659.081542075543	131
2	775	1661.393358041764	132
2	776	1662.840103191671	133
2	777	1663.211268613017	134
2	780	1667.987248916245	135
2	783	1669.452224262511	136
2	784	1669.677015829479	137
2	785	1675.166025791539	138
2	788	1676.752218972325	139
2	789	1680.03652438485	140
2	792	1690.233748963653	141
2	795	1698.069463668455	142
2	800	1702.447671441553	143
2	801	1703.893877734744	144
2	802	1707.120167945927	145
2	803	1711.517910622597	146
2	855	1819.271753947442	147
2	856	1819.320824323174	148
2	857	1819.475558262891	149
2	858	1822.848764551685	150
2	859	1825.315221648681	151
2	864	1833.278074418668	152
2	865	1837.145075799476	153
2	871	1839.20362487543	154
2	872	1844.332800656773	155
2	873	1849.207311203637	156
2	874	1850.076964661116	157
2	875	1852.23960517996	158
2	876	1853.192090160349	159
2	877	1855.403698318459	160
2	886	1882.126167248572	161
2	887	1883.654302369179	162
2	888	1888.536370818286	163
2	889	1889.43272700459	164
2	903	1952.5042998585	165
2	904	1958.230319214621	166
2	905	1965.794276388456	167
2	908	1969.857080088539	168
2	909	1974.896511813705	169
2	910	1982.599739486588	170
2	911	1983.813558321744	171
2	915	1985.727972438301	172
2	929	2038.914703526678	173
2	930	2039.15731924862	174
2	931	2041.206342454132	175
2	932	2043.189358960518	176
2	935	2043.841916988875	177
2	936	2051.065371732352	178
2	937	2053.707449455797	179
2	938	2057.75459797936	180
2	939	2058.724343664015	181
2	940	2064.723872754913	182
2	945	2074.767168975624	183
2	946	2074.999421984934	184
2	947	2075.181398758695	185
2	948	2079.341576997046	186
2	949	2081.514113794865	187
2	955	2084.535728936262	188
2	956	2087.161712989415	189
2	962	2100.941899613473	190
2	968	2115.935717728648	191
2	969	2122.442014895386	192
2	973	2144.222931273364	193
2	976	2148.733556465258	194
2	985	2163.221493458563	195
2	1018	2226.210336065303	196
2	1019	2235.457512653045	197
2	1028	2275.176931637599	198
2	1034	2285.570225705139	199
2	1038	2300.474539504511	200
2	1039	2300.903156042363	201
2	1100	2390.057500782487	202
2	1103	2394.796437088987	203
2	1104	2401.515027586907	204
2	1107	2405.160277852315	205
2	1108	2406.979683337608	206
2	1109	2408.794562085004	207
3	161	363.825889585923	103.45784449867
3	165	370.058876996075	92.076890533238
3	174	390.693034838234	95.658937603433
3	181	397.899046005137	93.197470869714
3	202	456.417245281431	145.94770199225
3	205	457.290349623226	142.46962187449
3	219	477.32380088849	152.51099338614
3	222	483.919657513541	122.66578526529
3	223	488.570862531173	119.61246002518
3	232	522.554922922556	135.9069617829
3	250	555.966228927509	163.05908127567
3	251	561.924466318734	165.5621943774
3	252	565.759165994354	162.8788488727
3	253	572.872794692963	135.84096614498
3	254	577.865453294743	129.54744139937
3	255	588.318829435466	138.6328135331
3	256	594.441545188381	141.17994706142
3	293	683.432007872737	217.72676108715
3	302	693.201890681477	224.95068945546
3	310	715.403259897362	239.58075258909
3	321	724.204307659376	216.49365246158
3	322	724.866264324904	214.99966156041
3	323	729.807237059269	203.13444747894
3	324	730.922585680645	198.40838648692
3	325	731.418416108441	191.69640638755
3	328	735.835805427193	191.87554528241
3	364	797.341679801931	199.05683473522
3	365	803.632740002596	205.05636594362
3	366	805.043025974611	202.42242134999
3	372	824.794794267854	214.63208971776
3	383	840.840258380173	213.0484955072
3	384	842.071650579011	204.21936360161
3	388	848.337526226239	171.75687174167
3	389	849.341711317883	171.58424404541
3	390	854.571786891323	174.67715061208
3	391	866.972163184006	183.22546286521
3	392	876.460690846043	191.12887509617
3	406	897.934222057664	205.72944233094
3	409	900.195261834583	206.86888069928
3	416	908.715063263578	213.36117942033
3	443	952.176692261759	230.95594631339
3	444	954.732860349069	232.28700638671
3	445	955.197460403467	232.09282623642
3	456	970.72633180901	230.92860133964
3	457	976.384261750681	235.87489906936
3	463	984.913833090915	233.9413117585
3	466	989.028261834249	228.80130368052
3	467	994.433190607653	232.72109545039
3	468	998.333418076129	220.74580351216
3	473	1001.525475222698	220.7515484644
3	474	1002.431516115057	213.23028132398
3	482	1019.685955429501	229.82446679582
3	485	1035.488485700687	245.36751172379
3	504	1096.499914815773	266.41692475948
3	580	1253.396840482252	372.63514324961
3	593	1267.749839315041	376.84919199695
3	597	1276.504807505782	373.80626142118
3	608	1307.9950613143	402.90519981223
3	609	1308.236586842202	397.23318280542
3	620	1341.321516023168	423.54608128644
3	621	1341.584297464555	417.37074057441
3	624	1347.681858799459	413.60504126326
3	635	1375.11720782902	438.15714352964
3	643	1379.748189404945	422.70010238812
3	644	1381.716946158554	423.80481130472
3	647	1392.595848771975	434.38576648398
3	648	1392.922962401665	433.3742187341
3	649	1393.244620716757	416.65670867415
3	650	1396.343842385483	418.10623659006
3	651	1396.579849245514	410.66042568687
3	654	1403.299741014218	404.55492814998
3	655	1404.414332089404	404.6116154031
3	656	1404.93834963041	399.34821165503
3	664	1419.856546919784	401.08313261171
3	667	1421.028698492565	394.30377061571
3	670	1432.64041262361	394.33225460509
3	675	1442.577487521614	389.28403533762
3	676	1443.642251419473	388.84120841767
3	684	1469.371306153098	397.14577574691
3	685	1470.267450168824	376.91145759362
3	686	1470.703426345034	370.42124346864
3	687	1473.315110126034	368.33707400413
3	690	1479.371681469965	361.0146969042
3	691	1479.40236925084	359.31594306774
3	701	1498.810293282111	344.85857455881
3	702	1500.054674606051	345.91169113708
3	707	1509.746095915836	348.64902534372
3	719	1530.637575845218	361.16668441578
3	720	1530.849984605766	358.80771898512
3	721	1532.711795511202	354.30389178431
3	722	1541.775089295022	357.56378507684
3	739	1577.354508090166	392.91911732535
3	740	1577.493302849448	392.35479889673
3	741	1577.936601187831	392.53553055778
3	742	1580.757801536639	389.65068749715
3	750	1600.46621731064	400.54846738242
3	753	1610.251474846671	395.04441814431
3	754	1612.770123990595	395.50654704743
3	755	1612.797569742996	366.93418097651
3	756	1616.320703631094	362.91335683901
3	759	1617.793633626574	363.13915327827
3	760	1622.098667832153	364.37829010057
3	761	1626.235267665967	362.44069771552
3	762	1632.65466648539	362.37773522385
3	770	1655.316915672718	365.3546332689
3	771	1658.527075670792	368.27899001433
3	772	1659.081542075543	350.6549719214
3	775	1661.393358041764	332.78578177785
3	776	1662.840103191671	330.57398811568
3	777	1663.211268613017	328.46912692943
3	780	1667.987248916245	321.98807707856
3	783	1669.452224262511	318.27126879166
3	784	1669.677015829479	311.65273788682
3	785	1675.166025791539	306.20698120112
3	788	1676.752218972325	301.42417065359
3	789	1680.03652438485	303.65273995956
3	792	1690.233748963653	313.65552451086
3	795	1698.069463668455	312.6450057435
3	800	1702.447671441553	301.76104520718
3	801	1703.893877734744	298.38605066274
3	802	1707.120167945927	294.17423550653
3	803	1711.517910622597	298.24090023786
3	855	1819.271753947442	379.99650896692
3	856	1819.320824323174	377.32220892506
3	857	1819.475558262891	375.09044468804
3	858	1822.848764551685	368.09624817014
3	859	1825.315221648681	366.70049630517
3	864	1833.278074418668	354.5446468057
3	865	1837.145075799476	357.08535451754
3	871	1839.20362487543	343.06248861559
3	872	1844.332800656773	339.03085669757
3	873	1849.207311203637	341.6312185263
3	874	1850.076964661116	336.12870632349
3	875	1852.23960517996	334.74550623128
3	876	1853.192090160349	329.38487938825
3	877	1855.403698318459	331.16135981396
3	886	1882.126167248572	335.00433983632
3	887	1883.654302369179	329.72810199249
3	888	1888.536370818286	331.84472495603
3	889	1889.43272700459	323.38440541162
3	903	1952.5042998585	361.86230160458
3	904	1958.230319214621	365.29074683804
3	905	1965.794276388456	365.35366091793
3	908	1969.857080088539	361.91455094932
3	909	1974.896511813705	357.68653775005
3	910	1982.599739486588	348.88538945933
3	911	1983.813558321744	338.6012483206
3	915	1985.727972438301	324.58113545616
3	929	2038.914703526678	370.13383371372
3	930	2039.15731924862	363.30395590361
3	931	2041.206342454132	355.68436219439
3	932	2043.189358960518	352.56984337094
3	935	2043.841916988875	344.960565635
3	936	2051.065371732352	348.79451804181
3	937	2053.707449455797	338.47769707571
3	938	2057.75459797936	341.06970612528
3	939	2058.724343664015	316.6166362049
3	940	2064.723872754913	306.18382213213
3	945	2074.767168975624	310.9194609079
3	946	2074.999421984934	307.60458516929
3	947	2075.181398758695	305.42710269495
3	948	2079.341576997046	308.09781690063
3	949	2081.514113794865	300.49337087329
3	955	2084.535728936262	277.24901703712
3	956	2087.161712989415	274.47887288921
3	962	2100.941899613473	286.67073763722
3	968	2115.935717728648	285.07471213396
3	969	2122.442014895386	285.23420529372
3	973	2144.222931273364	281.16906204451
3	976	2148.733556465258	274.51873663028
3	985	2163.221493458563	241.6726050119
3	1018	2226.210336065303	259.74850755777
3	1019	2235.457512653045	250.91123720227
3	1028	2275.176931637599	276.15842590895
3	1034	2285.570225705139	263.46801754322
3	1038	2300.474539504511	256.73311020351
3	1039	2300.903156042363	232.86726103976
3	1100	2390.057500782487	297.39344066936
3	1103	2394.796437088987	302.03990076066
3	1104	2401.515027586907	296.66364712694
3	1107	2405.160277852315	297.37151502671
3	1108	2406.979683337608	284.43580807503
3	1109	2408.794562085004	263.20856178055
4	161	363.825889585923	98.304865555012
4	164	369.821762595074	91.839776132237
4	165	370.058876996075	75.024779761274
4	174	390.693034838234	85.991459702811
4	181	397.899046005137	92.982360510749
4	199	451.314791611018	140.84524832184
4	202	456.417245281431	141.59651753269
4	205	457.290349623226	139.05773806893
4	218	476.446657360061	151.63384985771
4	219	477.32380088849	116.06992864024
4	222	483.919657513541	114.96125500755
4	223	488.570862531173	106.53729254293
4	226	504.647888467318	118.55305451086
4	231	517.722995294933	131.07503415528
4	232	522.554922922556	133.43770739942
4	242	542.549381335244	150.32297082023
4	247	553.03500215346	160.12785450162
4	250	555.966228927509	159.60395698618
4	251	561.924466318734	159.04414919708
4	252	565.759165994354	128.72733744637
4	253	572.872794692963	124.55478279759
4	254	577.865453294743	128.17943739238
4	255	588.318829435466	135.0572313085
4	256	594.441545188381	137.29193783359
4	276	622.139386634124	162.9722544923
4	285	661.334096920524	201.43111459995
4	292	680.609976068573	214.90472928298
4	293	683.432007872737	215.18080664672
4	302	693.201890681477	223.39964243254
4	307	704.617952637811	228.79544532954
4	310	715.403259897362	234.57802242574
4	313	719.690989246213	216.3963054701
4	316	721.411777833786	213.70112263599
4	321	724.204307659376	214.33770489488
4	322	724.866264324904	198.19347474457
4	323	729.807237059269	197.29303786555
4	324	730.922585680645	191.20057595976
4	325	731.418416108441	187.45815596366
4	328	735.835805427193	182.95602559788
4	335	747.533805901909	192.37810939045
4	349	779.392898830734	184.50145971784
4	352	784.742778087035	187.75569019126
4	361	793.290075867963	195.00523080125
4	364	797.341679801931	198.76530574296
4	365	803.632740002596	201.01213537797
4	366	805.043025974611	198.0886394418
4	369	809.235288466639	199.07258391655
4	372	824.794794267854	209.83625381233
4	375	832.962221833583	209.55595698669
4	380	835.827552565702	208.03578969273
4	383	840.840258380173	202.98797140277
4	384	842.071650579011	193.42771617206
4	387	846.666257155074	170.08560267051
4	388	848.337526226239	170.58005895376
4	389	849.341711317883	169.44707503864
4	390	854.571786891323	170.82508657253
4	391	866.972163184006	181.64034743413
4	392	876.460690846043	185.46415388124
4	405	897.647268064946	205.44248833822
4	406	897.934222057664	204.60784092236
4	409	900.195261834583	204.84137799134
4	416	908.715063263578	202.41652290014
4	432	934.144182625441	215.74222682479
4	442	946.485716564308	225.26497061594
4	443	952.176692261759	229.7308382994
4	444	954.732860349069	231.62822618203
4	445	955.197460403467	221.92511645868
4	448	957.477713204444	220.61545969391
4	455	969.679711205963	229.88198073659
4	456	970.72633180901	230.21696912769
4	457	976.384261750681	228.8446475255
4	462	981.489437317732	230.51691598531
4	463	984.913833090915	224.68687493718
4	466	989.028261834249	227.31616667698
4	467	994.433190607653	216.84557604369
4	468	998.333418076129	217.55949131783
4	473	1001.525475222698	212.32424043162
4	474	1002.431516115057	212.90496509559
4	479	1005.934720098605	216.07323146492
4	482	1019.685955429501	229.5649814526
4	485	1035.488485700687	239.54908193944
4	491	1049.442564300641	241.78493135119
4	498	1067.421476829801	247.87924041805
4	501	1076.607356127549	246.52436607126
4	504	1096.499914815773	262.38362131936
4	530	1154.120362259429	318.96342871417
4	533	1160.171627197684	322.4475509833
4	538	1167.61299011354	321.83474877307
4	577	1240.49466313074	359.7329658981
4	580	1253.396840482252	370.93439624622
4	592	1264.756643505126	373.85599618704
4	593	1267.749839315041	368.07934408953
4	596	1274.455445172066	371.75689908746
4	597	1276.504807505782	373.40936529206
4	607	1305.709672726154	400.61981122408
4	608	1307.9950613143	396.99165727752
4	609	1308.236586842202	394.62906108667
4	612	1308.920106552651	393.22934597607
4	619	1335.07180854489	417.29637380817
4	620	1341.321516023168	417.10795913302
4	621	1341.584297464555	407.50747992836
4	624	1347.681858799459	413.00915061974
4	634	1373.998405184408	437.03834088502
4	635	1375.11720782902	435.7323787296
4	642	1376.928248498577	419.88016148175
4	643	1379.748189404945	421.83605455111
4	644	1381.716946158554	423.50686387056
4	647	1392.595848771975	433.04710510441
4	648	1392.922962401665	416.33505035906
4	649	1393.244620716757	415.00701492134
4	650	1396.343842385483	410.42441882684
4	651	1396.579849245514	397.83503638128
4	654	1403.299741014218	403.49702432792
4	655	1404.414332089404	398.82419411402
4	656	1404.93834963041	399.30126573714
4	659	1410.361293036043	391.58787872797
4	664	1419.856546919784	393.13161904293
4	667	1421.028698492565	382.72054047404
4	670	1432.64041262361	379.34696043962
4	675	1442.577487521614	387.77644451981
4	676	1443.642251419473	378.98927750648
4	679	1447.270611642497	375.04508123631
4	684	1469.371306153098	376.0153135779
4	685	1470.267450168824	369.98526729243
4	686	1470.703426345034	365.72539022313
4	687	1473.315110126034	354.95812556027
4	690	1479.371681469965	359.28525528686
4	691	1479.40236925084	351.98816074353
4	694	1480.342039274346	346.82775735923
4	697	1489.27366108986	344.91279672025
4	700	1496.186269415224	342.23455069193
4	701	1498.810293282111	344.66730981314
4	702	1500.054674606051	338.95760403393
4	707	1509.746095915836	347.42871501056
4	716	1526.813801521739	357.3429100923
4	719	1530.637575845218	358.59531022457
4	720	1530.849984605766	352.44208087888
4	721	1532.711795511202	348.50049129302
4	722	1541.775089295022	357.47466626529
4	736	1573.468964140858	389.03357337604
4	739	1577.354508090166	392.21600413744
4	740	1577.493302849448	392.0922322194
4	741	1577.936601187831	386.82948714835
4	742	1580.757801536639	386.48747923293
4	747	1599.130105431836	399.21235550361
4	750	1600.46621731064	385.25916060828
4	753	1610.251474846671	392.98789790351
4	754	1612.770123990595	366.90673522411
4	755	1612.797569742996	359.39022295091
4	756	1616.320703631094	361.66622328279
4	759	1617.793633626574	360.07325589499
4	760	1622.098667832153	358.30409788171
4	761	1626.235267665967	355.95833640443
4	762	1632.65466648539	355.16930886049
4	769	1651.400108398882	361.43782599506
4	770	1655.316915672718	365.06883001626
4	771	1658.527075670792	350.10050551665
4	772	1659.081542075543	330.47396581163
4	775	1661.393358041764	329.12724296577
4	776	1662.840103191671	328.09796150809
4	777	1663.211268613017	317.21209677533
4	780	1667.987248916245	316.80629344539
4	783	1669.452224262511	311.42794631986
4	784	1669.677015829479	300.71797123906
4	785	1675.166025791539	299.8379774728
4	788	1676.752218972325	300.36843454704
4	789	1680.03652438485	303.45829993206
4	792	1690.233748963653	304.8092910387
4	795	1698.069463668455	297.38283743408
4	800	1702.447671441553	296.93984436955
4	801	1703.893877734744	290.94794529535
4	802	1707.120167945927	293.84315756119
4	803	1711.517910622597	291.09551171985
4	829	1771.307347456575	349.75529859345
4	854	1815.180449535833	375.90520455531
4	855	1819.271753947442	377.27313854933
4	856	1819.320824323174	374.93571074833
4	857	1819.475558262891	364.72304188134
4	858	1822.848764551685	364.23403920817
4	859	1825.315221648681	346.58179403571
4	864	1833.278074418668	353.21835313674
4	865	1837.145075799476	348.41878101858
4	870	1838.594601989532	342.45346572969
4	871	1839.20362487543	333.90168091623
4	872	1844.332800656773	336.75670797944
4	873	1849.207311203637	335.25905286601
4	874	1850.076964661116	332.58286571244
4	875	1852.23960517996	328.43239440786
4	876	1853.192090160349	328.94975165585
4	877	1855.403698318459	325.13759099997
4	882	1876.505988414152	334.05835679185
4	885	1881.790785323285	334.66895791103
4	886	1882.126167248572	328.19996687188
4	887	1883.654302369179	326.96265650692
4	888	1888.536370818286	322.48804922531
4	889	1889.43272700459	313.58217861425
4	902	1945.460562502746	354.81856424883
4	903	1952.5042998585	359.56472748192
4	904	1958.230319214621	357.7897037441
4	905	1965.794276388456	357.85174724924
4	908	1969.857080088539	352.64710602488
4	909	1974.896511813705	341.18216178645
4	910	1982.599739486588	337.38742948545
4	911	1983.813558321744	335.51795028634
4	914	1985.033415965719	323.88657898358
4	915	1985.727972438301	318.91646516628
4	928	2034.261064847739	365.48019503478
4	929	2038.914703526678	363.06134018167
4	930	2039.15731924862	353.63533898888
4	931	2041.206342454132	350.58682686455
4	932	2043.189358960518	344.30800760664
4	935	2043.841916988875	341.57106329833
4	936	2051.065371732352	335.83561935227
4	937	2053.707449455797	337.02255760172
4	938	2057.75459797936	315.64689052025
4	939	2058.724343664015	300.18429304124
4	940	2064.723872754913	300.87616468719
4	945	2074.767168975624	307.37233215998
4	946	2074.999421984934	305.24512592119
4	947	2075.181398758695	303.93763866228
4	948	2079.341576997046	298.32083407547
4	949	2081.514113794865	284.31688878233
4	954	2084.012285312072	276.72557341293
4	955	2084.535728936262	271.85288883605
4	956	2087.161712989415	274.39544201344
4	961	2095.557662699459	281.28650072321
4	962	2100.941899613473	271.13149715948
4	967	2115.891843162201	285.03083756751
4	968	2115.935717728648	278.72790812698
4	969	2122.442014895386	284.60790319625
4	972	2134.213707109137	271.15983788028
4	973	2144.222931273364	270.00811143839
4	976	2148.733556465258	271.24123336568
4	981	2160.20654793263	261.19463937184
4	984	2162.583603707916	241.03471526125
4	985	2163.221493458563	238.13676534998
4	1007	2211.262901175855	244.80107266832
4	1018	2226.210336065303	241.66406061453
4	1019	2235.457512653045	239.44467023912
4	1022	2265.522295877423	269.07956964246
4	1027	2270.804779958831	271.78627423018
4	1028	2275.176931637599	272.04307645008
4	1033	2284.710191987587	262.60798382566
4	1034	2285.570225705139	258.5855101787
4	1037	2299.75816746257	256.01673816157
4	1038	2300.474539504511	232.43864450191
4	1039	2300.903156042363	230.17362726183
4	1061	2328.470596953763	246.41003268125
4	1094	2381.237889487352	297.38273614113
4	1097	2383.876092426448	291.21203231332
4	1100	2390.057500782487	297.30096445416
4	1103	2394.796437088987	289.94505662902
4	1104	2401.515027586907	293.7262647613
4	1107	2405.160277852315	282.61640258974
4	1108	2406.979683337608	261.39368303315
4	1109	2408.794562085004	251.3245538805
5	163	368.958402505989	1
5	183	402.880317121656	1
5	185	402.959438767677	2
5	188	411.151057594791	2
5	191	425.50773619485	2
5	215	469.80224824894	1
5	225	503.294683776111	1
5	228	507.710655197798	1
5	234	526.672789580331	1
5	236	527.294692179906	2
5	246	552.879779829314	1
5	258	594.891439112898	1
5	266	601.794162164892	2
5	280	627.791762872973	1
5	289	677.757467272476	1
5	304	693.3263811353	1
5	312	718.401955800649	1
5	315	721.220745948366	1
5	330	736.862253510529	1
5	337	747.539614225181	1
5	339	750.606602021905	2
5	351	780.773926758294	1
5	360	790.1209739769	1
5	368	807.657632949454	1
5	374	830.082990056291	1
5	377	834.116293496415	1
5	386	845.77824134047	1
5	394	880.761697232639	1
5	400	892.145415789384	2
5	402	894.373028441513	3
5	420	913.607525755531	1
5	426	920.277206925292	2
5	434	934.672708179719	1
5	436	936.028935313202	2
5	447	957.048087016828	1
5	452	958.210082287997	1
5	459	976.587912042603	1
5	476	1005.590137975379	1
5	487	1038.308158018523	1
5	489	1038.545319263007	2
5	493	1053.293452183994	1
5	500	1072.225530406186	1
5	512	1120.086426183102	1
5	516	1128.152243321753	2
5	521	1135.843037619533	2
5	526	1152.246671720459	2
5	532	1154.142983468966	1
5	537	1162.317380905273	1
5	540	1169.470891429442	1
5	546	1180.063672947012	2
5	548	1182.484086536195	3
5	550	1184.083476601723	4
5	574	1219.368073518	3
5	586	1257.720377731584	1
5	588	1258.681009477602	2
5	595	1270.276931261535	1
5	601	1289.96228240382	1
5	605	1292.563411709023	2
5	611	1308.426570154145	1
5	618	1334.742141683582	1
5	630	1368.959044590421	1
5	632	1371.947207617954	2
5	639	1376.38378442529	1
5	658	1405.507827071999	1
5	678	1444.385113574848	1
5	693	1480.059721281932	1
5	696	1488.726294780898	1
5	699	1496.141136259839	1
5	715	1524.242338504501	1
5	724	1542.447631622299	1
5	728	1549.466082130356	2
5	744	1590.641998253917	1
5	764	1633.714350027253	1
5	805	1715.229752380084	1
5	809	1723.105769530319	2
5	811	1735.705584841452	3
5	813	1739.312436688954	4
5	831	1781.020742921571	1
5	833	1790.989767933443	2
5	838	1798.01125817734	2
5	840	1799.973669012292	3
5	844	1802.788611750136	2
5	867	1837.207809601665	1
5	881	1874.214819834976	1
5	884	1877.492323099577	1
5	891	1899.01190856079	1
5	893	1908.705791028292	2
5	899	1926.80487591959	3
5	913	1984.546275450773	1
5	917	1996.012842413922	1
5	953	2083.855153346219	1
5	958	2092.664060113132	1
5	964	2104.851380459965	1
5	971	2122.543875262575	1
5	980	2157.532000019822	1
5	983	2160.769943346489	1
5	987	2166.560262012353	1
5	989	2170.316721573153	2
5	994	2188.511548646784	2
5	999	2198.633767710102	2
5	1021	2245.259994245578	1
5	1024	2265.579539773758	1
5	1032	2280.874893329279	1
5	1036	2290.195761337989	1
5	1043	2308.037549004393	1
5	1045	2308.085742285505	2
5	1047	2308.887224526848	3
5	1057	2324.804840986635	2
5	1063	2333.642706438426	1
5	1065	2336.358455922297	2
5	1067	2338.017678787934	3
5	1069	2339.680804628958	4
5	1075	2346.97091279548	3
5	1079	2352.329510823868	4
5	1084	2360.360545668002	4
5	1096	2381.934676952752	1
5	1111	2411.664070294826	1
5	1113	2416.504309095825	2
5	1115	2417.319899226566	3
5	1117	2421.859081073032	4
5	1127	2433.0836491068	5
5	1133	2442.737002327712	4
5	1139	2450.301596221221	3
5	1143	2455.396158994061	4
5	1155	2475.635191458486	3
5	1159	2478.070608996934	4
5	1161	2486.574186514758	5
6	163	368.958402505989	0
6	164	369.821762595074	0
6	183	402.880317121656	0
6	185	402.959438767677	1
6	186	408.352322134783	1
6	188	411.151057594791	1
6	189	425.177915930966	1
6	191	425.50773619485	1
6	192	436.719867471111	1
6	199	451.314791611018	0
6	215	469.80224824894	0
6	218	476.446657360061	0
6	225	503.294683776111	0
6	226	504.647888467318	0
6	228	507.710655197798	0
6	231	517.722995294933	0
6	234	526.672789580331	0
6	236	527.294692179906	1
6	239	534.177142600604	1
6	242	542.549381335244	0
6	246	552.879779829314	0
6	247	553.03500215346	0
6	258	594.891439112898	0
6	266	601.794162164892	1
6	275	621.208392349847	1
6	276	622.139386634124	0
6	280	627.791762872973	0
6	285	661.334096920524	0
6	289	677.757467272476	0
6	292	680.609976068573	0
6	304	693.3263811353	0
6	307	704.617952637811	0
6	312	718.401955800649	0
6	313	719.690989246213	0
6	315	721.220745948366	0
6	316	721.411777833786	0
6	330	736.862253510529	0
6	335	747.533805901909	0
6	337	747.539614225181	0
6	339	750.606602021905	1
6	346	766.603428760522	1
6	349	779.392898830734	0
6	351	780.773926758294	0
6	352	784.742778087035	0
6	360	790.1209739769	0
6	361	793.290075867963	0
6	368	807.657632949454	0
6	369	809.235288466639	0
6	374	830.082990056291	0
6	375	832.962221833583	0
6	377	834.116293496415	0
6	380	835.827552565702	0
6	386	845.77824134047	0
6	387	846.666257155074	0
6	394	880.761697232639	0
6	400	892.145415789384	1
6	402	894.373028441513	2
6	403	895.725183888391	2
6	404	896.38284214568	1
6	405	897.647268064946	0
6	420	913.607525755531	0
6	426	920.277206925292	1
6	427	922.962415164685	1
6	432	934.144182625441	0
6	434	934.672708179719	0
6	436	936.028935313202	1
6	441	941.536332194416	1
6	442	946.485716564308	0
6	447	957.048087016828	0
6	448	957.477713204444	0
6	452	958.210082287997	0
6	455	969.679711205963	0
6	459	976.587912042603	0
6	462	981.489437317732	0
6	476	1005.590137975379	0
6	479	1005.934720098605	0
6	487	1038.308158018523	0
6	489	1038.545319263007	1
6	490	1042.16033555703	1
6	491	1049.442564300641	0
6	493	1053.293452183994	0
6	498	1067.421476829801	0
6	500	1072.225530406186	0
6	501	1076.607356127549	0
6	512	1120.086426183102	0
6	516	1128.152243321753	1
6	517	1129.576277580111	1
6	521	1135.843037619533	1
6	524	1146.672412883682	1
6	526	1152.246671720459	1
6	527	1153.583394598728	1
6	530	1154.120362259429	0
6	532	1154.142983468966	0
6	533	1160.171627197684	0
6	537	1162.317380905273	0
6	538	1167.61299011354	0
6	540	1169.470891429442	0
6	546	1180.063672947012	1
6	548	1182.484086536195	2
6	550	1184.083476601723	3
6	563	1191.805437444535	3
6	566	1196.495283902549	2
6	574	1219.368073518	2
6	575	1228.880192219258	2
6	576	1237.40037783404	1
6	577	1240.49466313074	0
6	586	1257.720377731584	0
6	588	1258.681009477602	1
6	589	1262.699603793309	1
6	592	1264.756643505126	0
6	595	1270.276931261535	0
6	596	1274.455445172066	0
6	601	1289.96228240382	0
6	605	1292.563411709023	1
6	606	1301.900584434791	1
6	607	1305.709672726154	0
6	611	1308.426570154145	0
6	612	1308.920106552651	0
6	618	1334.742141683582	0
6	619	1335.07180854489	0
6	630	1368.959044590421	0
6	632	1371.947207617954	1
6	633	1372.36048345524	1
6	634	1373.998405184408	0
6	639	1376.38378442529	0
6	642	1376.928248498577	0
6	658	1405.507827071999	0
6	659	1410.361293036043	0
6	678	1444.385113574848	0
6	679	1447.270611642497	0
6	693	1480.059721281932	0
6	694	1480.342039274346	0
6	696	1488.726294780898	0
6	697	1489.27366108986	0
6	699	1496.141136259839	0
6	700	1496.186269415224	0
6	715	1524.242338504501	0
6	716	1526.813801521739	0
6	724	1542.447631622299	0
6	728	1549.466082130356	1
6	733	1561.760493663415	1
6	736	1573.468964140858	0
6	744	1590.641998253917	0
6	747	1599.130105431836	0
6	764	1633.714350027253	0
6	769	1651.400108398882	0
6	805	1715.229752380084	0
6	809	1723.105769530319	1
6	811	1735.705584841452	2
6	813	1739.312436688954	3
6	816	1748.563354584174	3
6	819	1760.362422766147	2
6	822	1765.118928417196	1
6	829	1771.307347456575	0
6	831	1781.020742921571	0
6	833	1790.989767933443	1
6	834	1794.030536600713	1
6	838	1798.01125817734	1
6	840	1799.973669012292	2
6	841	1801.20924113789	2
6	842	1801.599314280185	1
6	844	1802.788611750136	1
6	845	1804.963872950614	1
6	854	1815.180449535833	0
6	867	1837.207809601665	0
6	870	1838.594601989532	0
6	881	1874.214819834976	0
6	882	1876.505988414152	0
6	884	1877.492323099577	0
6	885	1881.790785323285	0
6	891	1899.01190856079	0
6	893	1908.705791028292	1
6	899	1926.80487591959	2
6	900	1927.348548180186	2
6	901	1937.247443017084	1
6	902	1945.460562502746	0
6	913	1984.546275450773	0
6	914	1985.033415965719	0
6	917	1996.012842413922	0
6	928	2034.261064847739	0
6	953	2083.855153346219	0
6	954	2084.012285312072	0
6	958	2092.664060113132	0
6	961	2095.557662699459	0
6	964	2104.851380459965	0
6	967	2115.891843162201	0
6	971	2122.543875262575	0
6	972	2134.213707109137	0
6	980	2157.532000019822	0
6	981	2160.20654793263	0
6	983	2160.769943346489	0
6	984	2162.583603707916	0
6	987	2166.560262012353	0
6	989	2170.316721573153	1
6	992	2175.619221504677	1
6	994	2188.511548646784	1
6	997	2198.255274539993	1
6	999	2198.633767710102	1
6	1004	2208.206067336556	1
6	1007	2211.262901175855	0
6	1021	2245.259994245578	0
6	1022	2265.522295877423	0
6	1024	2265.579539773758	0
6	1027	2270.804779958831	0
6	1032	2280.874893329279	0
6	1033	2284.710191987587	0
6	1036	2290.195761337989	0
6	1037	2299.75816746257	0
6	1043	2308.037549004393	0
6	1045	2308.085742285505	1
6	1047	2308.887224526848	2
6	1050	2311.366419053131	2
6	1053	2314.854533305551	1
6	1057	2324.804840986635	1
6	1058	2327.175705760155	1
6	1061	2328.470596953763	0
6	1063	2333.642706438426	0
6	1065	2336.358455922297	1
6	1067	2338.017678787934	2
6	1069	2339.680804628958	3
6	1072	2344.487755815558	3
6	1073	2344.907492078818	2
6	1075	2346.97091279548	2
6	1079	2352.329510823868	3
6	1080	2352.837398499538	3
6	1084	2360.360545668002	3
6	1085	2360.727810107703	3
6	1088	2373.221545854543	2
6	1091	2373.529219673513	1
6	1094	2381.237889487352	0
6	1096	2381.934676952752	0
6	1097	2383.876092426448	0
6	1111	2411.664070294826	0
6	1113	2416.504309095825	1
6	1115	2417.319899226566	2
6	1117	2421.859081073032	3
6	1127	2433.0836491068	4
6	1128	2435.341088410146	4
6	1131	2439.926621413961	3
6	1133	2442.737002327712	3
6	1134	2442.973699440085	3
6	1135	2445.484293350205	2
6	1139	2450.301596221221	2
6	1143	2455.396158994061	3
6	1144	2455.537109114189	3
6	1151	2465.323567038965	2
6	1155	2475.635191458486	2
6	1159	2478.070608996934	3
6	1161	2486.574186514758	4
6	1162	2487.766596964172	4
6	1165	2490.176134736916	3
6	1168	2493.228728756708	2
6	1169	2493.987028753625	1
7	163	368.958402505989	5
7	183	402.880317121656	6
7	215	469.80224824894	7
7	225	503.294683776111	8
7	228	507.710655197798	9
7	234	526.672789580331	10
7	246	552.879779829314	11
7	258	594.891439112898	12
7	280	627.791762872973	13
7	289	677.757467272476	14
7	304	693.3263811353	15
7	312	718.401955800649	16
7	315	721.220745948366	17
7	330	736.862253510529	18
7	337	747.539614225181	19
7	351	780.773926758294	20
7	360	790.1209739769	21
7	368	807.657632949454	22
7	374	830.082990056291	23
7	377	834.116293496415	24
7	386	845.77824134047	25
7	394	880.761697232639	26
7	420	913.607525755531	27
7	434	934.672708179719	28
7	447	957.048087016828	29
7	452	958.210082287997	30
7	459	976.587912042603	31
7	476	1005.590137975379	32
7	487	1038.308158018523	33
7	493	1053.293452183994	34
7	500	1072.225530406186	35
7	512	1120.086426183102	36
7	532	1154.142983468966	37
7	537	1162.317380905273	38
7	540	1169.470891429442	39
7	586	1257.720377731584	40
7	595	1270.276931261535	41
7	601	1289.96228240382	42
7	611	1308.426570154145	43
7	618	1334.742141683582	44
7	630	1368.959044590421	45
7	639	1376.38378442529	46
7	658	1405.507827071999	47
7	678	1444.385113574848	48
7	693	1480.059721281932	49
7	696	1488.726294780898	50
7	699	1496.141136259839	51
7	715	1524.242338504501	52
7	724	1542.447631622299	53
7	744	1590.641998253917	54
7	764	1633.714350027253	55
7	805	1715.229752380084	56
7	831	1781.020742921571	57
7	867	1837.207809601665	58
7	881	1874.214819834976	59
7	884	1877.492323099577	60
7	891	1899.01190856079	61
7	913	1984.546275450773	62
7	917	1996.012842413922	63
7	953	2083.855153346219	64
7	958	2092.664060113132	65
7	964	2104.851380459965	66
7	971	2122.543875262575	67
7	980	2157.532000019822	68
7	983	2160.769943346489	69
7	987	2166.560262012353	70
7	1021	2245.259994245578	71
7	1024	2265.579539773758	72
7	1032	2280.874893329279	73
7	1036	2290.195761337989	74
7	1043	2308.037549004393	75
7	1063	2333.642706438426	76
7	1096	2381.934676952752	77
7	1111	2411.664070294826	78
8	163	368.958402505989	0
8	183	402.880317121656	0
8	186	408.352322134783	5.392883367106
8	189	425.177915930966	14.026858336175
8	192	436.719867471111	11.212131276261
8	215	469.80224824894	0
8	225	503.294683776111	0
8	228	507.710655197798	0
8	234	526.672789580331	0
8	239	534.177142600604	6.882450420698
8	246	552.879779829314	0
8	258	594.891439112898	0
8	275	621.208392349847	19.414230184955
8	280	627.791762872973	0
8	289	677.757467272476	0
8	304	693.3263811353	0
8	312	718.401955800649	0
8	315	721.220745948366	0
8	330	736.862253510529	0
8	337	747.539614225181	0
8	346	766.603428760522	15.996826738617
8	351	780.773926758294	0
8	360	790.1209739769	0
8	368	807.657632949454	0
8	374	830.082990056291	0
8	377	834.116293496415	0
8	386	845.77824134047	0
8	394	880.761697232639	0
8	403	895.725183888391	3.579768099007
8	404	896.38284214568	2.009813704167
8	420	913.607525755531	0
8	427	922.962415164685	2.685208239393
8	434	934.672708179719	0
8	441	941.536332194416	5.507396881214
8	447	957.048087016828	0
8	452	958.210082287997	0
8	459	976.587912042603	0
8	476	1005.590137975379	0
8	487	1038.308158018523	0
8	490	1042.16033555703	3.615016294023
8	493	1053.293452183994	0
8	500	1072.225530406186	0
8	512	1120.086426183102	0
8	517	1129.576277580111	1.424034258358
8	524	1146.672412883682	10.829375264149
8	527	1153.583394598728	1.336722878269
8	532	1154.142983468966	0
8	537	1162.317380905273	0
8	540	1169.470891429442	0
8	563	1191.805437444535	11.741764497523
8	566	1196.495283902549	14.011197366354
8	575	1228.880192219258	44.796715617535
8	576	1237.40037783404	18.03230431604
8	586	1257.720377731584	0
8	589	1262.699603793309	4.018594315707
8	595	1270.276931261535	0
8	601	1289.96228240382	0
8	606	1301.900584434791	9.337172725768
8	611	1308.426570154145	0
8	618	1334.742141683582	0
8	630	1368.959044590421	0
8	633	1372.36048345524	0.413275837286
8	639	1376.38378442529	0
8	658	1405.507827071999	0
8	678	1444.385113574848	0
8	693	1480.059721281932	0
8	696	1488.726294780898	0
8	699	1496.141136259839	0
8	715	1524.242338504501	0
8	724	1542.447631622299	0
8	733	1561.760493663415	12.294411533059
8	744	1590.641998253917	0
8	764	1633.714350027253	0
8	805	1715.229752380084	0
8	816	1748.563354584174	25.457585053855
8	819	1760.362422766147	24.656837924695
8	822	1765.118928417196	25.806491728242
8	831	1781.020742921571	0
8	834	1794.030536600713	3.04076866727
8	841	1801.20924113789	3.19798296055
8	842	1801.599314280185	1.625645267893
8	845	1804.963872950614	2.175261200478
8	867	1837.207809601665	0
8	881	1874.214819834976	0
8	884	1877.492323099577	0
8	891	1899.01190856079	0
8	900	1927.348548180186	18.642757151894
8	901	1937.247443017084	10.442567097494
8	913	1984.546275450773	0
8	917	1996.012842413922	0
8	953	2083.855153346219	0
8	958	2092.664060113132	0
8	964	2104.851380459965	0
8	971	2122.543875262575	0
8	980	2157.532000019822	0
8	983	2160.769943346489	0
8	987	2166.560262012353	0
8	992	2175.619221504677	5.302499931524
8	997	2198.255274539993	9.743725893209
8	1004	2208.206067336556	9.572299626454
8	1021	2245.259994245578	0
8	1024	2265.579539773758	0
8	1032	2280.874893329279	0
8	1036	2290.195761337989	0
8	1043	2308.037549004393	0
8	1050	2311.366419053131	3.280676767626
8	1053	2314.854533305551	5.967308778703
8	1058	2327.175705760155	2.37086477352
8	1063	2333.642706438426	0
8	1072	2344.487755815558	8.129299893261
8	1073	2344.907492078818	6.889813290884
8	1080	2352.837398499538	13.15659387058
8	1085	2360.727810107703	13.756897312223
8	1088	2373.221545854543	20.892035030675
8	1091	2373.529219673513	13.168674005511
8	1096	2381.934676952752	0
8	1111	2411.664070294826	0
8	1128	2435.341088410146	18.836779314321
8	1131	2439.926621413961	22.606722187395
8	1134	2442.973699440085	21.114618367053
8	1135	2445.484293350205	12.400644243405
8	1144	2455.537109114189	12.800106786477
8	1151	2465.323567038965	15.021970817744
8	1162	2487.766596964172	32.370437970111
8	1165	2490.176134736916	14.54094327843
8	1168	2493.228728756708	15.158119759774
8	1169	2493.987028753625	7.412842238867
9	164	369.821762595074	23
9	186	408.352322134783	24
9	189	425.177915930966	25
9	192	436.719867471111	26
9	199	451.314791611018	27
9	218	476.446657360061	28
9	226	504.647888467318	29
9	231	517.722995294933	30
9	239	534.177142600604	31
9	242	542.549381335244	32
9	247	553.03500215346	33
9	275	621.208392349847	34
9	276	622.139386634124	35
9	285	661.334096920524	36
9	292	680.609976068573	37
9	307	704.617952637811	38
9	313	719.690989246213	39
9	316	721.411777833786	40
9	335	747.533805901909	41
9	346	766.603428760522	42
9	349	779.392898830734	43
9	352	784.742778087035	44
9	361	793.290075867963	45
9	369	809.235288466639	46
9	375	832.962221833583	47
9	380	835.827552565702	48
9	387	846.666257155074	49
9	403	895.725183888391	50
9	404	896.38284214568	51
9	405	897.647268064946	52
9	427	922.962415164685	53
9	432	934.144182625441	54
9	441	941.536332194416	55
9	442	946.485716564308	56
9	448	957.477713204444	57
9	455	969.679711205963	58
9	462	981.489437317732	59
9	479	1005.934720098605	60
9	490	1042.16033555703	61
9	491	1049.442564300641	62
9	498	1067.421476829801	63
9	501	1076.607356127549	64
9	517	1129.576277580111	65
9	524	1146.672412883682	66
9	527	1153.583394598728	67
9	530	1154.120362259429	68
9	533	1160.171627197684	69
9	538	1167.61299011354	70
9	563	1191.805437444535	71
9	566	1196.495283902549	72
9	575	1228.880192219258	73
9	576	1237.40037783404	74
9	577	1240.49466313074	75
9	589	1262.699603793309	76
9	592	1264.756643505126	77
9	596	1274.455445172066	78
9	606	1301.900584434791	79
9	607	1305.709672726154	80
9	612	1308.920106552651	81
9	619	1335.07180854489	82
9	633	1372.36048345524	83
9	634	1373.998405184408	84
9	642	1376.928248498577	85
9	659	1410.361293036043	86
9	679	1447.270611642497	87
9	694	1480.342039274346	88
9	697	1489.27366108986	89
9	700	1496.186269415224	90
9	716	1526.813801521739	91
9	733	1561.760493663415	92
9	736	1573.468964140858	93
9	747	1599.130105431836	94
9	769	1651.400108398882	95
9	816	1748.563354584174	96
9	819	1760.362422766147	97
9	822	1765.118928417196	98
9	829	1771.307347456575	99
9	834	1794.030536600713	100
9	841	1801.20924113789	101
9	842	1801.599314280185	102
9	845	1804.963872950614	103
9	854	1815.180449535833	104
9	870	1838.594601989532	105
9	882	1876.505988414152	106
9	885	1881.790785323285	107
9	900	1927.348548180186	108
9	901	1937.247443017084	109
9	902	1945.460562502746	110
9	914	1985.033415965719	111
9	928	2034.261064847739	112
9	954	2084.012285312072	113
9	961	2095.557662699459	114
9	967	2115.891843162201	115
9	972	2134.213707109137	116
9	981	2160.20654793263	117
9	984	2162.583603707916	118
9	992	2175.619221504677	119
9	997	2198.255274539993	120
9	1004	2208.206067336556	121
9	1007	2211.262901175855	122
9	1022	2265.522295877423	123
9	1027	2270.804779958831	124
9	1033	2284.710191987587	125
9	1037	2299.75816746257	126
9	1050	2311.366419053131	127
9	1053	2314.854533305551	128
9	1058	2327.175705760155	129
9	1061	2328.470596953763	130
9	1072	2344.487755815558	131
9	1073	2344.907492078818	132
9	1080	2352.837398499538	133
9	1085	2360.727810107703	134
9	1088	2373.221545854543	135
9	1091	2373.529219673513	136
9	1094	2381.237889487352	137
9	1097	2383.876092426448	138
9	1128	2435.341088410146	139
9	1131	2439.926621413961	140
9	1134	2442.973699440085	141
9	1135	2445.484293350205	142
9	1144	2455.537109114189	143
9	1151	2465.323567038965	144
9	1162	2487.766596964172	145
9	1165	2490.176134736916	146
9	1168	2493.228728756708	147
9	1169	2493.987028753625	148
10	164	369.821762595074	0.863360089085
10	186	408.352322134783	5.472005013127
10	189	425.177915930966	22.218477163289
10	192	436.719867471111	25.56880987632
10	199	451.314791611018	25.807055416168
10	218	476.446657360061	6.644409111121
10	226	504.647888467318	1.353204691207
10	231	517.722995294933	10.012340097135
10	239	534.177142600604	7.504353020273
10	242	542.549381335244	15.254689155338
10	247	553.03500215346	0.155222324146
10	275	621.208392349847	26.316953236949
10	276	622.139386634124	20.345224469232
10	285	661.334096920524	33.542334047551
10	292	680.609976068573	2.852508796097
10	307	704.617952637811	11.291571502511
10	313	719.690989246213	1.289033445564
10	316	721.411777833786	0.19103188542
10	335	747.533805901909	10.67155239138
10	346	766.603428760522	19.063814535341
10	349	779.392898830734	28.786296808829
10	352	784.742778087035	3.968851328741
10	361	793.290075867963	3.169101891063
10	369	809.235288466639	1.577655517185
10	375	832.962221833583	2.879231777292
10	380	835.827552565702	1.711259069287
10	387	846.666257155074	0.888015814604
10	403	895.725183888391	14.963486655752
10	404	896.38284214568	4.237426356296
10	405	897.647268064946	3.274239623433
10	427	922.962415164685	9.354889409154
10	432	934.144182625441	13.866975700149
10	441	941.536332194416	6.863624014697
10	442	946.485716564308	10.456781251106
10	448	957.477713204444	0.429626187616
10	455	969.679711205963	11.469628917966
10	462	981.489437317732	4.901525275129
10	479	1005.934720098605	0.344582123226
10	490	1042.16033555703	3.852177538507
10	491	1049.442564300641	10.897245037634
10	498	1067.421476829801	14.128024645807
10	501	1076.607356127549	4.381825721363
10	517	1129.576277580111	9.489851397009
10	524	1146.672412883682	18.520169561929
10	527	1153.583394598728	17.740356979195
10	530	1154.120362259429	1.87369053897
10	533	1160.171627197684	6.028643728718
10	538	1167.61299011354	5.295609208267
10	563	1191.805437444535	22.334546015093
10	566	1196.495283902549	16.431610955537
10	575	1228.880192219258	46.396105683063
10	576	1237.40037783404	53.316901232317
10	577	1240.49466313074	21.12658961274
10	589	1262.699603793309	4.979226061725
10	592	1264.756643505126	6.075634027524
10	596	1274.455445172066	4.178513910531
10	606	1301.900584434791	11.938302030971
10	607	1305.709672726154	13.146261017131
10	612	1308.920106552651	0.493536398506
10	619	1335.07180854489	0.329666861308
10	633	1372.36048345524	3.401438864819
10	634	1373.998405184408	2.051197566454
10	642	1376.928248498577	0.544464073287
10	659	1410.361293036043	4.853465964044
10	679	1447.270611642497	2.885498067649
10	694	1480.342039274346	0.282317992414
10	697	1489.27366108986	0.547366308962
10	700	1496.186269415224	0.045133155385
10	716	1526.813801521739	2.571463017238
10	733	1561.760493663415	19.312862041116
10	736	1573.468964140858	24.002882010502
10	747	1599.130105431836	8.488107177919
10	769	1651.400108398882	17.685758371629
10	816	1748.563354584174	33.33360220409
10	819	1760.362422766147	37.256653235828
10	822	1765.118928417196	29.413343575744
10	829	1771.307347456575	31.994910767621
10	834	1794.030536600713	13.009793679142
10	841	1801.20924113789	10.219473204447
10	842	1801.599314280185	3.588056102845
10	845	1804.963872950614	4.990203938322
10	854	1815.180449535833	12.391837785697
10	870	1838.594601989532	1.386792387867
10	882	1876.505988414152	2.291168579176
10	885	1881.790785323285	4.298462223708
10	900	1927.348548180186	28.336639619396
10	901	1937.247443017084	28.541651988792
10	902	1945.460562502746	18.655686583156
10	914	1985.033415965719	0.487140514946
10	928	2034.261064847739	38.248222433817
10	954	2084.012285312072	0.157131965853
10	961	2095.557662699459	2.893602586327
10	967	2115.891843162201	11.040462702236
10	972	2134.213707109137	11.669831846562
10	981	2160.20654793263	2.674547912808
10	984	2162.583603707916	1.813660361427
10	992	2175.619221504677	9.058959492324
10	997	2198.255274539993	27.93855296684
10	1004	2208.206067336556	19.694518689772
10	1007	2211.262901175855	12.629133465753
10	1022	2265.522295877423	20.262301631845
10	1027	2270.804779958831	5.225240185073
10	1033	2284.710191987587	3.835298658308
10	1037	2299.75816746257	9.562406124581
10	1050	2311.366419053131	3.328870048738
10	1053	2314.854533305551	6.768791020046
10	1058	2327.175705760155	18.288481233307
10	1061	2328.470596953763	3.665755967128
10	1072	2344.487755815558	10.845049377132
10	1073	2344.907492078818	8.549036156521
10	1080	2352.837398499538	14.819719711604
10	1085	2360.727810107703	21.047005478745
10	1088	2373.221545854543	26.250633059063
10	1091	2373.529219673513	21.199708849645
10	1094	2381.237889487352	20.87734381935
10	1097	2383.876092426448	1.941415473696
10	1128	2435.341088410146	23.67701811532
10	1131	2439.926621413961	23.422312318136
10	1134	2442.973699440085	25.653800213519
10	1135	2445.484293350205	23.625212277173
10	1144	2455.537109114189	22.453460007389
10	1151	2465.323567038965	22.586564711253
10	1162	2487.766596964172	37.465000742951
10	1165	2490.176134736916	34.779975742855
10	1168	2493.228728756708	17.593537298222
10	1169	2493.987028753625	15.916419756691
11	1170	2500	0.0828
12	1170	2500	0.0592

