version 2
run experiments_medium_game_mode1-78-20230311-09:40:13-9056
attr configname experiments_medium_game_mode1
attr datetime 20230311-09:40:13
attr experiment experiments_medium_game_mode1
attr inifile omnetpp.ini
attr iterationvars "$0=5, $1=4, $2=0"
attr iterationvarsf 5,4,0-
attr measurement "$0=5, $1=4, $2=0"
attr network Network
attr processid 9056
attr repetition 18
attr replication #18
attr resultdir results
attr runnumber 78
attr seedset 18
param *.boss.arrival_mean 20
param *.boss.service_mean 5
param *.minion.arrival_mean 10
param *.minion.service_mean 4
param *.player.recover_rate_x 0
param **.minion.arrival_distribution 0
param **.minion.service_distribution 0
param **.boss.arrival_distribution 0
param **.boss.service_distribution 0

vector 0 Network.player boss_jobs_number_stat:vector ETV
attr source signal_boss_jobs_number
vector 1 Network.player boss_jobs_queue_number_stat:vector ETV
attr source signal_boss_jobs_queue_number
vector 2 Network.player minion_recovered_stat:vector ETV
attr source signal_minion_recovered
vector 3 Network.player boss_waiting_time_stat:vector ETV
attr source signal_boss_waiting_time
vector 4 Network.player boss_defeated_stat:vector ETV
attr source signal_boss_defeated
vector 5 Network.player boss_response_time_stat:vector ETV
attr source signal_boss_response_time
vector 6 Network.player minion_waiting_time_stat:vector ETV
attr source signal_minion_waiting_time
vector 7 Network.player minion_jobs_number_stat:vector ETV
attr source signal_minion_jobs_number
vector 8 Network.player minion_jobs_queue_number_stat:vector ETV
attr source signal_minion_jobs_queue_number
vector 9 Network.player minion_defeated_stat:vector ETV
attr source signal_minion_defeated
vector 10 Network.player minion_response_time_stat:vector ETV
attr source signal_minion_response_time
vector 11 Network.player minion_throughput:vector ETV
attr source signal_minion_throughput
vector 12 Network.player boss_throughput:vector ETV
attr source signal_boss_throughput
0	143	352.65760743913	1
0	150	359.293699558628	1
0	154	361.689670555923	1
0	178	423.510220605586	1
0	194	464.310329824607	1
0	206	490.311357624162	1
0	215	503.252965294132	1
0	219	507.787385408353	2
0	224	509.460907223688	2
0	231	515.59083765368	2
0	233	518.812306809382	3
0	240	528.789657893763	3
0	243	536.621619676878	3
0	248	539.876371230947	3
0	250	540.011977590143	4
0	271	576.409290106954	1
0	281	601.646983798841	1
0	295	620.5673933378	1
0	297	621.913209437982	2
0	313	646.35204339536	1
0	317	657.379640067769	1
0	344	733.174320689637	1
0	353	765.857088538859	1
0	383	831.36383180455	1
0	385	831.962629369746	2
0	392	850.840600045191	2
0	398	865.76178541671	3
0	415	901.223484359462	1
0	436	932.184322298713	1
0	440	937.929585530627	1
0	454	971.342649776712	1
0	467	983.072545625181	1
0	470	991.427067730116	1
0	479	1015.605515033844	1
0	487	1025.81114179477	1
0	516	1109.798972014767	1
0	530	1149.457133924026	1
0	551	1196.526696454582	1
0	553	1196.569454728748	2
0	557	1210.285144495441	1
0	559	1213.98675580795	2
0	566	1231.630065478987	2
0	571	1241.308179746611	2
0	584	1263.189796643971	1
0	598	1281.513172219529	1
0	603	1292.096612948606	1
0	609	1294.89263798076	2
0	611	1295.723033753267	3
0	613	1296.428746356222	4
0	616	1297.941004178685	4
0	627	1322.14802534089	2
0	629	1323.120498050406	3
0	639	1338.292960251381	4
0	667	1384.918681491055	1
0	676	1412.519964056525	1
0	687	1429.644800299848	1
0	689	1432.943823798201	2
0	700	1454.825693868242	1
0	702	1456.237201907714	2
0	707	1463.501273298819	2
0	714	1476.895200702336	2
0	719	1478.65248867971	2
0	725	1493.942844496456	3
0	735	1513.068384497825	1
0	745	1530.316331484607	1
0	793	1626.275814319071	1
0	803	1648.090529582688	1
0	805	1648.406833864499	2
0	812	1660.09057612624	1
0	817	1673.738745992098	1
0	820	1676.701949053993	1
0	822	1677.810560318481	2
0	825	1682.363952277894	2
0	831	1701.700788650236	1
0	834	1706.668184001908	1
0	849	1748.582026119455	1
0	866	1779.095334613409	1
0	881	1801.263659048677	1
0	893	1825.874136888878	1
0	898	1830.294960282079	1
0	905	1845.141402175686	1
0	914	1885.574877957284	1
0	950	1962.87460879635	1
0	959	2024.60862566707	1
0	961	2030.819784934859	2
0	968	2055.285658945094	1
0	983	2081.351597619549	1
0	995	2096.782173260599	1
0	1001	2106.087901989699	1
0	1025	2154.144294006872	1
0	1033	2167.364661838233	1
0	1040	2176.992351096176	1
0	1049	2206.891406240519	1
0	1061	2247.512079356014	1
0	1070	2306.924212961346	1
0	1076	2348.186366084548	1
0	1085	2370.15674638938	1
0	1109	2425.111267728735	1
0	1121	2451.626198357569	1
0	1127	2469.476608553846	1
0	1133	2490.238705866935	1
0	1135	2494.252370332495	2
0	1137	2494.636027121347	3
1	143	352.65760743913	0
1	144	355.000652629063	0
1	150	359.293699558628	0
1	151	359.573357923925	0
1	154	361.689670555923	0
1	157	375.248618995425	0
1	178	423.510220605586	0
1	181	427.251101970574	0
1	194	464.310329824607	0
1	195	469.532956438334	0
1	206	490.311357624162	0
1	209	495.059087049932	0
1	215	503.252965294132	0
1	219	507.787385408353	1
1	220	508.823491364998	1
1	224	509.460907223688	1
1	225	512.475253202934	1
1	231	515.59083765368	1
1	233	518.812306809382	2
1	238	525.885233337493	2
1	240	528.789657893763	2
1	241	532.58678606559	2
1	243	536.621619676878	2
1	246	538.129918704245	2
1	248	539.876371230947	2
1	250	540.011977590143	3
1	251	542.86238856893	3
1	254	544.183026983302	2
1	255	547.953318912796	1
1	258	549.430777051928	0
1	271	576.409290106954	0
1	272	578.499686353558	0
1	281	601.646983798841	0
1	284	602.921392295951	0
1	295	620.5673933378	0
1	297	621.913209437982	1
1	298	623.063149688888	1
1	299	623.483867081826	0
1	313	646.35204339536	0
1	314	651.099469576829	0
1	317	657.379640067769	0
1	320	658.396346178055	0
1	344	733.174320689637	0
1	345	736.317579702154	0
1	353	765.857088538859	0
1	356	772.31108904225	0
1	383	831.36383180455	0
1	385	831.962629369746	1
1	386	832.018744427218	1
1	392	850.840600045191	1
1	398	865.76178541671	2
1	399	866.222201958266	2
1	400	868.503244889134	1
1	403	869.275824272534	0
1	415	901.223484359462	0
1	416	905.619350748027	0
1	436	932.184322298713	0
1	437	933.43125623854	0
1	440	937.929585530627	0
1	441	938.939764507989	0
1	454	971.342649776712	0
1	455	972.974438228348	0
1	467	983.072545625181	0
1	468	987.089369207947	0
1	470	991.427067730116	0
1	473	998.300038339356	0
1	479	1015.605515033844	0
1	480	1016.512096766327	0
1	487	1025.81114179477	0
1	494	1045.493229008491	0
1	516	1109.798972014767	0
1	519	1113.274171307354	0
1	530	1149.457133924026	0
1	533	1156.982412909121	0
1	551	1196.526696454582	0
1	553	1196.569454728748	1
1	554	1201.100138684759	1
1	555	1207.039698068103	0
1	557	1210.285144495441	0
1	559	1213.98675580795	1
1	562	1225.568366645963	1
1	566	1231.630065478987	1
1	569	1240.394861270234	1
1	571	1241.308179746611	1
1	572	1243.003073074411	1
1	573	1243.40830053074	0
1	584	1263.189796643971	0
1	589	1273.71593604248	0
1	598	1281.513172219529	0
1	599	1282.692197004471	0
1	603	1292.096612948606	0
1	609	1294.89263798076	1
1	611	1295.723033753267	2
1	613	1296.428746356222	3
1	614	1297.730997222447	3
1	616	1297.941004178685	3
1	617	1303.206273075817	3
1	618	1305.727041667522	2
1	625	1313.758638570245	1
1	627	1322.14802534089	1
1	629	1323.120498050406	2
1	639	1338.292960251381	3
1	640	1338.405297008343	3
1	641	1343.490576332733	2
1	642	1345.450467357358	1
1	645	1345.619797497772	0
1	667	1384.918681491055	0
1	668	1391.552664720361	0
1	676	1412.519964056525	0
1	677	1414.198676614422	0
1	687	1429.644800299848	0
1	689	1432.943823798201	1
1	696	1450.518942986371	1
1	697	1450.964127404181	0
1	700	1454.825693868242	0
1	702	1456.237201907714	1
1	705	1463.341907646654	1
1	707	1463.501273298819	1
1	710	1473.74994032505	1
1	714	1476.895200702336	1
1	717	1478.534457849437	1
1	719	1478.65248867971	1
1	725	1493.942844496456	2
1	726	1494.009040799066	2
1	727	1496.965979902662	1
1	728	1503.48333736351	0
1	735	1513.068384497825	0
1	738	1518.932097211922	0
1	745	1530.316331484607	0
1	746	1530.444287460195	0
1	793	1626.275814319071	0
1	796	1630.996384290281	0
1	803	1648.090529582688	0
1	805	1648.406833864499	1
1	806	1655.135492625113	1
1	807	1656.450331248283	0
1	812	1660.09057612624	0
1	815	1671.209746478178	0
1	817	1673.738745992098	0
1	818	1675.474800521202	0
1	820	1676.701949053993	0
1	822	1677.810560318481	1
1	823	1678.242802934745	1
1	825	1682.363952277894	1
1	826	1686.517049944784	1
1	829	1699.911953372408	0
1	831	1701.700788650236	0
1	832	1706.061385726255	0
1	834	1706.668184001908	0
1	835	1709.285811390523	0
1	849	1748.582026119455	0
1	850	1751.910238132955	0
1	866	1779.095334613409	0
1	869	1781.777494426121	0
1	881	1801.263659048677	0
1	882	1803.363309715858	0
1	893	1825.874136888878	0
1	894	1826.97687718658	0
1	898	1830.294960282079	0
1	899	1834.12175249106	0
1	905	1845.141402175686	0
1	908	1866.364927467096	0
1	914	1885.574877957284	0
1	915	1885.643003063929	0
1	950	1962.87460879635	0
1	951	1964.753858320209	0
1	959	2024.60862566707	0
1	961	2030.819784934859	1
1	962	2031.613032275537	1
1	963	2032.599351300243	0
1	968	2055.285658945094	0
1	971	2059.978704300191	0
1	983	2081.351597619549	0
1	984	2081.409405410442	0
1	995	2096.782173260599	0
1	996	2100.684427863579	0
1	1001	2106.087901989699	0
1	1004	2114.176411138331	0
1	1025	2154.144294006872	0
1	1026	2156.183541970433	0
1	1033	2167.364661838233	0
1	1036	2170.869340479915	0
1	1040	2176.992351096176	0
1	1041	2179.72937474818	0
1	1049	2206.891406240519	0
1	1052	2210.048173713707	0
1	1061	2247.512079356014	0
1	1062	2250.681999292215	0
1	1070	2306.924212961346	0
1	1071	2314.482343497808	0
1	1076	2348.186366084548	0
1	1077	2349.818122463255	0
1	1085	2370.15674638938	0
1	1086	2371.823601846426	0
1	1109	2425.111267728735	0
1	1110	2430.672999740256	0
1	1121	2451.626198357569	0
1	1122	2452.199687270951	0
1	1127	2469.476608553846	0
1	1128	2475.682918891858	0
1	1133	2490.238705866935	0
1	1135	2494.252370332495	1
1	1137	2494.636027121347	2
2	143	352.65760743913	8
2	150	359.293699558628	9
2	154	361.689670555923	10
2	178	423.510220605586	11
2	271	576.409290106954	12
2	281	601.646983798841	13
2	295	620.5673933378	14
2	313	646.35204339536	15
2	415	901.223484359462	16
2	436	932.184322298713	17
2	454	971.342649776712	18
2	487	1025.81114179477	19
2	516	1109.798972014767	20
2	584	1263.189796643971	21
2	598	1281.513172219529	22
2	603	1292.096612948606	23
2	667	1384.918681491055	24
2	676	1412.519964056525	25
2	687	1429.644800299848	26
2	700	1454.825693868242	27
2	735	1513.068384497825	28
2	745	1530.316331484607	29
2	793	1626.275814319071	30
2	817	1673.738745992098	31
2	820	1676.701949053993	32
2	831	1701.700788650236	33
2	834	1706.668184001908	34
2	849	1748.582026119455	35
2	866	1779.095334613409	36
2	881	1801.263659048677	37
2	898	1830.294960282079	38
2	1033	2167.364661838233	39
3	143	352.65760743913	0
3	150	359.293699558628	0
3	154	361.689670555923	0
3	178	423.510220605586	0
3	194	464.310329824607	0
3	206	490.311357624162	0
3	215	503.252965294132	0
3	220	508.823491364998	1.036105956645
3	225	512.475253202934	3.014345979246
3	238	525.885233337493	10.294395683813
3	241	532.58678606559	13.774479256208
3	246	538.129918704245	9.340260810482
3	251	542.86238856893	6.240768892052
3	254	544.183026983302	4.306655752355
3	255	547.953318912796	7.941341322653
3	271	576.409290106954	0
3	281	601.646983798841	0
3	295	620.5673933378	0
3	298	623.063149688888	1.149940250906
3	313	646.35204339536	0
3	317	657.379640067769	0
3	344	733.174320689637	0
3	353	765.857088538859	0
3	383	831.36383180455	0
3	386	832.018744427218	0.056115057472
3	399	866.222201958266	15.381601913075
3	400	868.503244889134	2.741459472424
3	415	901.223484359462	0
3	436	932.184322298713	0
3	440	937.929585530627	0
3	454	971.342649776712	0
3	467	983.072545625181	0
3	470	991.427067730116	0
3	479	1015.605515033844	0
3	487	1025.81114179477	0
3	516	1109.798972014767	0
3	530	1149.457133924026	0
3	551	1196.526696454582	0
3	554	1201.100138684759	4.530683956011
3	557	1210.285144495441	0
3	562	1225.568366645963	11.581610838013
3	569	1240.394861270234	8.764795791247
3	572	1243.003073074411	1.6948933278
3	584	1263.189796643971	0
3	598	1281.513172219529	0
3	603	1292.096612948606	0
3	614	1297.730997222447	2.838359241687
3	617	1303.206273075817	7.48323932255
3	618	1305.727041667522	9.2982953113
3	625	1313.758638570245	15.81763439156
3	640	1338.405297008343	16.257271667453
3	641	1343.490576332733	20.370078282327
3	642	1345.450467357358	7.157507105977
3	667	1384.918681491055	0
3	676	1412.519964056525	0
3	687	1429.644800299848	0
3	696	1450.518942986371	17.57511918817
3	700	1454.825693868242	0
3	705	1463.341907646654	7.10470573894
3	710	1473.74994032505	10.248667026231
3	717	1478.534457849437	1.639257147101
3	726	1494.009040799066	15.356552119356
3	727	1496.965979902662	3.023135406206
3	735	1513.068384497825	0
3	745	1530.316331484607	0
3	793	1626.275814319071	0
3	803	1648.090529582688	0
3	806	1655.135492625113	6.728658760614
3	812	1660.09057612624	0
3	817	1673.738745992098	0
3	820	1676.701949053993	0
3	823	1678.242802934745	0.432242616264
3	826	1686.517049944784	4.15309766689
3	831	1701.700788650236	0
3	834	1706.668184001908	0
3	849	1748.582026119455	0
3	866	1779.095334613409	0
3	881	1801.263659048677	0
3	893	1825.874136888878	0
3	898	1830.294960282079	0
3	905	1845.141402175686	0
3	914	1885.574877957284	0
3	950	1962.87460879635	0
3	959	2024.60862566707	0
3	962	2031.613032275537	0.793247340678
3	968	2055.285658945094	0
3	983	2081.351597619549	0
3	995	2096.782173260599	0
3	1001	2106.087901989699	0
3	1025	2154.144294006872	0
3	1033	2167.364661838233	0
3	1040	2176.992351096176	0
3	1049	2206.891406240519	0
3	1061	2247.512079356014	0
3	1070	2306.924212961346	0
3	1076	2348.186366084548	0
3	1085	2370.15674638938	0
3	1109	2425.111267728735	0
3	1121	2451.626198357569	0
3	1127	2469.476608553846	0
3	1133	2490.238705866935	0
4	144	355.000652629063	17
4	151	359.573357923925	18
4	157	375.248618995425	19
4	181	427.251101970574	20
4	195	469.532956438334	21
4	209	495.059087049932	22
4	220	508.823491364998	23
4	225	512.475253202934	24
4	238	525.885233337493	25
4	241	532.58678606559	26
4	246	538.129918704245	27
4	251	542.86238856893	28
4	254	544.183026983302	29
4	255	547.953318912796	30
4	258	549.430777051928	31
4	272	578.499686353558	32
4	284	602.921392295951	33
4	298	623.063149688888	34
4	299	623.483867081826	35
4	314	651.099469576829	36
4	320	658.396346178055	37
4	345	736.317579702154	38
4	356	772.31108904225	39
4	386	832.018744427218	40
4	399	866.222201958266	41
4	400	868.503244889134	42
4	403	869.275824272534	43
4	416	905.619350748027	44
4	437	933.43125623854	45
4	441	938.939764507989	46
4	455	972.974438228348	47
4	468	987.089369207947	48
4	473	998.300038339356	49
4	480	1016.512096766327	50
4	494	1045.493229008491	51
4	519	1113.274171307354	52
4	533	1156.982412909121	53
4	554	1201.100138684759	54
4	555	1207.039698068103	55
4	562	1225.568366645963	56
4	569	1240.394861270234	57
4	572	1243.003073074411	58
4	573	1243.40830053074	59
4	589	1273.71593604248	60
4	599	1282.692197004471	61
4	614	1297.730997222447	62
4	617	1303.206273075817	63
4	618	1305.727041667522	64
4	625	1313.758638570245	65
4	640	1338.405297008343	66
4	641	1343.490576332733	67
4	642	1345.450467357358	68
4	645	1345.619797497772	69
4	668	1391.552664720361	70
4	677	1414.198676614422	71
4	696	1450.518942986371	72
4	697	1450.964127404181	73
4	705	1463.341907646654	74
4	710	1473.74994032505	75
4	717	1478.534457849437	76
4	726	1494.009040799066	77
4	727	1496.965979902662	78
4	728	1503.48333736351	79
4	738	1518.932097211922	80
4	746	1530.444287460195	81
4	796	1630.996384290281	82
4	806	1655.135492625113	83
4	807	1656.450331248283	84
4	815	1671.209746478178	85
4	818	1675.474800521202	86
4	823	1678.242802934745	87
4	826	1686.517049944784	88
4	829	1699.911953372408	89
4	832	1706.061385726255	90
4	835	1709.285811390523	91
4	850	1751.910238132955	92
4	869	1781.777494426121	93
4	882	1803.363309715858	94
4	894	1826.97687718658	95
4	899	1834.12175249106	96
4	908	1866.364927467096	97
4	915	1885.643003063929	98
4	951	1964.753858320209	99
4	962	2031.613032275537	100
4	963	2032.599351300243	101
4	971	2059.978704300191	102
4	984	2081.409405410442	103
4	996	2100.684427863579	104
4	1004	2114.176411138331	105
4	1026	2156.183541970433	106
4	1036	2170.869340479915	107
4	1041	2179.72937474818	108
4	1052	2210.048173713707	109
4	1062	2250.681999292215	110
4	1071	2314.482343497808	111
4	1077	2349.818122463255	112
4	1086	2371.823601846426	113
4	1110	2430.672999740256	114
4	1122	2452.199687270951	115
4	1128	2475.682918891858	116
5	144	355.000652629063	2.343045189933
5	151	359.573357923925	0.279658365297
5	157	375.248618995425	13.558948439502
5	181	427.251101970574	3.740881364988
5	195	469.532956438334	5.222626613727
5	209	495.059087049932	4.74772942577
5	220	508.823491364998	5.570526070866
5	225	512.475253202934	4.687867794581
5	238	525.885233337493	16.424326113805
5	241	532.58678606559	16.99594841191
5	246	538.129918704245	19.317611894863
5	251	542.86238856893	14.072730675167
5	254	544.183026983302	7.561407306424
5	255	547.953318912796	8.076947681849
5	258	549.430777051928	9.418799461785
5	272	578.499686353558	2.090396246604
5	284	602.921392295951	1.27440849711
5	298	623.063149688888	2.495756351088
5	299	623.483867081826	1.570657643844
5	314	651.099469576829	4.747426181469
5	320	658.396346178055	1.016706110286
5	345	736.317579702154	3.143259012517
5	356	772.31108904225	6.454000503391
5	386	832.018744427218	0.654912622668
5	399	866.222201958266	34.25957258852
5	400	868.503244889134	17.662644843943
5	403	869.275824272534	3.514038855824
5	416	905.619350748027	4.395866388565
5	437	933.43125623854	1.246933939827
5	441	938.939764507989	1.010178977362
5	455	972.974438228348	1.631788451636
5	468	987.089369207947	4.016823582766
5	473	998.300038339356	6.87297060924
5	480	1016.512096766327	0.906581732483
5	494	1045.493229008491	19.682087213721
5	519	1113.274171307354	3.475199292587
5	533	1156.982412909121	7.525278985095
5	554	1201.100138684759	4.573442230177
5	555	1207.039698068103	10.470243339355
5	562	1225.568366645963	15.283222150522
5	569	1240.394861270234	26.408105462284
5	572	1243.003073074411	11.373007595424
5	573	1243.40830053074	2.100120784129
5	589	1273.71593604248	10.526139398509
5	599	1282.692197004471	1.179024784942
5	614	1297.730997222447	5.634384273841
5	617	1303.206273075817	8.313635095057
5	618	1305.727041667522	10.004007914255
5	625	1313.758638570245	17.329892214023
5	640	1338.405297008343	40.464292829658
5	641	1343.490576332733	21.342550991843
5	642	1345.450467357358	22.329969306952
5	645	1345.619797497772	7.326837246391
5	668	1391.552664720361	6.633983229306
5	677	1414.198676614422	1.678712557897
5	696	1450.518942986371	20.874142686523
5	697	1450.964127404181	18.02030360598
5	705	1463.341907646654	8.516213778412
5	710	1473.74994032505	17.512738417336
5	717	1478.534457849437	15.033184550618
5	726	1494.009040799066	17.11384009673
5	727	1496.965979902662	18.313491222952
5	728	1503.48333736351	9.540492867054
5	738	1518.932097211922	5.863712714097
5	746	1530.444287460195	0.127955975588
5	796	1630.996384290281	4.72056997121
5	806	1655.135492625113	7.044963042425
5	807	1656.450331248283	8.043497383784
5	815	1671.209746478178	11.119170351938
5	818	1675.474800521202	1.736054529104
5	823	1678.242802934745	1.540853880752
5	826	1686.517049944784	8.706489626303
5	829	1699.911953372408	17.548001094514
5	832	1706.061385726255	4.360597076019
5	835	1709.285811390523	2.617627388615
5	850	1751.910238132955	3.3282120135
5	869	1781.777494426121	2.682159812712
5	882	1803.363309715858	2.099650667181
5	894	1826.97687718658	1.102740297702
5	899	1834.12175249106	3.826792208981
5	908	1866.364927467096	21.22352529141
5	915	1885.643003063929	0.068125106645
5	951	1964.753858320209	1.879249523859
5	962	2031.613032275537	7.004406608467
5	963	2032.599351300243	1.779566365384
5	971	2059.978704300191	4.693045355097
5	984	2081.409405410442	0.057807790893
5	996	2100.684427863579	3.90225460298
5	1004	2114.176411138331	8.088509148632
5	1026	2156.183541970433	2.039247963561
5	1036	2170.869340479915	3.504678641682
5	1041	2179.72937474818	2.737023652004
5	1052	2210.048173713707	3.156767473188
5	1062	2250.681999292215	3.169919936201
5	1071	2314.482343497808	7.558130536462
5	1077	2349.818122463255	1.631756378707
5	1086	2371.823601846426	1.666855457046
5	1110	2430.672999740256	5.561732011521
5	1122	2452.199687270951	0.573488913382
5	1128	2475.682918891858	6.206310338012
6	144	355.000652629063	11.135605775732
6	147	358.554029058654	12.259573085488
6	148	359.001496218728	6.343888779598
6	151	359.573357923925	4.513890558875
6	152	360.788449633815	1.494750075187
6	157	375.248618995425	13.558948439502
6	158	376.5104433664	5.729593342748
6	161	386.01824043156	0
6	164	397.684376195028	0
6	167	407.278190585379	0
6	170	417.33514203939	9.41970198372
6	173	418.107060154421	0.309276435961
6	176	419.657785982005	0
6	181	427.251101970574	3.740881364988
6	182	429.746663230826	5.470599946185
6	185	445.699346670034	0
6	188	447.543103794211	0
6	191	460.516704985146	0
6	197	474.19422053615	0
6	200	481.095683169202	0
6	203	486.127831312219	0
6	209	495.059087049932	4.573946692625
6	212	501.288951545055	0
6	258	549.430777051928	44.427820752832
6	259	554.243104406213	45.403440963194
6	260	555.8900252176	42.151754171076
6	261	560.164544574793	45.706252078946
6	264	561.023936571276	35.794437293323
6	267	572.276902389338	46.546017171939
6	268	573.528519099721	36.136645628205
6	269	575.296911555269	32.07741074737
6	272	578.499686353558	29.964021686607
6	273	578.819791082859	18.196084627227
6	276	590.582159281996	21.64269856718
6	277	593.598169597121	17.188879490167
6	284	602.921392295951	18.45264313374
6	287	609.778042445379	9.986762577455
6	288	611.600582678908	9.953598880067
6	291	617.506448756584	15.005804683094
6	299	623.483867081826	17.764891386042
6	300	627.919207737285	11.670731104319
6	301	628.14731580274	8.96283865576
6	302	629.389572688984	8.822179351184
6	305	639.624648878793	0
6	310	644.298567771073	2.492265873006
6	311	644.52619594412	0.356489682475
6	314	651.099469576829	4.747426181469
6	320	658.396346178055	0.165580121591
6	323	662.920760747571	3.298624460879
6	326	666.613779165883	0.809165685067
6	329	682.178400840308	0
6	332	700.87674194091	0
6	335	708.83013215548	7.544454912471
6	338	717.967404583469	0
6	341	722.446726874082	0
6	347	739.610347347772	0
6	350	755.005482470375	4.119619365283
6	356	772.31108904225	3.064068988786
6	359	786.806884617963	0
6	362	796.034432044079	0
6	365	801.770196139294	0
6	370	803.536685281458	0.893323544209
6	371	804.25571213509	0.789369670319
6	374	821.989938605393	0
6	377	822.971999659924	0
6	380	828.226301400428	2.5341739068
6	403	869.275824272534	31.794775463323
6	404	869.778262414352	32.249551055087
6	405	873.626610410965	20.259159314114
6	406	873.798695392515	8.990776677845
6	407	874.845394316107	6.145926113939
6	410	892.215476562267	0
6	413	896.95419122637	0
6	416	905.619350748027	4.395866388565
6	419	908.783784786466	0
6	422	921.983408396422	0
6	425	925.728148657046	2.650656981404
6	430	928.695999543868	2.382127324099
6	431	929.017190642977	0.650664551073
6	434	931.138786419577	0
6	437	933.43125623854	1.246933939827
6	443	951.775819964726	0
6	446	954.938401825785	0
6	449	960.15791517345	0
6	452	969.13688546114	7.195247702316
6	455	972.974438228348	1.631788451636
6	458	973.955373969978	0
6	463	977.458439330486	3.01946855143
6	464	981.485912405916	5.277424530124
6	473	998.300038339356	4.024561536623
6	476	998.967850855492	0
6	482	1021.422423220967	0
6	485	1025.61861987627	0
6	494	1045.493229008491	19.682087213721
6	495	1052.672058292042	17.939949099556
6	500	1065.966921853281	27.184316217335
6	501	1070.395744762906	27.235844472435
6	502	1070.418029716279	5.957943107486
6	503	1074.872247852196	9.606844103384
6	506	1093.886914810011	0
6	509	1100.077345426345	4.280460698283
6	514	1109.207168548346	8.765286601103
6	519	1113.274171307354	10.863146684467
6	522	1119.574452560956	9.775480546189
6	523	1125.405903825868	15.157055846537
6	524	1125.567071181187	9.905034725706
6	527	1129.936669398917	1.944804962808
6	533	1156.982412909121	6.578918000882
6	538	1163.60843996192	5.910254547151
6	539	1172.301125709095	11.574452992194
6	542	1179.987550244786	0
6	545	1190.406193379886	0
6	548	1192.060187505366	0
6	573	1243.40830053074	28.866092551137
6	574	1246.188061313951	15.600451767887
6	575	1246.873139750788	7.798764242544
6	578	1257.391410668432	0.31910537811
6	589	1273.71593604248	15.561502580649
6	590	1276.511672846778	18.047756745019
6	591	1278.126933490532	14.937136846561
6	596	1281.496536768772	13.412396173133
6	599	1282.692197004471	13.132284433096
6	600	1284.22757496328	4.883618762888
6	601	1288.705672709016	7.26673826818
6	645	1345.619797497772	64.106625278243
6	646	1346.47369404307	54.377081094464
6	647	1353.316467102818	59.925314957528
6	650	1354.844658410213	60.746347295863
6	655	1357.490061688794	51.112976959067
6	658	1363.732289904522	54.942034327978
6	661	1373.729817386264	61.423574231086
6	662	1379.179097060239	53.626969713095
6	663	1380.167893358298	50.691615158412
6	664	1380.799109303823	48.82137735267
6	665	1381.455636440504	46.266496234384
6	668	1391.552664720361	46.079171543042
6	669	1391.665551037002	37.82812898592
6	670	1393.939156246078	38.035274035893
6	671	1394.879267783486	38.157401752056
6	674	1403.40009555853	41.92396799163
6	677	1414.198676614422	46.78743987822
6	680	1417.59398546528	32.675303974225
6	683	1420.38929188747	20.693102456514
6	684	1424.196032707585	11.67606865106
6	685	1425.847019472466	8.768491372268
6	697	1450.964127404181	30.67334534226
6	698	1451.888247952319	22.243447652471
6	728	1503.48333736351	65.223881907685
6	729	1505.650191102689	60.857989315205
6	730	1509.908703526664	60.037088622992
6	731	1511.663891781078	56.838197912836
6	738	1518.932097211922	58.871170991437
6	739	1519.146202379976	54.553918456911
6	740	1522.199921643244	45.997209645206
6	743	1530.10189924104	52.032382792822
6	746	1530.444287460195	44.803997723633
6	747	1530.979587904329	43.935878149039
6	750	1533.06215806579	20.778958216355
6	753	1541.099188851078	28.030804353253
6	754	1551.2289432302	36.736761354446
6	757	1555.035689779274	29.286531635437
6	758	1555.158765968241	24.842434483634
6	759	1556.151453014952	23.574251006375
6	760	1557.444188930808	19.438952318094
6	765	1563.316586143813	11.880758627204
6	766	1566.731407953022	5.558552486548
6	775	1581.594321129433	18.906338225756
6	778	1591.359688613007	14.715062503922
6	779	1592.354791158136	14.383270716807
6	780	1594.307711619556	16.082734957178
6	781	1594.485013674907	14.239358413363
6	782	1594.595093407062	9.664273331726
6	785	1598.806839497624	0
6	788	1609.425566048026	0
6	791	1624.066798678646	0
6	796	1630.996384290281	4.72056997121
6	797	1634.165898961239	6.656960804927
6	800	1644.804533826314	0
6	809	1656.941765470321	0
6	815	1671.209746478178	3.769175449982
6	818	1675.474800521202	1.736054529104
6	829	1699.911953372408	23.210004318415
6	832	1706.061385726255	9.14242200714
6	835	1709.285811390523	7.585022740287
6	838	1719.534610593353	12.866426591445
6	839	1721.133175818455	2.020568556501
6	842	1730.314919826024	0
6	845	1747.308895643383	0
6	850	1751.910238132955	3.862884979502
6	857	1761.783503403341	13.201477283886
6	860	1763.911972940608	5.410555720629
6	869	1781.777494426121	22.157131482252
6	872	1784.429135064138	23.299924698503
6	873	1785.375935274073	21.562198004562
6	874	1788.549536859582	18.363754011873
6	875	1789.417652608385	10.72987579967
6	876	1790.303668644315	11.208334030906
6	877	1791.525821819472	10.262331375766
6	882	1803.363309715858	19.715798412659
6	883	1806.472920452118	14.552576731054
6	884	1808.713270642781	7.449611594104
6	887	1812.528187808082	2.601134381754
6	890	1824.121326190655	0
6	896	1828.799173711548	0
6	899	1834.12175249106	3.826792208981
6	902	1836.776512552437	0
6	908	1866.364927467096	3.362956000509
6	911	1877.221133022566	0
6	917	1886.960024108163	0
6	920	1894.963428843149	0
6	923	1898.466332015644	0
6	926	1905.001104474535	0
6	929	1918.282732109325	0
6	932	1930.581653249306	0
6	935	1935.826789934323	0
6	938	1944.662960868503	1.783603135886
6	941	1951.691519557266	0
6	944	1953.010574054041	1.164729313606
6	947	1956.858309994716	0.916553702798
6	953	1981.415149903608	0
6	956	1991.932271441198	0
6	965	2036.820239663622	0
6	971	2059.978704300191	4.583070263734
6	974	2066.336908056797	0
6	977	2068.572735745909	0
6	980	2073.629401755589	0
6	986	2090.373689927269	0
6	989	2091.510531786147	0
6	992	2094.509784816636	0
6	998	2103.10888607586	0
6	1004	2114.176411138331	4.631891519762
6	1007	2121.370922174609	0
6	1010	2121.865282291356	0
6	1013	2140.760935507749	0
6	1016	2148.408502014201	0
6	1019	2152.515698621875	1.630247259015
6	1022	2153.152701023359	0
6	1028	2156.826185249186	0
6	1031	2165.423725070158	6.538587798849
6	1036	2170.869340479915	3.504678641682
6	1037	2171.905978717398	4.260944521559
6	1043	2180.820140528645	0
6	1046	2190.617248134383	0
6	1052	2210.048173713707	1.417168315574
6	1055	2220.101615030741	6.774027890533
6	1058	2229.887447686045	0
6	1064	2260.949383513056	0
6	1067	2299.27861517504	0
6	1073	2325.819276184382	0
6	1079	2354.169776292782	0
6	1082	2363.140470416597	0
6	1088	2372.742441384221	0
6	1091	2377.735982556381	1.378959309232
6	1094	2387.929246926715	0
6	1097	2395.48277681571	7.114154050807
6	1100	2399.324458944691	0
6	1103	2416.76104363929	0
6	1106	2420.683923370384	0
6	1112	2433.483901769592	0
6	1115	2438.795559827259	2.731438199973
6	1118	2449.110225251561	0
6	1124	2452.839439866003	0
6	1130	2485.429838161415	0
7	146	355.05946736505	4
7	156	370.780850023652	2
7	161	386.01824043156	1
7	164	397.684376195028	1
7	167	407.278190585379	1
7	169	407.91544005567	2
7	172	417.79778371846	2
7	176	419.657785982005	1
7	180	424.276063284641	2
7	185	445.699346670034	1
7	188	447.543103794211	1
7	191	460.516704985146	1
7	197	474.19422053615	1
7	200	481.095683169202	1
7	203	486.127831312219	1
7	208	490.485140357307	1
7	212	501.288951545055	1
7	217	505.002956299096	1
7	222	508.839663443019	2
7	227	513.738271046524	3
7	229	514.458292495847	4
7	235	525.229499277953	5
7	237	525.730885217399	6
7	245	537.391873471516	7
7	253	543.219500807899	8
7	257	548.535664666951	9
7	263	560.623706455632	7
7	266	568.939460714816	7
7	275	584.468749162211	4
7	279	599.791279867924	3
7	283	602.50064407349	4
7	286	605.718975695784	5
7	290	616.248476632966	4
7	293	619.18447714698	4
7	305	639.624648878793	1
7	307	641.806301898067	2
7	309	644.169706261645	3
7	319	658.230766056464	1
7	322	659.622136286692	2
7	325	665.804613480816	2
7	329	682.178400840308	1
7	332	700.87674194091	1
7	334	701.285677243009	2
7	338	717.967404583469	1
7	341	722.446726874082	1
7	347	739.610347347772	1
7	349	750.885863105092	2
7	355	769.247020053464	1
7	359	786.806884617963	1
7	362	796.034432044079	1
7	365	801.770196139294	1
7	367	802.643361737249	2
7	369	803.466342464771	3
7	374	821.989938605393	1
7	377	822.971999659924	1
7	379	825.692127493628	2
7	388	837.481048809211	1
7	390	837.528711359265	2
7	394	853.367451096851	3
7	396	864.80791871467	4
7	402	868.699468202168	5
7	410	892.215476562267	1
7	413	896.95419122637	1
7	419	908.783784786466	1
7	422	921.983408396422	1
7	424	923.077491675642	2
7	427	926.313872219769	2
7	429	928.366526091904	3
7	434	931.138786419577	1
7	443	951.775819964726	1
7	446	954.938401825785	1
7	449	960.15791517345	1
7	451	961.941637758824	2
7	458	973.955373969978	1
7	460	974.438970779056	2
7	462	976.208487875792	3
7	472	994.275476802733	1
7	476	998.967850855492	1
7	482	1021.422423220967	1
7	485	1025.61861987627	1
7	489	1034.732109192486	2
7	491	1038.782605635946	3
7	493	1043.159900290471	4
7	497	1064.460086608793	4
7	499	1065.265403748812	5
7	506	1093.886914810011	1
7	508	1095.796884728062	2
7	511	1100.441881947243	2
7	513	1102.411024622887	3
7	518	1110.248847979331	3
7	521	1115.662036455481	4
7	526	1127.991864436109	2
7	532	1150.403494908239	1
7	535	1157.698185414769	2
7	537	1160.726672716901	3
7	542	1179.987550244786	1
7	545	1190.406193379886	1
7	548	1192.060187505366	1
7	561	1214.542207979603	1
7	564	1230.587609546064	2
7	568	1239.074375508244	3
7	577	1257.072305290322	2
7	580	1258.154433461831	2
7	582	1258.463916101759	3
7	586	1268.084140595639	4
7	588	1269.559912571375	5
7	593	1279.343956200392	4
7	595	1281.438934440836	5
7	605	1293.39115214529	3
7	607	1294.09831111435	4
7	620	1306.377084729727	5
7	622	1308.790255576544	6
7	624	1312.306243155178	7
7	631	1325.552127347144	8
7	633	1329.476278199886	9
7	635	1331.977731951153	10
7	637	1335.18914020612	11
7	644	1345.473493177319	12
7	649	1353.837422051082	11
7	652	1355.903882210185	11
7	654	1356.72186603143	12
7	657	1361.4761275669	12
7	660	1367.411236736202	12
7	673	1399.696189430956	5
7	679	1417.078528100198	5
7	682	1420.290782061921	5
7	691	1438.259455455825	3
7	693	1444.792201787484	4
7	695	1449.871614903672	5
7	704	1460.060926220485	5
7	709	1464.592283923065	6
7	712	1476.202711998038	7
7	716	1478.069516448218	8
7	721	1485.640289736562	9
7	723	1487.04370975529	10
7	733	1512.283199849435	8
7	737	1514.492181875754	9
7	742	1525.749158143837	8
7	749	1532.577202008577	7
7	752	1538.005236612714	7
7	756	1551.435827516609	6
7	762	1561.172855466474	3
7	764	1562.687982903677	4
7	768	1576.644626109085	3
7	770	1577.971520441329	4
7	772	1578.224976662378	5
7	774	1580.245655261544	6
7	777	1584.930820075336	6
7	785	1598.806839497624	1
7	788	1609.425566048026	1
7	791	1624.066798678646	1
7	795	1627.508938156312	2
7	800	1644.804533826314	1
7	809	1656.941765470321	1
7	814	1667.440571028196	1
7	828	1696.918963719115	2
7	837	1719.112607261954	3
7	842	1730.314919826024	1
7	845	1747.308895643383	1
7	847	1748.047353153453	2
7	852	1758.501417219979	3
7	854	1759.620362943869	4
7	856	1761.129210365635	5
7	859	1763.813737269511	5
7	862	1770.185782847709	5
7	864	1778.687776808715	6
7	868	1781.263490443706	7
7	871	1783.647511303199	8
7	879	1791.920343721064	3
7	886	1809.927053426328	2
7	890	1824.121326190655	1
7	896	1828.799173711548	1
7	902	1836.776512552437	1
7	907	1863.001971466587	1
7	911	1877.221133022566	1
7	917	1886.960024108163	1
7	920	1894.963428843149	1
7	923	1898.466332015644	1
7	926	1905.001104474535	1
7	929	1918.282732109325	1
7	932	1930.581653249306	1
7	935	1935.826789934323	1
7	937	1942.879357732617	2
7	941	1951.691519557266	1
7	943	1951.845844740435	2
7	946	1955.941756291918	2
7	953	1981.415149903608	1
7	956	1991.932271441198	1
7	965	2036.820239663622	1
7	970	2055.395634036457	1
7	974	2066.336908056797	1
7	977	2068.572735745909	1
7	980	2073.629401755589	1
7	986	2090.373689927269	1
7	989	2091.510531786147	1
7	992	2094.509784816636	1
7	998	2103.10888607586	1
7	1003	2109.544519618569	1
7	1007	2121.370922174609	1
7	1010	2121.865282291356	1
7	1013	2140.760935507749	1
7	1016	2148.408502014201	1
7	1018	2150.88545136286	2
7	1022	2153.152701023359	1
7	1028	2156.826185249186	1
7	1030	2158.885137271309	2
7	1035	2167.645034195839	2
7	1043	2180.820140528645	1
7	1046	2190.617248134383	1
7	1051	2208.631005398133	1
7	1054	2213.327587140208	2
7	1058	2229.887447686045	1
7	1064	2260.949383513056	1
7	1067	2299.27861517504	1
7	1073	2325.819276184382	1
7	1079	2354.169776292782	1
7	1082	2363.140470416597	1
7	1088	2372.742441384221	1
7	1090	2376.357023247149	2
7	1094	2387.929246926715	1
7	1096	2388.368622764903	2
7	1100	2399.324458944691	1
7	1103	2416.76104363929	1
7	1106	2420.683923370384	1
7	1112	2433.483901769592	1
7	1114	2436.064121627286	2
7	1118	2449.110225251561	1
7	1124	2452.839439866003	1
7	1130	2485.429838161415	1
8	146	355.05946736505	3
8	147	358.554029058654	3
8	148	359.001496218728	2
8	152	360.788449633815	1
8	156	370.780850023652	1
8	158	376.5104433664	1
8	159	378.860242265737	0
8	161	386.01824043156	0
8	162	394.379109074661	0
8	164	397.684376195028	0
8	165	398.70011346942	0
8	167	407.278190585379	0
8	169	407.91544005567	1
8	170	417.33514203939	1
8	172	417.79778371846	1
8	173	418.107060154421	1
8	174	418.550665289605	0
8	176	419.657785982005	0
8	180	424.276063284641	1
8	182	429.746663230826	1
8	183	443.864756995248	0
8	185	445.699346670034	0
8	186	446.202871705947	0
8	188	447.543103794211	0
8	189	447.720698001759	0
8	191	460.516704985146	0
8	192	461.673993371675	0
8	197	474.19422053615	0
8	198	474.332767896339	0
8	200	481.095683169202	0
8	201	482.994427446966	0
8	203	486.127831312219	0
8	204	489.169947028666	0
8	208	490.485140357307	0
8	210	498.374530905982	0
8	212	501.288951545055	0
8	213	501.400305398207	0
8	217	505.002956299096	0
8	222	508.839663443019	1
8	227	513.738271046524	2
8	229	514.458292495847	3
8	235	525.229499277953	4
8	237	525.730885217399	5
8	245	537.391873471516	6
8	253	543.219500807899	7
8	257	548.535664666951	8
8	259	554.243104406213	8
8	260	555.8900252176	7
8	261	560.164544574793	6
8	263	560.623706455632	6
8	264	561.023936571276	6
8	266	568.939460714816	6
8	267	572.276902389338	6
8	268	573.528519099721	5
8	269	575.296911555269	4
8	273	578.819791082859	3
8	275	584.468749162211	3
8	276	590.582159281996	3
8	277	593.598169597121	2
8	279	599.791279867924	2
8	283	602.50064407349	3
8	286	605.718975695784	4
8	287	609.778042445379	4
8	288	611.600582678908	3
8	290	616.248476632966	3
8	291	617.506448756584	3
8	293	619.18447714698	3
8	300	627.919207737285	3
8	301	628.14731580274	2
8	302	629.389572688984	1
8	303	630.588081479021	0
8	305	639.624648878793	0
8	307	641.806301898067	1
8	309	644.169706261645	2
8	310	644.298567771073	2
8	311	644.52619594412	1
8	315	653.324668101889	0
8	319	658.230766056464	0
8	322	659.622136286692	1
8	323	662.920760747571	1
8	325	665.804613480816	1
8	326	666.613779165883	1
8	327	670.516006434773	0
8	329	682.178400840308	0
8	330	682.696294593131	0
8	332	700.87674194091	0
8	334	701.285677243009	1
8	335	708.83013215548	1
8	336	709.787585814997	0
8	338	717.967404583469	0
8	339	719.120190243089	0
8	341	722.446726874082	0
8	342	725.279267191774	0
8	347	739.610347347772	0
8	349	750.885863105092	1
8	350	755.005482470375	1
8	351	757.595106022167	0
8	355	769.247020053464	0
8	357	776.54804426145	0
8	359	786.806884617963	0
8	360	787.146555676206	0
8	362	796.034432044079	0
8	363	799.101598792699	0
8	365	801.770196139294	0
8	367	802.643361737249	1
8	369	803.466342464771	2
8	370	803.536685281458	2
8	371	804.25571213509	1
8	372	809.540677300922	0
8	374	821.989938605393	0
8	375	822.215515923203	0
8	377	822.971999659924	0
8	379	825.692127493628	1
8	380	828.226301400428	1
8	381	828.805384956056	0
8	388	837.481048809211	0
8	390	837.528711359265	1
8	394	853.367451096851	2
8	396	864.80791871467	3
8	402	868.699468202168	4
8	404	869.778262414352	4
8	405	873.626610410965	3
8	406	873.798695392515	2
8	407	874.845394316107	1
8	408	876.381314476549	0
8	410	892.215476562267	0
8	411	896.657543502013	0
8	413	896.95419122637	0
8	417	908.649581011302	0
8	419	908.783784786466	0
8	420	920.404528673543	0
8	422	921.983408396422	0
8	424	923.077491675642	1
8	425	925.728148657046	1
8	427	926.313872219769	1
8	429	928.366526091904	2
8	430	928.695999543868	2
8	431	929.017190642977	1
8	432	929.487800816268	0
8	434	931.138786419577	0
8	438	933.621207690466	0
8	443	951.775819964726	0
8	444	951.809865963988	0
8	446	954.938401825785	0
8	447	958.469937869985	0
8	449	960.15791517345	0
8	451	961.941637758824	1
8	452	969.13688546114	1
8	456	972.974812850111	0
8	458	973.955373969978	0
8	460	974.438970779056	1
8	462	976.208487875792	2
8	463	977.458439330486	2
8	464	981.485912405916	1
8	465	982.758242684162	0
8	472	994.275476802733	0
8	474	998.510238604168	0
8	476	998.967850855492	0
8	477	1002.834659672435	0
8	482	1021.422423220967	0
8	483	1024.949241974437	0
8	485	1025.61861987627	0
8	489	1034.732109192486	1
8	491	1038.782605635946	2
8	493	1043.159900290471	3
8	495	1052.672058292042	3
8	497	1064.460086608793	3
8	499	1065.265403748812	4
8	500	1065.966921853281	4
8	501	1070.395744762906	3
8	502	1070.418029716279	2
8	503	1074.872247852196	1
8	504	1079.537494947983	0
8	506	1093.886914810011	0
8	508	1095.796884728062	1
8	509	1100.077345426345	1
8	511	1100.441881947243	1
8	513	1102.411024622887	2
8	514	1109.207168548346	2
8	518	1110.248847979331	2
8	521	1115.662036455481	3
8	522	1119.574452560956	3
8	523	1125.405903825868	2
8	524	1125.567071181187	1
8	526	1127.991864436109	1
8	527	1129.936669398917	1
8	528	1130.251103104981	0
8	532	1150.403494908239	0
8	535	1157.698185414769	1
8	537	1160.726672716901	2
8	538	1163.60843996192	2
8	539	1172.301125709095	1
8	540	1173.007064962412	0
8	542	1179.987550244786	0
8	543	1187.682095756969	0
8	545	1190.406193379886	0
8	546	1191.582106160441	0
8	548	1192.060187505366	0
8	549	1196.205101717206	0
8	561	1214.542207979603	0
8	564	1230.587609546064	1
8	568	1239.074375508244	2
8	574	1246.188061313951	2
8	575	1246.873139750788	1
8	577	1257.072305290322	1
8	578	1257.391410668432	1
8	580	1258.154433461831	1
8	582	1258.463916101759	2
8	586	1268.084140595639	3
8	588	1269.559912571375	4
8	590	1276.511672846778	4
8	591	1278.126933490532	3
8	593	1279.343956200392	3
8	595	1281.438934440836	4
8	596	1281.496536768772	4
8	600	1284.22757496328	3
8	601	1288.705672709016	2
8	605	1293.39115214529	2
8	607	1294.09831111435	3
8	620	1306.377084729727	4
8	622	1308.790255576544	5
8	624	1312.306243155178	6
8	631	1325.552127347144	7
8	633	1329.476278199886	8
8	635	1331.977731951153	9
8	637	1335.18914020612	10
8	644	1345.473493177319	11
8	646	1346.47369404307	11
8	647	1353.316467102818	10
8	649	1353.837422051082	10
8	650	1354.844658410213	10
8	652	1355.903882210185	10
8	654	1356.72186603143	11
8	655	1357.490061688794	11
8	657	1361.4761275669	11
8	658	1363.732289904522	11
8	660	1367.411236736202	11
8	661	1373.729817386264	11
8	662	1379.179097060239	10
8	663	1380.167893358298	9
8	664	1380.799109303823	8
8	665	1381.455636440504	7
8	669	1391.665551037002	6
8	670	1393.939156246078	5
8	671	1394.879267783486	4
8	673	1399.696189430956	4
8	674	1403.40009555853	4
8	679	1417.078528100198	4
8	680	1417.59398546528	4
8	682	1420.290782061921	4
8	683	1420.38929188747	4
8	684	1424.196032707585	3
8	685	1425.847019472466	2
8	691	1438.259455455825	2
8	693	1444.792201787484	3
8	695	1449.871614903672	4
8	698	1451.888247952319	4
8	704	1460.060926220485	4
8	709	1464.592283923065	5
8	712	1476.202711998038	6
8	716	1478.069516448218	7
8	721	1485.640289736562	8
8	723	1487.04370975529	9
8	729	1505.650191102689	9
8	730	1509.908703526664	8
8	731	1511.663891781078	7
8	733	1512.283199849435	7
8	737	1514.492181875754	8
8	739	1519.146202379976	8
8	740	1522.199921643244	7
8	742	1525.749158143837	7
8	743	1530.10189924104	7
8	747	1530.979587904329	6
8	749	1532.577202008577	6
8	750	1533.06215806579	6
8	752	1538.005236612714	6
8	753	1541.099188851078	6
8	754	1551.2289432302	5
8	756	1551.435827516609	5
8	757	1555.035689779274	5
8	758	1555.158765968241	4
8	759	1556.151453014952	3
8	760	1557.444188930808	2
8	762	1561.172855466474	2
8	764	1562.687982903677	3
8	765	1563.316586143813	3
8	766	1566.731407953022	2
8	768	1576.644626109085	2
8	770	1577.971520441329	3
8	772	1578.224976662378	4
8	774	1580.245655261544	5
8	775	1581.594321129433	5
8	777	1584.930820075336	5
8	778	1591.359688613007	5
8	779	1592.354791158136	4
8	780	1594.307711619556	3
8	781	1594.485013674907	2
8	782	1594.595093407062	1
8	783	1597.457317722643	0
8	785	1598.806839497624	0
8	786	1600.890726809814	0
8	788	1609.425566048026	0
8	789	1614.994269858117	0
8	791	1624.066798678646	0
8	795	1627.508938156312	1
8	797	1634.165898961239	1
8	798	1636.298796449111	0
8	800	1644.804533826314	0
8	801	1647.296975018034	0
8	809	1656.941765470321	0
8	810	1658.908813985332	0
8	814	1667.440571028196	0
8	828	1696.918963719115	1
8	837	1719.112607261954	2
8	838	1719.534610593353	2
8	839	1721.133175818455	1
8	840	1724.086218479785	0
8	842	1730.314919826024	0
8	843	1737.538844354567	0
8	845	1747.308895643383	0
8	847	1748.047353153453	1
8	852	1758.501417219979	2
8	854	1759.620362943869	3
8	856	1761.129210365635	4
8	857	1761.783503403341	4
8	859	1763.813737269511	4
8	860	1763.911972940608	4
8	862	1770.185782847709	4
8	864	1778.687776808715	5
8	868	1781.263490443706	6
8	871	1783.647511303199	7
8	872	1784.429135064138	7
8	873	1785.375935274073	6
8	874	1788.549536859582	5
8	875	1789.417652608385	4
8	876	1790.303668644315	3
8	877	1791.525821819472	2
8	879	1791.920343721064	2
8	883	1806.472920452118	2
8	884	1808.713270642781	1
8	886	1809.927053426328	1
8	887	1812.528187808082	1
8	888	1813.452966307554	0
8	890	1824.121326190655	0
8	891	1824.123706163231	0
8	896	1828.799173711548	0
8	900	1835.954224778766	0
8	902	1836.776512552437	0
8	903	1842.014797874334	0
8	907	1863.001971466587	0
8	909	1866.919993638294	0
8	911	1877.221133022566	0
8	912	1879.815713144065	0
8	917	1886.960024108163	0
8	918	1889.802351128602	0
8	920	1894.963428843149	0
8	921	1895.361311697404	0
8	923	1898.466332015644	0
8	924	1901.720098101217	0
8	926	1905.001104474535	0
8	927	1906.010113539217	0
8	929	1918.282732109325	0
8	930	1918.846049506336	0
8	932	1930.581653249306	0
8	933	1932.108178308173	0
8	935	1935.826789934323	0
8	937	1942.879357732617	1
8	938	1944.662960868503	1
8	939	1945.422095534201	0
8	941	1951.691519557266	0
8	943	1951.845844740435	1
8	944	1953.010574054041	1
8	946	1955.941756291918	1
8	947	1956.858309994716	1
8	948	1961.133619419136	0
8	953	1981.415149903608	0
8	954	1983.747115762954	0
8	956	1991.932271441198	0
8	957	1994.008556310054	0
8	965	2036.820239663622	0
8	966	2037.722417160013	0
8	970	2055.395634036457	0
8	972	2062.756638024961	0
8	974	2066.336908056797	0
8	975	2066.914590343206	0
8	977	2068.572735745909	0
8	978	2071.69877458543	0
8	980	2073.629401755589	0
8	981	2074.389507067414	0
8	986	2090.373689927269	0
8	987	2091.179626133296	0
8	989	2091.510531786147	0
8	990	2093.292097980869	0
8	992	2094.509784816636	0
8	993	2094.786856793216	0
8	998	2103.10888607586	0
8	999	2103.267781337466	0
8	1003	2109.544519618569	0
8	1005	2119.247676065246	0
8	1007	2121.370922174609	0
8	1008	2121.70361987007	0
8	1010	2121.865282291356	0
8	1011	2125.788338799852	0
8	1013	2140.760935507749	0
8	1014	2144.496529227228	0
8	1016	2148.408502014201	0
8	1018	2150.88545136286	1
8	1019	2152.515698621875	1
8	1020	2152.81082410679	0
8	1022	2153.152701023359	0
8	1023	2153.804752822703	0
8	1028	2156.826185249186	0
8	1030	2158.885137271309	1
8	1031	2165.423725070158	1
8	1035	2167.645034195839	1
8	1037	2171.905978717398	1
8	1038	2173.263250805366	0
8	1043	2180.820140528645	0
8	1044	2183.191742252308	0
8	1046	2190.617248134383	0
8	1047	2191.687812903817	0
8	1051	2208.631005398133	0
8	1054	2213.327587140208	1
8	1055	2220.101615030741	1
8	1056	2221.798792119186	0
8	1058	2229.887447686045	0
8	1059	2239.740086516598	0
8	1064	2260.949383513056	0
8	1065	2260.983089595417	0
8	1067	2299.27861517504	0
8	1068	2300.517282839332	0
8	1073	2325.819276184382	0
8	1074	2329.525416195724	0
8	1079	2354.169776292782	0
8	1080	2354.396015027359	0
8	1082	2363.140470416597	0
8	1083	2368.089031847606	0
8	1088	2372.742441384221	0
8	1090	2376.357023247149	1
8	1091	2377.735982556381	1
8	1092	2378.980895872288	0
8	1094	2387.929246926715	0
8	1096	2388.368622764903	1
8	1097	2395.48277681571	1
8	1098	2396.45305297355	0
8	1100	2399.324458944691	0
8	1101	2400.795904980784	0
8	1103	2416.76104363929	0
8	1104	2417.034158885104	0
8	1106	2420.683923370384	0
8	1107	2424.497259350282	0
8	1112	2433.483901769592	0
8	1114	2436.064121627286	1
8	1115	2438.795559827259	1
8	1116	2447.249082013595	0
8	1118	2449.110225251561	0
8	1119	2449.292578768471	0
8	1124	2452.839439866003	0
8	1125	2456.404071396204	0
8	1130	2485.429838161415	0
8	1131	2487.407046783045	0
9	147	358.554029058654	30
9	148	359.001496218728	31
9	152	360.788449633815	32
9	158	376.5104433664	33
9	159	378.860242265737	34
9	162	394.379109074661	35
9	165	398.70011346942	36
9	170	417.33514203939	37
9	173	418.107060154421	38
9	174	418.550665289605	39
9	182	429.746663230826	40
9	183	443.864756995248	41
9	186	446.202871705947	42
9	189	447.720698001759	43
9	192	461.673993371675	44
9	198	474.332767896339	45
9	201	482.994427446966	46
9	204	489.169947028666	47
9	210	498.374530905982	48
9	213	501.400305398207	49
9	259	554.243104406213	50
9	260	555.8900252176	51
9	261	560.164544574793	52
9	264	561.023936571276	53
9	267	572.276902389338	54
9	268	573.528519099721	55
9	269	575.296911555269	56
9	273	578.819791082859	57
9	276	590.582159281996	58
9	277	593.598169597121	59
9	287	609.778042445379	60
9	288	611.600582678908	61
9	291	617.506448756584	62
9	300	627.919207737285	63
9	301	628.14731580274	64
9	302	629.389572688984	65
9	303	630.588081479021	66
9	310	644.298567771073	67
9	311	644.52619594412	68
9	315	653.324668101889	69
9	323	662.920760747571	70
9	326	666.613779165883	71
9	327	670.516006434773	72
9	330	682.696294593131	73
9	335	708.83013215548	74
9	336	709.787585814997	75
9	339	719.120190243089	76
9	342	725.279267191774	77
9	350	755.005482470375	78
9	351	757.595106022167	79
9	357	776.54804426145	80
9	360	787.146555676206	81
9	363	799.101598792699	82
9	370	803.536685281458	83
9	371	804.25571213509	84
9	372	809.540677300922	85
9	375	822.215515923203	86
9	380	828.226301400428	87
9	381	828.805384956056	88
9	404	869.778262414352	89
9	405	873.626610410965	90
9	406	873.798695392515	91
9	407	874.845394316107	92
9	408	876.381314476549	93
9	411	896.657543502013	94
9	417	908.649581011302	95
9	420	920.404528673543	96
9	425	925.728148657046	97
9	430	928.695999543868	98
9	431	929.017190642977	99
9	432	929.487800816268	100
9	438	933.621207690466	101
9	444	951.809865963988	102
9	447	958.469937869985	103
9	452	969.13688546114	104
9	456	972.974812850111	105
9	463	977.458439330486	106
9	464	981.485912405916	107
9	465	982.758242684162	108
9	474	998.510238604168	109
9	477	1002.834659672435	110
9	483	1024.949241974437	111
9	495	1052.672058292042	112
9	500	1065.966921853281	113
9	501	1070.395744762906	114
9	502	1070.418029716279	115
9	503	1074.872247852196	116
9	504	1079.537494947983	117
9	509	1100.077345426345	118
9	514	1109.207168548346	119
9	522	1119.574452560956	120
9	523	1125.405903825868	121
9	524	1125.567071181187	122
9	527	1129.936669398917	123
9	528	1130.251103104981	124
9	538	1163.60843996192	125
9	539	1172.301125709095	126
9	540	1173.007064962412	127
9	543	1187.682095756969	128
9	546	1191.582106160441	129
9	549	1196.205101717206	130
9	574	1246.188061313951	131
9	575	1246.873139750788	132
9	578	1257.391410668432	133
9	590	1276.511672846778	134
9	591	1278.126933490532	135
9	596	1281.496536768772	136
9	600	1284.22757496328	137
9	601	1288.705672709016	138
9	646	1346.47369404307	139
9	647	1353.316467102818	140
9	650	1354.844658410213	141
9	655	1357.490061688794	142
9	658	1363.732289904522	143
9	661	1373.729817386264	144
9	662	1379.179097060239	145
9	663	1380.167893358298	146
9	664	1380.799109303823	147
9	665	1381.455636440504	148
9	669	1391.665551037002	149
9	670	1393.939156246078	150
9	671	1394.879267783486	151
9	674	1403.40009555853	152
9	680	1417.59398546528	153
9	683	1420.38929188747	154
9	684	1424.196032707585	155
9	685	1425.847019472466	156
9	698	1451.888247952319	157
9	729	1505.650191102689	158
9	730	1509.908703526664	159
9	731	1511.663891781078	160
9	739	1519.146202379976	161
9	740	1522.199921643244	162
9	743	1530.10189924104	163
9	747	1530.979587904329	164
9	750	1533.06215806579	165
9	753	1541.099188851078	166
9	754	1551.2289432302	167
9	757	1555.035689779274	168
9	758	1555.158765968241	169
9	759	1556.151453014952	170
9	760	1557.444188930808	171
9	765	1563.316586143813	172
9	766	1566.731407953022	173
9	775	1581.594321129433	174
9	778	1591.359688613007	175
9	779	1592.354791158136	176
9	780	1594.307711619556	177
9	781	1594.485013674907	178
9	782	1594.595093407062	179
9	783	1597.457317722643	180
9	786	1600.890726809814	181
9	789	1614.994269858117	182
9	797	1634.165898961239	183
9	798	1636.298796449111	184
9	801	1647.296975018034	185
9	810	1658.908813985332	186
9	838	1719.534610593353	187
9	839	1721.133175818455	188
9	840	1724.086218479785	189
9	843	1737.538844354567	190
9	857	1761.783503403341	191
9	860	1763.911972940608	192
9	872	1784.429135064138	193
9	873	1785.375935274073	194
9	874	1788.549536859582	195
9	875	1789.417652608385	196
9	876	1790.303668644315	197
9	877	1791.525821819472	198
9	883	1806.472920452118	199
9	884	1808.713270642781	200
9	887	1812.528187808082	201
9	888	1813.452966307554	202
9	891	1824.123706163231	203
9	900	1835.954224778766	204
9	903	1842.014797874334	205
9	909	1866.919993638294	206
9	912	1879.815713144065	207
9	918	1889.802351128602	208
9	921	1895.361311697404	209
9	924	1901.720098101217	210
9	927	1906.010113539217	211
9	930	1918.846049506336	212
9	933	1932.108178308173	213
9	938	1944.662960868503	214
9	939	1945.422095534201	215
9	944	1953.010574054041	216
9	947	1956.858309994716	217
9	948	1961.133619419136	218
9	954	1983.747115762954	219
9	957	1994.008556310054	220
9	966	2037.722417160013	221
9	972	2062.756638024961	222
9	975	2066.914590343206	223
9	978	2071.69877458543	224
9	981	2074.389507067414	225
9	987	2091.179626133296	226
9	990	2093.292097980869	227
9	993	2094.786856793216	228
9	999	2103.267781337466	229
9	1005	2119.247676065246	230
9	1008	2121.70361987007	231
9	1011	2125.788338799852	232
9	1014	2144.496529227228	233
9	1019	2152.515698621875	234
9	1020	2152.81082410679	235
9	1023	2153.804752822703	236
9	1031	2165.423725070158	237
9	1037	2171.905978717398	238
9	1038	2173.263250805366	239
9	1044	2183.191742252308	240
9	1047	2191.687812903817	241
9	1055	2220.101615030741	242
9	1056	2221.798792119186	243
9	1059	2239.740086516598	244
9	1065	2260.983089595417	245
9	1068	2300.517282839332	246
9	1074	2329.525416195724	247
9	1080	2354.396015027359	248
9	1083	2368.089031847606	249
9	1091	2377.735982556381	250
9	1092	2378.980895872288	251
9	1097	2395.48277681571	252
9	1098	2396.45305297355	253
9	1101	2400.795904980784	254
9	1104	2417.034158885104	255
9	1107	2424.497259350282	256
9	1115	2438.795559827259	257
9	1116	2447.249082013595	258
9	1119	2449.292578768471	259
9	1125	2456.404071396204	260
9	1131	2487.407046783045	261
10	147	358.554029058654	14.688982205323
10	148	359.001496218728	12.707040245562
10	152	360.788449633815	5.728982268765
10	158	376.5104433664	14.820772810477
10	159	378.860242265737	8.079392242085
10	162	394.379109074661	8.360868643101
10	165	398.70011346942	1.015737274392
10	170	417.33514203939	10.056951454011
10	173	418.107060154421	10.191620098751
10	174	418.550665289605	0.752881571145
10	182	429.746663230826	6.23644262524
10	183	443.864756995248	19.588693710607
10	186	446.202871705947	0.503525035913
10	189	447.720698001759	0.177594207548
10	192	461.673993371675	1.157288386529
10	198	474.332767896339	0.138547360189
10	201	482.994427446966	1.898744277764
10	204	489.169947028666	3.042115716447
10	210	498.374530905982	7.889390548675
10	213	501.400305398207	0.111353853152
10	259	554.243104406213	49.240148107117
10	260	555.8900252176	47.050361774581
10	261	560.164544574793	46.426273528269
10	264	561.023936571276	46.565644075429
10	267	572.276902389338	47.047403111385
10	268	573.528519099721	47.797633882322
10	269	575.296911555269	37.905038083753
10	273	578.819791082859	30.284126415908
10	276	590.582159281996	29.958452826364
10	277	593.598169597121	24.658708882305
10	287	609.778042445379	25.309293283168
10	288	611.600582678908	11.809302810984
10	291	617.506448756584	15.859464957743
10	300	627.919207737285	22.200232041501
10	301	628.14731580274	11.898839169774
10	302	629.389572688984	10.205095542004
10	303	630.588081479021	10.020688141221
10	310	644.298567771073	4.67391889228
10	311	644.52619594412	2.719894046053
10	315	653.324668101889	6.972624706529
10	323	662.920760747571	4.689994691107
10	326	666.613779165883	6.991642879191
10	327	670.516006434773	4.711392953957
10	330	682.696294593131	0.517893752823
10	335	708.83013215548	7.95339021457
10	336	709.787585814997	8.501908571988
10	339	719.120190243089	1.15278565962
10	342	725.279267191774	2.832540317692
10	350	755.005482470375	15.395135122603
10	351	757.595106022167	6.709242917075
10	357	776.54804426145	7.301024207986
10	360	787.146555676206	0.339671058243
10	363	799.101598792699	3.06716674862
10	370	803.536685281458	1.766489142164
10	371	804.25571213509	1.612350397841
10	372	809.540677300922	6.074334836151
10	375	822.215515923203	0.22557731781
10	380	828.226301400428	5.254301740504
10	381	828.805384956056	3.113257462428
10	404	869.778262414352	32.297213605141
10	405	873.626610410965	36.0978990517
10	406	873.798695392515	20.431244295664
10	407	874.845394316107	10.037475601437
10	408	876.381314476549	7.681846274381
10	411	896.657543502013	4.442066939746
10	417	908.649581011302	7.42609665184
10	420	920.404528673543	11.620743887077
10	425	925.728148657046	3.744740260624
10	430	928.695999543868	5.618507868226
10	431	929.017190642977	2.703318423208
10	432	929.487800816268	1.121274724364
10	438	933.621207690466	1.436885391753
10	444	951.809865963988	0.034045999262
10	447	958.469937869985	3.5315360442
10	452	969.13688546114	8.97897028769
10	456	972.974812850111	1.632163073399
10	463	977.458439330486	3.503065360508
10	464	981.485912405916	7.04694162686
10	465	982.758242684162	6.54975480837
10	474	998.510238604168	4.234761801435
10	477	1002.834659672435	3.866808816943
10	483	1024.949241974437	3.52681875347
10	495	1052.672058292042	26.860916497272
10	500	1065.966921853281	31.234812660795
10	501	1070.395744762906	31.61313912696
10	502	1070.418029716279	27.258129425808
10	503	1074.872247852196	10.412161243403
10	504	1079.537494947983	14.272091199171
10	509	1100.077345426345	6.190430616334
10	514	1109.207168548346	13.410283820284
10	522	1119.574452560956	17.163427938069
10	523	1125.405903825868	15.606931811101
10	524	1125.567071181187	15.318223201856
10	527	1129.936669398917	14.274632943436
10	528	1130.251103104981	2.259238668872
10	538	1163.60843996192	13.204945053681
10	539	1172.301125709095	14.602940294326
10	540	1173.007064962412	12.280392245511
10	543	1187.682095756969	7.694545512183
10	546	1191.582106160441	1.175912780555
10	549	1196.205101717206	4.14491421184
10	574	1246.188061313951	31.645853334348
10	575	1246.873139750788	16.285530204724
10	578	1257.391410668432	18.317035160188
10	590	1276.511672846778	18.357239384947
10	591	1278.126933490532	19.663017388773
10	596	1281.496536768772	18.306740124801
10	600	1284.22757496328	14.667662391905
10	601	1288.705672709016	9.361716508624
10	646	1346.47369404307	64.960521823541
10	647	1353.316467102818	61.219854154212
10	650	1354.844658410213	61.453506264923
10	655	1357.490061688794	63.391750574444
10	658	1363.732289904522	57.355205174795
10	661	1373.729817386264	64.93956180972
10	662	1379.179097060239	66.872853905061
10	663	1380.167893358298	54.615766011154
10	664	1380.799109303823	51.322831103937
10	665	1381.455636440504	49.477904489351
10	669	1391.665551037002	46.192057859683
10	670	1393.939156246078	40.101734194996
10	671	1394.879267783486	38.975385573301
10	674	1403.40009555853	46.6782295271
10	680	1417.59398546528	50.182748729078
10	683	1420.38929188747	35.470610396415
10	684	1424.196032707585	24.499843276629
10	685	1425.847019472466	13.327055415941
10	698	1451.888247952319	31.597465890398
10	729	1505.650191102689	67.390735646864
10	730	1509.908703526664	65.11650173918
10	731	1511.663891781078	61.792276877406
10	739	1519.146202379976	59.085276159491
10	740	1522.199921643244	57.607637720179
10	743	1530.10189924104	53.899187243002
10	747	1530.979587904329	45.339298167767
10	750	1533.06215806579	46.0184483105
10	753	1541.099188851078	28.815989001643
10	754	1551.2289432302	38.160558732375
10	757	1555.035689779274	40.54350790352
10	758	1555.158765968241	29.409607824404
10	759	1556.151453014952	25.835121530345
10	760	1557.444188930808	24.866986922231
10	765	1563.316586143813	25.311349531099
10	766	1566.731407953022	15.295580436413
10	775	1581.594321129433	20.421465662959
10	778	1591.359688613007	28.67170570933
10	779	1592.354791158136	15.710165049051
10	780	1594.307711619556	16.336191178227
10	781	1594.485013674907	16.260037012529
10	782	1594.595093407062	14.349438145518
10	783	1597.457317722643	12.526497647307
10	786	1600.890726809814	2.08388731219
10	789	1614.994269858117	5.568703810091
10	797	1634.165898961239	7.890084642168
10	798	1636.298796449111	8.789858292799
10	801	1647.296975018034	2.49244119172
10	810	1658.908813985332	1.967048515011
10	838	1719.534610593353	17.833821943117
10	839	1721.133175818455	14.464991816547
10	840	1724.086218479785	4.973611217831
10	843	1737.538844354567	7.223924528543
10	857	1761.783503403341	13.736150249888
10	860	1763.911972940608	15.329946821153
10	872	1784.429135064138	24.808772120269
10	873	1785.375935274073	24.246724908438
10	874	1788.549536859582	24.735799590071
10	875	1789.417652608385	19.231869760676
10	876	1790.303668644315	11.6158918356
10	877	1791.525821819472	12.430487206063
10	883	1806.472920452118	22.825409148919
10	884	1808.713270642781	16.792926921717
10	887	1812.528187808082	11.264528759405
10	888	1813.452966307554	3.525912881226
10	891	1824.123706163231	0.002379972576
10	900	1835.954224778766	5.659264496687
10	903	1842.014797874334	5.238285321897
10	909	1866.919993638294	3.918022171707
10	912	1879.815713144065	2.594580121499
10	918	1889.802351128602	2.842327020439
10	921	1895.361311697404	0.397882854255
10	924	1901.720098101217	3.253766085573
10	927	1906.010113539217	1.009009064682
10	930	1918.846049506336	0.563317397011
10	933	1932.108178308173	1.526525058867
10	938	1944.662960868503	8.83617093418
10	939	1945.422095534201	2.542737801584
10	944	1953.010574054041	1.319054496775
10	947	1956.858309994716	5.012465254281
10	948	1961.133619419136	5.191863127218
10	954	1983.747115762954	2.331965859346
10	957	1994.008556310054	2.076284868856
10	966	2037.722417160013	0.902177496391
10	972	2062.756638024961	7.361003988504
10	975	2066.914590343206	0.577682286409
10	978	2071.69877458543	3.126038839521
10	981	2074.389507067414	0.760105311825
10	987	2091.179626133296	0.805936206027
10	990	2093.292097980869	1.781566194722
10	993	2094.786856793216	0.27707197658
10	999	2103.267781337466	0.158895261606
10	1005	2119.247676065246	9.703156446677
10	1008	2121.70361987007	0.332697695461
10	1011	2125.788338799852	3.923056508496
10	1014	2144.496529227228	3.735593719479
10	1019	2152.515698621875	4.107196607674
10	1020	2152.81082410679	1.92537274393
10	1023	2153.804752822703	0.652051799344
10	1031	2165.423725070158	8.597539820972
10	1037	2171.905978717398	4.541316879165
10	1038	2173.263250805366	5.618216609527
10	1044	2183.191742252308	2.371601723663
10	1047	2191.687812903817	1.070564769434
10	1055	2220.101615030741	11.470609632608
10	1056	2221.798792119186	8.471204978978
10	1059	2239.740086516598	9.852638830553
10	1065	2260.983089595417	0.033706082361
10	1068	2300.517282839332	1.238667664292
10	1074	2329.525416195724	3.706140011342
10	1080	2354.396015027359	0.226238734577
10	1083	2368.089031847606	4.948561431009
10	1091	2377.735982556381	4.99354117216
10	1092	2378.980895872288	2.623872625139
10	1097	2395.48277681571	7.553529888995
10	1098	2396.45305297355	8.084430208647
10	1101	2400.795904980784	1.471446036093
10	1104	2417.034158885104	0.273115245814
10	1107	2424.497259350282	3.813335979898
10	1115	2438.795559827259	5.311658057667
10	1116	2447.249082013595	11.184960386309
10	1119	2449.292578768471	0.18235351691
10	1125	2456.404071396204	3.564631530201
10	1131	2487.407046783045	1.97720862163
11	1138	2500	0.1044
12	1138	2500	0.0464

