file 61136 1678524320                                           
version 2
run experiments_medium_game_mode1-1492-20230311-09:45:20-16157
attr configname experiments_medium_game_mode1
attr datetime 20230311-09:45:20
attr experiment experiments_medium_game_mode1
attr inifile omnetpp.ini
attr iterationvars "$0=7, $1=7, $2=100"
attr iterationvarsf 7,7,100-
attr measurement "$0=7, $1=7, $2=100"
attr network Network
attr processid 16157
attr repetition 22
attr replication #22
attr resultdir results
attr runnumber 1492
attr seedset 22
param *.boss.arrival_mean 20
param *.boss.service_mean 7
param *.minion.arrival_mean 10
param *.minion.service_mean 7
param *.player.recover_rate_x 100
param **.minion.arrival_distribution 0
param **.minion.service_distribution 0
param **.boss.arrival_distribution 0
param **.boss.service_distribution 0

vector 0 Network.player boss_jobs_number_stat:vector ETV
attr source signal_boss_jobs_number
vector 1 Network.player boss_jobs_queue_number_stat:vector ETV
attr source signal_boss_jobs_queue_number
vector 2 Network.player minion_recovered_stat:vector ETV
attr source signal_minion_recovered
vector 3 Network.player boss_waiting_time_stat:vector ETV
attr source signal_boss_waiting_time
vector 4 Network.player minion_jobs_number_stat:vector ETV
attr source signal_minion_jobs_number
vector 5 Network.player minion_jobs_queue_number_stat:vector ETV
attr source signal_minion_jobs_queue_number
vector 6 Network.player boss_defeated_stat:vector ETV
attr source signal_boss_defeated
vector 7 Network.player boss_response_time_stat:vector ETV
attr source signal_boss_response_time
vector 8 Network.player minion_waiting_time_stat:vector ETV
attr source signal_minion_waiting_time
vector 9 Network.player minion_defeated_stat:vector ETV
attr source signal_minion_defeated
vector 10 Network.player minion_response_time_stat:vector ETV
attr source signal_minion_response_time
vector 11 Network.player minion_throughput:vector ETV
attr source signal_minion_throughput
vector 12 Network.player boss_throughput:vector ETV
attr source signal_boss_throughput
0	2021 2451 145 1052 352.732720250375 2486.924382343612 96 1 3 121 177
1	4472 4906 145 1053 352.732720250375 2489.764103609395 192 0 2 50 62
2	9378 1962 145 1052 352.732720250375 2486.924382343612 74 9 82 3367 186961
3	11340 2741 145 1052 352.732720250375 2486.924382343612 96 0 16.915072589512 167.91313298891 1785.6186088551
4	14081 5697 149 1055 357.110273761727 2491.824172234539 214 5 30 3779 72233
5	19778 10933 149 1056 357.110273761727 2496.745741628427 411 4 29 6926 126922
6	30711 2566 150 1053 359.643498698874 2489.764103609395 96 19 114 6384 498256
7	33277 3715 150 1053 359.643498698874 2489.764103609395 96 0.057356254122 34.053337139914 765.96774915306 11083.930651652
8	36992 10722 155 1056 363.156496845114 2496.745741628427 271 28.774512647133 216.10550199738 35256.035118052 5108009.9130465
9	47714 5385 176 1056 408.511965948422 2496.745741628427 197 28 224 24822 3764670
10	53099 7996 176 1056 408.511965948422 2496.745741628427 197 30.69480859295 228.45654006051 27133.611315418 4081606.8395991
11	61095 20 1057 1057 2500 2500 1 0.0896 0.0896 0.0896 0.00802816
12	61115 20 1057 1057 2500 2500 1 0.0456 0.0456 0.0456 0.00207936

