version 2
run experiments_medium_game_mode1-145-20230311-09:40:27-9395
attr configname experiments_medium_game_mode1
attr datetime 20230311-09:40:27
attr experiment experiments_medium_game_mode1
attr inifile omnetpp.ini
attr iterationvars "$0=5, $1=5, $2=0"
attr iterationvarsf 5,5,0-
attr measurement "$0=5, $1=5, $2=0"
attr network Network
attr processid 9395
attr repetition 25
attr replication #25
attr resultdir results
attr runnumber 145
attr seedset 25
param *.boss.arrival_mean 20
param *.boss.service_mean 5
param *.minion.arrival_mean 10
param *.minion.service_mean 5
param *.player.recover_rate_x 0
param **.minion.arrival_distribution 0
param **.minion.service_distribution 0
param **.boss.arrival_distribution 0
param **.boss.service_distribution 0

vector 0 Network.player minion_defeated_stat:vector ETV
attr source signal_minion_defeated
vector 1 Network.player minion_jobs_queue_number_stat:vector ETV
attr source signal_minion_jobs_queue_number
vector 2 Network.player minion_response_time_stat:vector ETV
attr source signal_minion_response_time
vector 3 Network.player minion_waiting_time_stat:vector ETV
attr source signal_minion_waiting_time
vector 4 Network.player minion_jobs_number_stat:vector ETV
attr source signal_minion_jobs_number
vector 5 Network.player boss_jobs_number_stat:vector ETV
attr source signal_boss_jobs_number
vector 6 Network.player boss_jobs_queue_number_stat:vector ETV
attr source signal_boss_jobs_queue_number
vector 7 Network.player boss_waiting_time_stat:vector ETV
attr source signal_boss_waiting_time
vector 8 Network.player boss_defeated_stat:vector ETV
attr source signal_boss_defeated
vector 9 Network.player boss_response_time_stat:vector ETV
attr source signal_boss_response_time
vector 10 Network.player minion_recovered_stat:vector ETV
attr source signal_minion_recovered
vector 11 Network.player minion_throughput:vector ETV
attr source signal_minion_throughput
vector 12 Network.player boss_throughput:vector ETV
attr source signal_boss_throughput
0	186	350.153267107403	39
0	187	350.311892326774	40
0	188	356.092670248083	41
0	189	358.928737921739	42
0	192	365.915982785054	43
0	195	380.386458238008	44
0	198	389.806281387846	45
0	204	417.866694604878	46
0	207	419.65620310747	47
0	212	431.22819666528	48
0	213	432.263117199987	49
0	216	433.594960069979	50
0	257	500.245271133387	51
0	260	504.718834734306	52
0	261	509.041948045033	53
0	285	537.041456627311	54
0	288	540.42798375501	55
0	289	544.331996904365	56
0	290	545.018965023018	57
0	291	551.593664682692	58
0	296	563.811733174986	59
0	297	572.565549030234	60
0	301	586.001377350644	61
0	305	590.552217391156	62
0	306	591.824413395501	63
0	307	594.034210976825	64
0	308	596.532676014873	65
0	311	602.225150553915	66
0	330	636.115500645097	67
0	331	641.419113062139	68
0	334	649.630121834365	69
0	335	650.971208939669	70
0	346	667.084095113888	71
0	349	676.230259192321	72
0	352	685.098218138236	73
0	353	685.85442848508	74
0	357	702.372807358492	75
0	376	726.074771348638	76
0	377	726.585746083544	77
0	378	729.911794095499	78
0	379	729.926126957919	79
0	400	770.661828118183	80
0	401	771.204475176521	81
0	405	783.210267756913	82
0	408	785.795474932964	83
0	409	796.85370935622	84
0	410	797.277299518702	85
0	413	802.522259292248	86
0	417	809.285834664171	87
0	418	809.62483818966	88
0	419	811.236706426809	89
0	433	828.950361132481	90
0	434	834.531568011137	91
0	435	840.904922968093	92
0	440	848.70364519838	93
0	441	849.880871454545	94
0	442	850.778318082939	95
0	443	850.824982562353	96
0	444	856.867751219367	97
0	445	859.770856003655	98
0	446	863.114448272802	99
0	458	881.858430805721	100
0	461	887.566203586078	101
0	462	891.500654035215	102
0	471	909.78285743644	103
0	474	919.747241260852	104
0	479	921.730841753376	105
0	480	928.271087554574	106
0	485	932.025585983389	107
0	486	932.768505324298	108
0	489	940.562575411867	109
0	497	970.606027892637	110
0	498	971.24765932811	111
0	501	980.76163451216	112
0	504	984.837124154508	113
0	507	998.370321357166	114
0	510	1001.511354371989	115
0	515	1016.913397807915	116
0	516	1017.184667238395	117
0	519	1026.007748759152	118
0	522	1029.276904076159	119
0	525	1033.309755080859	120
0	528	1037.507997496929	121
0	534	1047.03883915841	122
0	553	1072.97823181182	123
0	565	1098.734406770815	124
0	566	1100.41264518173	125
0	572	1109.102711327557	126
0	573	1114.106633427344	127
0	574	1117.197939140694	128
0	575	1120.26536590016	129
0	576	1127.097476736836	130
0	579	1139.348709520843	131
0	582	1148.491663655156	132
0	585	1151.031350949574	133
0	598	1197.001944420851	134
0	599	1197.627369331155	135
0	602	1201.181787121245	136
0	603	1201.444051655195	137
0	620	1219.540742071282	138
0	621	1224.616584840704	139
0	632	1239.733905911083	140
0	633	1248.097549026107	141
0	644	1259.749662079269	142
0	652	1273.555045176422	143
0	668	1317.588054973414	144
0	669	1319.698894144119	145
0	670	1321.415792581126	146
0	677	1339.405992173838	147
0	688	1368.237479898325	148
0	689	1373.941681033393	149
0	690	1375.314500358477	150
0	693	1378.17555711645	151
0	696	1381.661913141933	152
0	706	1406.681308279489	153
0	711	1410.946061329824	154
0	712	1414.717169472003	155
0	713	1416.333837636309	156
0	714	1423.235804030568	157
0	720	1440.10213565938	158
0	725	1444.241591068976	159
0	726	1445.228941309386	160
0	732	1459.368526417613	161
0	737	1464.379942611392	162
0	740	1470.191570938836	163
0	752	1502.732333648418	164
0	753	1508.670838170502	165
0	759	1523.765797414481	166
0	762	1566.977918089524	167
0	765	1572.418993663235	168
0	775	1595.502415450481	169
0	776	1596.640229560743	170
0	780	1604.287008099008	171
0	783	1617.452400769149	172
0	788	1626.958866945244	173
0	789	1627.005229469245	174
0	795	1641.982649586905	175
0	800	1648.541883920359	176
0	801	1648.78872223602	177
0	821	1677.442076760399	178
0	827	1695.187539421282	179
0	828	1695.605010185177	180
0	835	1712.453829764966	181
0	838	1717.12631037795	182
0	841	1725.005417607472	183
0	844	1727.590982641192	184
0	845	1732.573699130422	185
0	846	1734.200349309268	186
0	849	1736.57395851003	187
0	850	1739.25523891417	188
0	851	1739.321886199604	189
0	852	1742.083936208206	190
0	861	1755.802261151772	191
0	867	1768.906859332753	192
0	883	1798.540929426529	193
0	884	1802.050486779816	194
0	885	1804.138288577745	195
0	890	1810.336947148914	196
0	891	1811.708764913493	197
0	897	1824.83112033637	198
0	900	1825.413560857007	199
0	901	1830.213958345594	200
0	902	1836.144044340243	201
0	903	1837.614820888875	202
0	906	1842.221433677802	203
0	909	1858.877030136272	204
0	919	1872.269985891575	205
0	920	1875.783384097407	206
0	921	1877.154193300745	207
0	927	1888.217683801373	208
0	932	1913.070128081393	209
0	935	1916.835340659731	210
0	936	1918.537640554996	211
0	946	1941.019785880681	212
0	947	1941.816591407067	213
0	951	1961.601281209721	214
0	957	1976.079047256702	215
0	960	2013.590444033504	216
0	976	2048.312501109281	217
0	981	2049.412953589135	218
0	982	2051.577913135436	219
0	986	2059.323802918097	220
0	987	2062.102635608118	221
0	1000	2074.085727903849	222
0	1001	2086.346348730515	223
0	1004	2099.324360875306	224
0	1005	2105.360710247476	225
0	1011	2117.17825993997	226
0	1017	2139.235635292227	227
0	1024	2146.119464018594	228
0	1044	2176.664328187865	229
0	1045	2187.286100116879	230
0	1046	2188.648191834152	231
0	1047	2190.922997542071	232
0	1051	2199.114523060923	233
0	1052	2199.263767891229	234
0	1062	2214.5333727882	235
0	1063	2215.614924119225	236
0	1064	2222.763302337428	237
0	1067	2226.21522949074	238
0	1068	2228.725459837323	239
0	1071	2231.528597679337	240
0	1079	2250.672284860936	241
0	1080	2253.508384909496	242
0	1088	2266.850930866322	243
0	1089	2271.717191629425	244
0	1095	2286.007191492902	245
0	1100	2294.130849364985	246
0	1101	2296.430296483047	247
0	1118	2310.980007559946	248
0	1119	2311.388021784323	249
0	1124	2326.42802982864	250
0	1125	2328.632955027284	251
0	1128	2334.893133732541	252
0	1131	2339.576723806955	253
0	1134	2351.75514422108	254
0	1137	2361.105444902479	255
0	1140	2381.725175885524	256
0	1143	2385.983775017499	257
0	1149	2397.327486451117	258
0	1152	2402.968818093913	259
0	1157	2410.001601878106	260
0	1158	2412.250829588737	261
0	1163	2419.529752116882	262
0	1164	2421.733934008991	263
0	1170	2429.699149561794	264
0	1179	2456.51472548801	265
0	1184	2463.093277977468	266
0	1202	2487.602569352289	267
0	1203	2487.720476176366	268
0	1204	2489.090451726634	269
0	1207	2493.061707229225	270
1	186	350.153267107403	3
1	187	350.311892326774	2
1	188	356.092670248083	1
1	189	358.928737921739	0
1	191	362.268301555052	0
1	192	365.915982785054	0
1	194	372.539545306647	0
1	195	380.386458238008	0
1	197	389.5577846975	0
1	198	389.806281387846	0
1	203	414.818044092872	0
1	204	417.866694604878	0
1	206	418.914461495836	0
1	207	419.65620310747	0
1	209	422.465171795664	0
1	211	424.393867145197	1
1	212	431.22819666528	1
1	213	432.263117199987	0
1	215	432.804436750576	0
1	216	433.594960069979	0
1	218	437.469845809978	0
1	220	439.43759280015	1
1	222	439.494640283028	2
1	224	447.099776189344	3
1	226	450.009000750263	4
1	234	460.413136447785	5
1	242	476.292959556537	6
1	246	477.825233390619	7
1	248	477.978958605117	8
1	253	486.687089681864	9
1	255	495.821123181817	10
1	257	500.245271133387	10
1	259	502.344821873946	10
1	260	504.718834734306	10
1	261	509.041948045033	9
1	263	511.603297954585	9
1	265	516.487729742531	10
1	267	517.598695609658	11
1	273	523.405186700692	12
1	276	528.216939838918	13
1	282	533.404800948007	14
1	284	533.776380340601	15
1	285	537.041456627311	15
1	287	539.614897092334	15
1	288	540.42798375501	15
1	289	544.331996904365	14
1	290	545.018965023018	13
1	291	551.593664682692	12
1	293	561.725131358257	12
1	295	562.030994378217	13
1	296	563.811733174986	13
1	297	572.565549030234	12
1	301	586.001377350644	11
1	305	590.552217391156	10
1	306	591.824413395501	9
1	307	594.034210976825	8
1	308	596.532676014873	7
1	310	601.622588852045	7
1	311	602.225150553915	7
1	323	616.583918304718	7
1	325	617.202055236483	8
1	327	625.20845208981	9
1	330	636.115500645097	9
1	331	641.419113062139	8
1	333	647.330956320507	8
1	334	649.630121834365	8
1	335	650.971208939669	7
1	339	652.128642281043	7
1	344	660.730144932448	8
1	346	667.084095113888	8
1	348	668.264761222758	8
1	349	676.230259192321	8
1	351	681.831327910446	8
1	352	685.098218138236	8
1	353	685.85442848508	7
1	357	702.372807358492	6
1	366	713.268292223129	6
1	372	723.215787602191	7
1	375	725.14946673918	8
1	376	726.074771348638	8
1	377	726.585746083544	7
1	378	729.911794095499	6
1	379	729.926126957919	5
1	381	733.868430710604	5
1	383	735.127497066748	6
1	385	735.334006060362	7
1	392	755.207784703715	8
1	394	757.56534454334	9
1	396	758.343520951228	10
1	399	766.211176156565	11
1	400	770.661828118183	11
1	401	771.204475176521	10
1	405	783.210267756913	9
1	407	783.646291317493	9
1	408	785.795474932964	9
1	409	796.85370935622	8
1	410	797.277299518702	7
1	412	798.304653878913	7
1	413	802.522259292248	7
1	417	809.285834664171	6
1	418	809.62483818966	5
1	419	811.236706426809	4
1	423	816.391582886859	4
1	426	819.277677665164	5
1	428	820.061563309576	6
1	430	823.42882570197	7
1	432	823.543488412463	8
1	433	828.950361132481	8
1	434	834.531568011137	7
1	435	840.904922968093	6
1	437	842.67564930696	6
1	439	843.171970421776	7
1	440	848.70364519838	7
1	441	849.880871454545	6
1	442	850.778318082939	5
1	443	850.824982562353	4
1	444	856.867751219367	3
1	445	859.770856003655	2
1	446	863.114448272802	1
1	457	880.063361957828	1
1	458	881.858430805721	1
1	460	884.481376070648	1
1	461	887.566203586078	1
1	462	891.500654035215	0
1	470	906.096858491925	0
1	471	909.78285743644	0
1	473	917.053825168664	0
1	474	919.747241260852	0
1	476	921.509009293989	0
1	478	921.623558985843	1
1	479	921.730841753376	1
1	480	928.271087554574	0
1	482	930.757980628926	0
1	484	931.899950272343	1
1	485	932.025585983389	1
1	486	932.768505324298	0
1	488	936.281831491434	0
1	489	940.562575411867	0
1	494	959.409509175819	0
1	496	963.567546048599	1
1	497	970.606027892637	1
1	498	971.24765932811	0
1	500	979.409086802269	0
1	501	980.76163451216	0
1	503	981.370220921466	0
1	504	984.837124154508	0
1	506	998.054723841462	0
1	507	998.370321357166	0
1	509	1000.768798821923	0
1	510	1001.511354371989	0
1	512	1010.993038112039	0
1	514	1011.452035498437	1
1	515	1016.913397807915	1
1	516	1017.184667238395	0
1	518	1021.254450093468	0
1	519	1026.007748759152	0
1	521	1028.295144927556	0
1	522	1029.276904076159	0
1	524	1029.867620550508	0
1	525	1033.309755080859	0
1	527	1034.587716186418	0
1	528	1037.507997496929	0
1	533	1043.032439090477	0
1	534	1047.03883915841	0
1	536	1052.017080031089	0
1	538	1052.690370788896	1
1	543	1062.631322734337	2
1	548	1066.391539861803	3
1	550	1067.93005079115	4
1	552	1070.377116493317	5
1	553	1072.97823181182	5
1	564	1097.534105512189	5
1	565	1098.734406770815	5
1	566	1100.41264518173	4
1	568	1105.019655488875	4
1	572	1109.102711327557	4
1	573	1114.106633427344	3
1	574	1117.197939140694	2
1	575	1120.26536590016	1
1	576	1127.097476736836	0
1	578	1134.27796456258	0
1	579	1139.348709520843	0
1	581	1139.848551853526	0
1	582	1148.491663655156	0
1	584	1149.06904089752	0
1	585	1151.031350949574	0
1	593	1189.599395587986	0
1	595	1194.505807403182	1
1	597	1196.01928749176	2
1	598	1197.001944420851	2
1	599	1197.627369331155	1
1	601	1200.532095542279	1
1	602	1201.181787121245	1
1	603	1201.444051655195	0
1	614	1214.331704468146	0
1	619	1216.617603927497	1
1	620	1219.540742071282	1
1	621	1224.616584840704	0
1	625	1232.169014153108	0
1	630	1235.4092257353	1
1	632	1239.733905911083	1
1	633	1248.097549026107	0
1	637	1248.517259157264	0
1	640	1251.34799789722	1
1	644	1259.749662079269	1
1	649	1270.031272383515	1
1	651	1271.93813285379	2
1	652	1273.555045176422	2
1	658	1280.061728632661	2
1	665	1314.056626373889	3
1	667	1314.642060538589	4
1	668	1317.588054973414	4
1	669	1319.698894144119	3
1	670	1321.415792581126	2
1	677	1339.405992173838	1
1	682	1346.110542516041	1
1	687	1367.889872199002	2
1	688	1368.237479898325	2
1	689	1373.941681033393	1
1	690	1375.314500358477	0
1	692	1377.002249574517	0
1	693	1378.17555711645	0
1	695	1380.777105870427	0
1	696	1381.661913141933	0
1	698	1393.91873141806	0
1	702	1402.137446976738	1
1	705	1406.298439893118	2
1	706	1406.681308279489	2
1	708	1409.22892971003	2
1	710	1410.194651094536	3
1	711	1410.946061329824	3
1	712	1414.717169472003	2
1	713	1416.333837636309	1
1	714	1423.235804030568	0
1	719	1437.522502562912	0
1	720	1440.10213565938	0
1	722	1443.749352849394	0
1	724	1444.09780329844	1
1	725	1444.241591068976	1
1	726	1445.228941309386	0
1	728	1451.204784155259	0
1	732	1459.368526417613	0
1	734	1462.805777634181	0
1	736	1463.731977581261	1
1	737	1464.379942611392	1
1	739	1469.511161625262	1
1	740	1470.191570938836	1
1	744	1477.019670783198	1
1	752	1502.732333648418	1
1	753	1508.670838170502	0
1	755	1515.060756568655	0
1	759	1523.765797414481	0
1	761	1563.543419170754	0
1	762	1566.977918089524	0
1	764	1570.03250521935	0
1	765	1572.418993663235	0
1	767	1575.058367380463	0
1	769	1577.78896422583	1
1	771	1581.877619595059	2
1	775	1595.502415450481	2
1	776	1596.640229560743	1
1	780	1604.287008099008	0
1	782	1608.811795845907	0
1	783	1617.452400769149	0
1	785	1625.182484363768	0
1	787	1626.652589770851	1
1	788	1626.958866945244	1
1	789	1627.005229469245	0
1	794	1640.691024145245	0
1	795	1641.982649586905	0
1	797	1642.577573599617	0
1	799	1646.33275066046	1
1	800	1648.541883920359	1
1	801	1648.78872223602	0
1	805	1653.325499605877	0
1	810	1663.377721449981	1
1	812	1663.952454281951	2
1	817	1671.726541129088	3
1	820	1675.260018520552	4
1	821	1677.442076760399	4
1	823	1678.781068984512	4
1	827	1695.187539421282	4
1	828	1695.605010185177	3
1	830	1705.05225861694	3
1	832	1706.226453516503	4
1	834	1711.11377483187	5
1	835	1712.453829764966	5
1	837	1714.8627502655	5
1	838	1717.12631037795	5
1	840	1721.06404982859	5
1	841	1725.005417607472	5
1	843	1727.17012513038	5
1	844	1727.590982641192	5
1	845	1732.573699130422	4
1	846	1734.200349309268	3
1	848	1735.812540871975	3
1	849	1736.57395851003	3
1	850	1739.25523891417	2
1	851	1739.321886199604	1
1	852	1742.083936208206	0
1	854	1746.56951169048	0
1	856	1747.778998890395	1
1	858	1750.71274830933	2
1	860	1755.30795447233	3
1	861	1755.802261151772	3
1	863	1765.555104458504	3
1	867	1768.906859332753	3
1	869	1770.029676397522	3
1	871	1772.262657099428	4
1	881	1793.466833075335	5
1	883	1798.540929426529	5
1	884	1802.050486779816	4
1	885	1804.138288577745	3
1	887	1804.185314060336	3
1	889	1807.394835518921	4
1	890	1810.336947148914	4
1	891	1811.708764913493	3
1	896	1822.458650725485	3
1	897	1824.83112033637	3
1	899	1825.002170506213	3
1	900	1825.413560857007	3
1	901	1830.213958345594	2
1	902	1836.144044340243	1
1	903	1837.614820888875	0
1	905	1840.125209822443	0
1	906	1842.221433677802	0
1	908	1856.943854044585	0
1	909	1858.877030136272	0
1	913	1866.36835717076	0
1	915	1866.967988551273	1
1	918	1870.664148085307	2
1	919	1872.269985891575	2
1	920	1875.783384097407	1
1	921	1877.154193300745	0
1	926	1883.763165252108	0
1	927	1888.217683801373	0
1	929	1895.727674013799	0
1	931	1896.05992377377	1
1	932	1913.070128081393	1
1	934	1915.693824578514	1
1	935	1916.835340659731	1
1	936	1918.537640554996	0
1	941	1924.856412670584	0
1	943	1934.673342550855	1
1	945	1934.983514581488	2
1	946	1941.019785880681	2
1	947	1941.816591407067	1
1	951	1961.601281209721	0
1	956	1975.386526062438	0
1	957	1976.079047256702	0
1	959	1995.019471867634	0
1	960	2013.590444033504	0
1	965	2032.527073200167	0
1	973	2038.321321843496	1
1	975	2040.144866994231	2
1	976	2048.312501109281	2
1	978	2048.364783550259	2
1	980	2048.599293271919	3
1	981	2049.412953589135	3
1	982	2051.577913135436	2
1	986	2059.323802918097	1
1	987	2062.102635608118	0
1	991	2065.604154607833	0
1	995	2067.356556141222	1
1	998	2068.288749076046	2
1	1000	2074.085727903849	2
1	1001	2086.346348730515	1
1	1003	2093.992979575455	1
1	1004	2099.324360875306	1
1	1005	2105.360710247476	0
1	1007	2106.082421873943	0
1	1011	2117.17825993997	0
1	1016	2136.776177976287	0
1	1017	2139.235635292227	0
1	1019	2141.646815259144	0
1	1021	2144.016431336242	1
1	1023	2144.192192413957	2
1	1024	2146.119464018594	2
1	1026	2148.663273855185	2
1	1028	2149.186389597899	3
1	1032	2157.157593129116	4
1	1035	2162.868158370205	5
1	1037	2166.040377421226	6
1	1044	2176.664328187865	6
1	1045	2187.286100116879	5
1	1046	2188.648191834152	4
1	1047	2190.922997542071	3
1	1051	2199.114523060923	2
1	1052	2199.263767891229	1
1	1056	2203.69533380782	1
1	1058	2209.868342587088	2
1	1061	2210.853110882239	3
1	1062	2214.5333727882	3
1	1063	2215.614924119225	2
1	1064	2222.763302337428	1
1	1066	2222.765702767109	1
1	1067	2226.21522949074	1
1	1068	2228.725459837323	0
1	1070	2230.784603645069	0
1	1071	2231.528597679337	0
1	1075	2237.723195822719	0
1	1077	2248.02628028613	1
1	1079	2250.672284860936	1
1	1080	2253.508384909496	0
1	1085	2260.616590731246	0
1	1087	2266.419323782936	1
1	1088	2266.850930866322	1
1	1089	2271.717191629425	0
1	1091	2273.883873674355	0
1	1095	2286.007191492902	0
1	1097	2289.436867201682	0
1	1099	2289.450867187436	1
1	1100	2294.130849364985	1
1	1101	2296.430296483047	0
1	1108	2301.640294843342	0
1	1113	2306.660610274913	1
1	1118	2310.980007559946	1
1	1119	2311.388021784323	0
1	1121	2319.4066505354	0
1	1123	2326.182676171753	1
1	1124	2326.42802982864	1
1	1125	2328.632955027284	0
1	1127	2333.049889534637	0
1	1128	2334.893133732541	0
1	1130	2338.206266866647	0
1	1131	2339.576723806955	0
1	1133	2351.433664253972	0
1	1134	2351.75514422108	0
1	1136	2355.807840710371	0
1	1137	2361.105444902479	0
1	1139	2376.564926396232	0
1	1140	2381.725175885524	0
1	1142	2383.508692131047	0
1	1143	2385.983775017499	0
1	1147	2391.716211887763	0
1	1149	2397.327486451117	0
1	1151	2397.607266565843	0
1	1152	2402.968818093913	0
1	1154	2409.014576527272	0
1	1156	2409.962440350145	1
1	1157	2410.001601878106	1
1	1158	2412.250829588737	0
1	1160	2414.557918742161	0
1	1162	2417.753952768565	1
1	1163	2419.529752116882	1
1	1164	2421.733934008991	0
1	1168	2426.6975034803	0
1	1170	2429.699149561794	0
1	1178	2455.428597487807	0
1	1179	2456.51472548801	0
1	1181	2461.949854324953	0
1	1183	2462.218887467808	1
1	1184	2463.093277977468	1
1	1191	2468.204834621618	1
1	1193	2468.6130409442	2
1	1196	2471.443904714921	3
1	1198	2474.772656864287	4
1	1202	2487.602569352289	4
1	1203	2487.720476176366	3
1	1204	2489.090451726634	2
1	1206	2490.223068541484	2
1	1207	2493.061707229225	2
1	1209	2498.954044201238	2
2	186	350.153267107403	33.693556799384
2	187	350.311892326774	30.084649811515
2	188	356.092670248083	33.981827996914
2	189	358.928737921739	24.799514025681
2	192	365.915982785054	3.647681230002
2	195	380.386458238008	7.846912931361
2	198	389.806281387846	0.248496690346
2	204	417.866694604878	3.048650512006
2	207	419.65620310747	0.741741611634
2	212	431.22819666528	8.763024869616
2	213	432.263117199987	7.86925005479
2	216	433.594960069979	0.790523319403
2	257	500.245271133387	60.750630850359
2	260	504.718834734306	57.619058544962
2	261	509.041948045033	59.03294729477
2	285	537.041456627311	60.748497070774
2	288	540.42798375501	62.602750364391
2	289	544.331996904365	66.353038299248
2	290	545.018965023018	59.180009809802
2	291	551.593664682692	64.906575000828
2	296	563.811733174986	67.990609993169
2	297	572.565549030234	70.220727156288
2	301	586.001377350644	69.513647608113
2	305	590.552217391156	71.436281376397
2	306	591.824413395501	68.419226694809
2	307	594.034210976825	65.817271137907
2	308	596.532676014873	66.168006968948
2	311	602.225150553915	68.820349605908
2	330	636.115500645097	74.39036928684
2	331	641.419113062139	79.388118683922
2	334	649.630121834365	77.026360939593
2	335	650.971208939669	63.73174600976
2	346	667.084095113888	57.883205128643
2	349	676.230259192321	59.646340887603
2	352	685.098218138236	67.896162901753
2	353	685.85442848508	60.64597639527
2	357	702.372807358492	50.273346624352
2	376	726.074771348638	57.81001012588
2	377	726.585746083544	44.754418173098
2	378	729.911794095499	43.520714032
2	379	729.926126957919	27.491097051938
2	400	770.661828118183	49.31427993266
2	401	771.204475176521	47.98868757433
2	405	783.210267756913	49.341837046309
2	408	785.795474932964	50.667977866216
2	409	796.85370935622	61.519703295858
2	410	797.277299518702	57.464697071336
2	413	802.522259292248	57.613600600234
2	417	809.285834664171	51.720490120831
2	418	809.62483818966	51.281317238432
2	419	811.236706426809	45.025530270244
2	433	828.950361132481	45.304069814988
2	434	834.531568011137	36.226914132224
2	435	840.904922968093	34.774799853273
2	440	848.70364519838	36.844646261128
2	441	849.880871454545	33.489288567686
2	442	850.778318082939	31.500640417775
2	443	850.824982562353	30.763419252777
2	444	856.867751219367	33.438925517397
2	445	859.770856003655	36.227367591192
2	446	863.114448272802	20.438798965842
2	458	881.858430805721	5.320576398948
2	461	887.566203586078	7.50284162825
2	462	891.500654035215	7.019277964567
2	471	909.78285743644	3.685998944515
2	474	919.747241260852	2.693416092188
2	479	921.730841753376	0.221832459387
2	480	928.271087554574	6.647528568731
2	485	932.025585983389	1.267605354463
2	486	932.768505324298	0.868555051955
2	489	940.562575411867	4.280743920433
2	497	970.606027892637	11.196518716818
2	498	971.24765932811	7.680113279511
2	501	980.76163451216	1.352547709891
2	504	984.837124154508	3.466903233042
2	507	998.370321357166	0.315597515704
2	510	1001.511354371989	0.742555550066
2	515	1016.913397807915	5.920359695876
2	516	1017.184667238395	5.732631739958
2	519	1026.007748759152	4.753298665684
2	522	1029.276904076159	0.981759148603
2	525	1033.309755080859	3.442134530351
2	528	1037.507997496929	2.920281310511
2	534	1047.03883915841	4.006400067933
2	553	1072.97823181182	17.222254066174
2	565	1098.734406770815	30.804355979665
2	566	1100.41264518173	30.035528688413
2	572	1109.102711327557	30.65211163803
2	573	1114.106633427344	21.080971297506
2	574	1117.197939140694	19.663833628505
2	575	1120.26536590016	15.245710411285
2	576	1127.097476736836	20.908328220139
2	579	1139.348709520843	5.070744958263
2	582	1148.491663655156	8.64311180163
2	585	1151.031350949574	1.962310052054
2	598	1197.001944420851	7.402548832865
2	599	1197.627369331155	3.121561927973
2	602	1201.181787121245	5.162499629485
2	603	1201.444051655195	0.911956112916
2	620	1219.540742071282	3.150292518812
2	621	1224.616584840704	7.998980913207
2	632	1239.733905911083	5.486579060118
2	633	1248.097549026107	12.688323290807
2	644	1259.749662079269	8.401664182049
2	652	1273.555045176422	11.597461918991
2	668	1317.588054973414	40.120878038677
2	669	1319.698894144119	39.637165511458
2	670	1321.415792581126	14.838877729058
2	677	1339.405992173838	15.669489611725
2	688	1368.237479898325	22.126937382284
2	689	1373.941681033393	26.536796838297
2	690	1375.314500358477	7.424628159475
2	693	1378.17555711645	1.173307541933
2	696	1381.661913141933	0.884807271506
2	706	1406.681308279489	10.80055544005
2	711	1410.946061329824	8.808614353086
2	712	1414.717169472003	8.418729578885
2	713	1416.333837636309	7.104907926279
2	714	1423.235804030568	13.041152936032
2	720	1440.10213565938	2.579633096468
2	725	1444.241591068976	0.492238219582
2	726	1445.228941309386	1.131138010946
2	732	1459.368526417613	2.392786109869
2	737	1464.379942611392	1.574164977211
2	740	1470.191570938836	6.459593357575
2	752	1502.732333648418	27.522611550711
2	753	1508.670838170502	31.651167387304
2	759	1523.765797414481	7.286729379393
2	762	1566.977918089524	3.43449891877
2	765	1572.418993663235	2.386488443885
2	775	1595.502415450481	17.713451224651
2	776	1596.640229560743	14.762609965684
2	780	1604.287008099008	5.273341954841
2	783	1617.452400769149	8.640604923242
2	788	1626.958866945244	1.776382581476
2	789	1627.005229469245	0.352639698394
2	795	1641.982649586905	1.29162544166
2	800	1648.541883920359	5.964310320742
2	801	1648.78872223602	2.45597157556
2	821	1677.442076760399	24.116577154522
2	827	1695.187539421282	31.235085139331
2	828	1695.605010185177	23.878469056089
2	835	1712.453829764966	37.193811244414
2	838	1717.12631037795	38.345241393438
2	841	1725.005417607472	43.726904140456
2	844	1727.590982641192	22.538724024252
2	845	1732.573699130422	26.347245613919
2	846	1734.200349309268	23.086574477398
2	849	1736.57395851003	21.71120824453
2	850	1739.25523891417	18.19118908558
2	851	1739.321886199604	12.151761069224
2	852	1742.083936208206	6.271395336231
2	861	1755.802261151772	9.232749461292
2	867	1768.906859332753	18.194111023423
2	883	1798.540929426529	32.985824968025
2	884	1802.050486779816	36.003449825246
2	885	1804.138288577745	34.108612180223
2	890	1810.336947148914	38.074290049486
2	891	1811.708764913493	38.188038261505
2	897	1824.83112033637	20.645806276034
2	900	1825.413560857007	18.018725338086
2	901	1830.213958345594	14.823101221436
2	902	1836.144044340243	13.685393614758
2	903	1837.614820888875	12.612650382662
2	906	1842.221433677802	2.096223855359
2	909	1858.877030136272	1.933176091687
2	919	1872.269985891575	5.901628720815
2	920	1875.783384097407	8.815395546134
2	921	1877.154193300745	6.490045215438
2	927	1888.217683801373	4.454518549265
2	932	1913.070128081393	17.342454067594
2	935	1916.835340659731	20.775416885961
2	936	1918.537640554996	2.843815976482
2	946	1941.019785880681	16.163373210097
2	947	1941.816591407067	7.143248856212
2	951	1961.601281209721	16.326865326355
2	957	1976.079047256702	0.692521194264
2	960	2013.590444033504	18.57097216587
2	976	2048.312501109281	12.024280653414
2	981	2049.412953589135	11.091631745639
2	982	2051.577913135436	11.433046141205
2	986	2059.323802918097	10.724509646178
2	987	2062.102635608118	9.588549159976
2	1000	2074.085727903849	8.481573296016
2	1001	2086.346348730515	18.989792589293
2	1004	2099.324360875306	31.03561179926
2	1005	2105.360710247476	11.367730672021
2	1011	2117.17825993997	7.355894864136
2	1017	2139.235635292227	2.45945731594
2	1024	2146.119464018594	4.47264875945
2	1044	2176.664328187865	27.477938589966
2	1045	2187.286100116879	37.529444346631
2	1046	2188.648191834152	31.490598705036
2	1047	2190.922997542071	28.054839171866
2	1051	2199.114523060923	31.947951807121
2	1052	2199.263767891229	24.347193178223
2	1062	2214.5333727882	12.640519879803
2	1063	2215.614924119225	11.919590311405
2	1064	2222.763302337428	12.89495975034
2	1067	2226.21522949074	15.362118608501
2	1068	2228.725459837323	5.959757070214
2	1071	2231.528597679337	0.743994034268
2	1079	2250.672284860936	12.949089038217
2	1080	2253.508384909496	5.482104623366
2	1088	2266.850930866322	6.234340135076
2	1089	2271.717191629425	5.297867846489
2	1095	2286.007191492902	8.844453522281
2	1100	2294.130849364985	4.693982163303
2	1101	2296.430296483047	6.979429295611
2	1118	2310.980007559946	4.319397285033
2	1119	2311.388021784323	4.125883802539
2	1124	2326.42802982864	7.02137929324
2	1125	2328.632955027284	2.450278855531
2	1128	2334.893133732541	1.843244197904
2	1131	2339.576723806955	1.370456940308
2	1134	2351.75514422108	0.321479967108
2	1137	2361.105444902479	5.297604192108
2	1140	2381.725175885524	5.160249489292
2	1143	2385.983775017499	2.475082886452
2	1149	2397.327486451117	5.611274563354
2	1152	2402.968818093913	5.36155152807
2	1157	2410.001601878106	0.987025350834
2	1158	2412.250829588737	2.288389238592
2	1163	2419.529752116882	4.971833374721
2	1164	2421.733934008991	3.979981240426
2	1170	2429.699149561794	3.001646081494
2	1179	2456.51472548801	1.086128000203
2	1184	2463.093277977468	1.143423652515
2	1202	2487.602569352289	19.397734730671
2	1203	2487.720476176366	19.107435232166
2	1204	2489.090451726634	17.646547011713
2	1207	2493.061707229225	18.289050364938
3	186	350.153267107403	29.926024592144
3	187	350.311892326774	28.201050075605
3	188	356.092670248083	21.963446352025
3	191	362.268301555052	0
3	194	372.539545306647	0
3	197	389.5577846975	0
3	203	414.818044092872	0
3	206	418.914461495836	0
3	209	422.465171795664	0
3	212	431.22819666528	6.834329520083
3	215	432.804436750576	0
3	218	437.469845809978	0
3	249	481.911467398176	42.473874598026
3	256	496.568489233706	57.073848950678
3	257	500.245271133387	53.145494944043
3	260	504.718834734306	54.709833984043
3	261	509.041948045033	57.055085825462
3	277	529.948966493401	69.535830045616
3	280	530.404742230632	54.111782674095
3	285	537.041456627311	59.216223236692
3	288	540.42798375501	62.449025149893
3	289	544.331996904365	58.493041691149
3	290	545.018965023018	58.331875341154
3	291	551.593664682692	55.772541500875
3	296	563.811733174986	61.46691130104
3	297	572.565549030234	60.962251075649
3	300	585.633062861438	69.145333118907
3	301	586.001377350644	68.402681740986
3	304	589.291046578118	70.175110563359
3	305	590.552217391156	67.147030690464
3	306	591.824413395501	63.607473556583
3	307	594.034210976825	63.6695419309
3	308	596.532676014873	63.127875066866
3	311	602.225150553915	68.448770213314
3	314	604.809226988995	65.194329896661
3	329	634.010335517816	72.285204159559
3	330	636.115500645097	74.08450626688
3	331	641.419113062139	68.815352167367
3	334	649.630121834365	62.390658904456
3	335	650.971208939669	49.348620087624
3	340	653.145866790984	50.010916520376
3	345	665.24139864562	56.040508660375
3	346	667.084095113888	50.50017680917
3	349	676.230259192321	59.028203955838
3	352	685.098218138236	59.889766048426
3	353	685.85442848508	38.523472164573
3	356	693.484958441409	41.385497707269
3	357	702.372807358492	50.244165077449
3	360	709.465652130619	54.754512419846
3	368	718.445453066902	57.715308134454
3	373	724.03073077115	55.765969548392
3	376	726.074771348638	44.243443438192
3	377	726.585746083544	40.194666020045
3	378	729.911794095499	27.476764189518
3	379	729.926126957919	17.97067340455
3	388	742.174504146013	28.906211922884
3	397	760.778511972695	39.430963787172
3	400	770.661828118183	47.446040515992
3	401	771.204475176521	46.055008437341
3	404	777.165218759894	43.29678804929
3	405	783.210267756913	48.082770690165
3	408	785.795474932964	50.461468872602
3	409	796.85370935622	57.041106908854
3	410	797.277299518702	52.368640826688
3	413	802.522259292248	47.314474588533
3	416	808.416684298991	50.851339755651
3	417	809.285834664171	50.942313712943
3	418	809.62483818966	43.413662033095
3	419	811.236706426809	38.531449322862
3	424	818.543258927212	34.896967609719
3	433	828.950361132481	30.645707253568
3	434	834.531568011137	28.401444896317
3	435	840.904922968093	29.045924030841
3	440	848.70364519838	32.312062311521
3	441	849.880871454545	30.603193789381
3	442	850.778318082939	30.716754773363
3	443	850.824982562353	27.396156860383
3	444	856.867751219367	33.324262806904
3	445	859.770856003655	17.095206696695
3	446	863.114448272802	19.942477851026
3	452	875.585800000009	12.300705277919
3	455	878.179553117658	1.641698710885
3	458	881.858430805721	1.795068847893
3	461	887.566203586078	3.08482751543
3	470	906.096858491925	0
3	473	917.053825168664	0
3	476	921.509009293989	0
3	479	921.730841753376	0.107282767533
3	482	930.757980628926	0
3	485	932.025585983389	0.125635711046
3	488	936.281831491434	0
3	494	959.409509175819	0
3	497	970.606027892637	7.038481844038
3	500	979.409086802269	0
3	503	981.370220921466	0
3	506	998.054723841462	0
3	509	1000.768798821923	0
3	512	1010.993038112039	0
3	515	1016.913397807915	5.461362309478
3	518	1021.254450093468	0
3	521	1028.295144927556	0
3	524	1029.867620550508	0
3	527	1034.587716186418	0
3	533	1043.032439090477	0
3	536	1052.017080031089	0
3	541	1060.210146668022	7.519775879126
3	546	1066.215342964875	10.459365219229
3	553	1072.97823181182	10.346909077483
3	556	1075.888399507248	10.869678630927
3	559	1092.572021112389	26.180481250586
3	562	1095.482364438133	27.552313646983
3	565	1098.734406770815	28.357290277498
3	566	1100.41264518173	25.137417053049
3	571	1107.521096547751	29.070496858224
3	572	1109.102711327557	16.077049197719
3	573	1114.106633427344	16.572527915155
3	574	1117.197939140694	12.178283651819
3	575	1120.26536590016	14.076217383463
3	578	1134.27796456258	0
3	581	1139.848551853526	0
3	584	1149.06904089752	0
3	593	1189.599395587986	0
3	598	1197.001944420851	2.496137017669
3	599	1197.627369331155	1.608081839395
3	602	1201.181787121245	0.649691578966
3	614	1214.331704468146	0
3	617	1216.563250460384	0.172800907914
3	620	1219.540742071282	2.923138143785
3	626	1233.201584058983	1.032569905875
3	631	1235.931859359484	1.684532508519
3	632	1239.733905911083	4.324680175783
3	638	1251.082218503919	2.564959346655
3	643	1254.202401710928	2.854403813708
3	644	1259.749662079269	6.363489411513
3	647	1263.392487308527	1.434904051096
3	652	1273.555045176422	3.523772792907
3	660	1303.01938573326	31.08125287947
3	663	1313.802828723253	36.335651788516
3	668	1317.588054973414	37.526326340753
3	669	1319.698894144119	13.121979292051
3	670	1321.415792581126	7.359166207237
3	673	1327.743620223868	13.101559685279
3	676	1338.96352290984	15.227020347727
3	677	1339.405992173838	4.486253792042
3	680	1345.326641896116	0.133219354333
3	685	1362.893251167385	16.782708651344
3	688	1368.237479898325	20.832595703229
3	689	1373.941681033393	6.051808834391
3	692	1377.002249574517	0
3	695	1380.777105870427	0
3	698	1393.91873141806	0
3	703	1403.250391302408	7.369638462969
3	706	1406.681308279489	4.543861302751
3	711	1410.946061329824	4.647621436706
3	712	1414.717169472003	5.488239761973
3	713	1416.333837636309	6.139186541773
3	719	1437.522502562912	0
3	722	1443.749352849394	0
3	725	1444.241591068976	0.143787770536
3	728	1451.204784155259	0
3	731	1457.46500367045	0.489263362706
3	734	1462.805777634181	0
3	737	1464.379942611392	0.647965030131
3	740	1470.191570938836	0.680409313574
3	751	1497.563446135889	22.353724038182
3	752	1502.732333648418	25.71266286522
3	755	1515.060756568655	0
3	758	1520.811083770343	4.332015735255
3	761	1563.543419170754	0
3	764	1570.03250521935	0
3	767	1575.058367380463	0
3	774	1592.512854278138	14.723890052308
3	775	1595.502415450481	13.624795855422
3	776	1596.640229560743	6.139804781113
3	779	1603.585351937659	4.571685793492
3	782	1608.811795845907	0
3	785	1625.182484363768	0
3	788	1626.958866945244	0.306277174393
3	794	1640.691024145245	0
3	797	1642.577573599617	0
3	800	1648.541883920359	2.209133259899
3	818	1675.176781741674	21.851282135797
3	821	1677.442076760399	14.064355310418
3	826	1687.74334643016	23.790892148209
3	827	1695.187539421282	23.460998292194
3	828	1695.605010185177	20.344991664625
3	835	1712.453829764966	33.672760780454
3	838	1717.12631037795	35.847796910934
3	841	1725.005417607472	19.953158990532
3	844	1727.590982641192	21.364529124689
3	845	1732.573699130422	21.459924298552
3	846	1734.200349309268	19.337599043768
3	849	1736.57395851003	15.50990868144
3	850	1739.25523891417	12.08511378379
3	851	1739.321886199604	3.509345327629
3	854	1746.56951169048	0
3	861	1755.802261151772	8.023262261377
3	866	1766.476700394715	15.763952085385
3	867	1768.906859332753	13.598904860423
3	882	1794.529847177211	28.974742718707
3	883	1798.540929426529	32.493892471959
3	884	1802.050486779816	32.020810382294
3	885	1804.138288577745	31.875631478317
3	890	1810.336947148914	36.816220496926
3	891	1811.708764913493	18.241931838158
3	894	1819.207177912806	15.02186385247
3	897	1824.83112033637	17.436284817449
3	900	1825.413560857007	10.022703732849
3	901	1830.213958345594	7.755307620109
3	902	1836.144044340243	11.14187383403
3	905	1840.125209822443	0
3	908	1856.943854044585	0
3	916	1869.611522023229	3.243164852469
3	919	1872.269985891575	5.301997340302
3	920	1875.783384097407	5.1192360121
3	926	1883.763165252108	0
3	929	1895.727674013799	0
3	932	1913.070128081393	17.010204307623
3	935	1916.835340659731	1.141516081217
3	941	1924.856412670584	0
3	946	1941.019785880681	6.346443329826
3	947	1941.816591407067	6.833076825579
3	950	1948.464029512047	3.189613628681
3	956	1975.386526062438	0
3	959	1995.019471867634	0
3	965	2032.527073200167	0
3	968	2034.736705888302	0.397593398875
3	971	2037.259030082351	0.970809626484
3	976	2048.312501109281	9.991179265785
3	981	2049.412953589135	9.268086594904
3	982	2051.577913135436	3.213129585177
3	985	2052.710629075318	4.111335803399
3	986	2059.323802918097	6.809716469955
3	999	2071.745336997184	6.141182389351
3	1000	2074.085727903849	6.729171762627
3	1001	2086.346348730515	18.057599654469
3	1004	2099.324360875306	5.331381299851
3	1007	2106.082421873943	0
3	1010	2112.063475898159	2.241110822325
3	1016	2136.776177976287	0
3	1019	2141.646815259144	0
3	1024	2146.119464018594	2.103032682352
3	1033	2158.455521518229	14.263329104272
3	1040	2168.397474440488	19.734200585303
3	1043	2175.705695941591	26.519306343692
3	1044	2176.664328187865	26.907672417617
3	1045	2187.286100116879	30.128506987763
3	1046	2188.648191834152	25.780033463947
3	1047	2190.922997542071	24.882620120845
3	1050	2193.974762641595	26.808191387793
3	1051	2199.114523060923	24.197948347917
3	1052	2199.263767891229	6.368404275224
3	1059	2210.454891499997	8.5620385916
3	1062	2214.5333727882	10.83803898038
3	1063	2215.614924119225	5.746581532137
3	1064	2222.763302337428	11.910191455189
3	1067	2226.21522949074	3.449526723631
3	1070	2230.784603645069	0
3	1078	2249.555392469971	11.832196647252
3	1079	2250.672284860936	2.646004574806
3	1085	2260.616590731246	0
3	1088	2266.850930866322	0.431607083386
3	1091	2273.883873674355	0
3	1094	2279.954430712393	2.791692741772
3	1097	2289.436867201682	0
3	1100	2294.130849364985	4.679982177549
3	1114	2306.698605814369	5.058310971027
3	1117	2308.107805870028	1.447195595115
3	1118	2310.980007559946	3.717869578162
3	1121	2319.4066505354	0
3	1124	2326.42802982864	0.245353656887
3	1127	2333.049889534637	0
3	1130	2338.206266866647	0
3	1133	2351.433664253972	0
3	1136	2355.807840710371	0
3	1139	2376.564926396232	0
3	1142	2383.508692131047	0
3	1148	2394.32820207234	2.611990184577
3	1151	2397.607266565843	0
3	1154	2409.014576527272	0
3	1157	2410.001601878106	0.039161527961
3	1160	2414.557918742161	0
3	1163	2419.529752116882	1.775799348317
3	1169	2427.66428535228	0.96678187198
3	1178	2455.428597487807	0
3	1181	2461.949854324953	0
3	1184	2463.093277977468	0.87439050966
3	1187	2465.495576580593	1.740936376138
3	1194	2471.075227956482	3.238125664037
3	1201	2486.475874228053	18.271039606435
3	1202	2487.602569352289	18.989528408089
3	1203	2487.720476176366	16.276571461445
3	1204	2489.090451726634	14.317794862347
3	1207	2493.061707229225	17.942113387088
4	191	362.268301555052	1
4	194	372.539545306647	1
4	197	389.5577846975	1
4	203	414.818044092872	1
4	206	418.914461495836	1
4	209	422.465171795664	1
4	211	424.393867145197	2
4	215	432.804436750576	1
4	218	437.469845809978	1
4	220	439.43759280015	2
4	222	439.494640283028	3
4	224	447.099776189344	4
4	226	450.009000750263	5
4	234	460.413136447785	6
4	242	476.292959556537	7
4	246	477.825233390619	8
4	248	477.978958605117	9
4	253	486.687089681864	10
4	255	495.821123181817	11
4	259	502.344821873946	11
4	263	511.603297954585	10
4	265	516.487729742531	11
4	267	517.598695609658	12
4	273	523.405186700692	13
4	276	528.216939838918	14
4	282	533.404800948007	15
4	284	533.776380340601	16
4	287	539.614897092334	16
4	293	561.725131358257	13
4	295	562.030994378217	14
4	310	601.622588852045	8
4	323	616.583918304718	8
4	325	617.202055236483	9
4	327	625.20845208981	10
4	333	647.330956320507	9
4	339	652.128642281043	8
4	344	660.730144932448	9
4	348	668.264761222758	9
4	351	681.831327910446	9
4	366	713.268292223129	7
4	372	723.215787602191	8
4	375	725.14946673918	9
4	381	733.868430710604	6
4	383	735.127497066748	7
4	385	735.334006060362	8
4	392	755.207784703715	9
4	394	757.56534454334	10
4	396	758.343520951228	11
4	399	766.211176156565	12
4	407	783.646291317493	10
4	412	798.304653878913	8
4	423	816.391582886859	5
4	426	819.277677665164	6
4	428	820.061563309576	7
4	430	823.42882570197	8
4	432	823.543488412463	9
4	437	842.67564930696	7
4	439	843.171970421776	8
4	457	880.063361957828	2
4	460	884.481376070648	2
4	470	906.096858491925	1
4	473	917.053825168664	1
4	476	921.509009293989	1
4	478	921.623558985843	2
4	482	930.757980628926	1
4	484	931.899950272343	2
4	488	936.281831491434	1
4	494	959.409509175819	1
4	496	963.567546048599	2
4	500	979.409086802269	1
4	503	981.370220921466	1
4	506	998.054723841462	1
4	509	1000.768798821923	1
4	512	1010.993038112039	1
4	514	1011.452035498437	2
4	518	1021.254450093468	1
4	521	1028.295144927556	1
4	524	1029.867620550508	1
4	527	1034.587716186418	1
4	533	1043.032439090477	1
4	536	1052.017080031089	1
4	538	1052.690370788896	2
4	543	1062.631322734337	3
4	548	1066.391539861803	4
4	550	1067.93005079115	5
4	552	1070.377116493317	6
4	564	1097.534105512189	6
4	568	1105.019655488875	5
4	578	1134.27796456258	1
4	581	1139.848551853526	1
4	584	1149.06904089752	1
4	593	1189.599395587986	1
4	595	1194.505807403182	2
4	597	1196.01928749176	3
4	601	1200.532095542279	2
4	614	1214.331704468146	1
4	619	1216.617603927497	2
4	625	1232.169014153108	1
4	630	1235.4092257353	2
4	637	1248.517259157264	1
4	640	1251.34799789722	2
4	649	1270.031272383515	2
4	651	1271.93813285379	3
4	658	1280.061728632661	3
4	665	1314.056626373889	4
4	667	1314.642060538589	5
4	682	1346.110542516041	2
4	687	1367.889872199002	3
4	692	1377.002249574517	1
4	695	1380.777105870427	1
4	698	1393.91873141806	1
4	702	1402.137446976738	2
4	705	1406.298439893118	3
4	708	1409.22892971003	3
4	710	1410.194651094536	4
4	719	1437.522502562912	1
4	722	1443.749352849394	1
4	724	1444.09780329844	2
4	728	1451.204784155259	1
4	734	1462.805777634181	1
4	736	1463.731977581261	2
4	739	1469.511161625262	2
4	744	1477.019670783198	2
4	755	1515.060756568655	1
4	761	1563.543419170754	1
4	764	1570.03250521935	1
4	767	1575.058367380463	1
4	769	1577.78896422583	2
4	771	1581.877619595059	3
4	782	1608.811795845907	1
4	785	1625.182484363768	1
4	787	1626.652589770851	2
4	794	1640.691024145245	1
4	797	1642.577573599617	1
4	799	1646.33275066046	2
4	805	1653.325499605877	1
4	810	1663.377721449981	2
4	812	1663.952454281951	3
4	817	1671.726541129088	4
4	820	1675.260018520552	5
4	823	1678.781068984512	5
4	830	1705.05225861694	4
4	832	1706.226453516503	5
4	834	1711.11377483187	6
4	837	1714.8627502655	6
4	840	1721.06404982859	6
4	843	1727.17012513038	6
4	848	1735.812540871975	4
4	854	1746.56951169048	1
4	856	1747.778998890395	2
4	858	1750.71274830933	3
4	860	1755.30795447233	4
4	863	1765.555104458504	4
4	869	1770.029676397522	4
4	871	1772.262657099428	5
4	881	1793.466833075335	6
4	887	1804.185314060336	4
4	889	1807.394835518921	5
4	896	1822.458650725485	4
4	899	1825.002170506213	4
4	905	1840.125209822443	1
4	908	1856.943854044585	1
4	913	1866.36835717076	1
4	915	1866.967988551273	2
4	918	1870.664148085307	3
4	926	1883.763165252108	1
4	929	1895.727674013799	1
4	931	1896.05992377377	2
4	934	1915.693824578514	2
4	941	1924.856412670584	1
4	943	1934.673342550855	2
4	945	1934.983514581488	3
4	956	1975.386526062438	1
4	959	1995.019471867634	1
4	965	2032.527073200167	1
4	973	2038.321321843496	2
4	975	2040.144866994231	3
4	978	2048.364783550259	3
4	980	2048.599293271919	4
4	991	2065.604154607833	1
4	995	2067.356556141222	2
4	998	2068.288749076046	3
4	1003	2093.992979575455	2
4	1007	2106.082421873943	1
4	1016	2136.776177976287	1
4	1019	2141.646815259144	1
4	1021	2144.016431336242	2
4	1023	2144.192192413957	3
4	1026	2148.663273855185	3
4	1028	2149.186389597899	4
4	1032	2157.157593129116	5
4	1035	2162.868158370205	6
4	1037	2166.040377421226	7
4	1056	2203.69533380782	2
4	1058	2209.868342587088	3
4	1061	2210.853110882239	4
4	1066	2222.765702767109	2
4	1070	2230.784603645069	1
4	1075	2237.723195822719	1
4	1077	2248.02628028613	2
4	1085	2260.616590731246	1
4	1087	2266.419323782936	2
4	1091	2273.883873674355	1
4	1097	2289.436867201682	1
4	1099	2289.450867187436	2
4	1108	2301.640294843342	1
4	1113	2306.660610274913	2
4	1121	2319.4066505354	1
4	1123	2326.182676171753	2
4	1127	2333.049889534637	1
4	1130	2338.206266866647	1
4	1133	2351.433664253972	1
4	1136	2355.807840710371	1
4	1139	2376.564926396232	1
4	1142	2383.508692131047	1
4	1147	2391.716211887763	1
4	1151	2397.607266565843	1
4	1154	2409.014576527272	1
4	1156	2409.962440350145	2
4	1160	2414.557918742161	1
4	1162	2417.753952768565	2
4	1168	2426.6975034803	1
4	1178	2455.428597487807	1
4	1181	2461.949854324953	1
4	1183	2462.218887467808	2
4	1191	2468.204834621618	2
4	1193	2468.6130409442	3
4	1196	2471.443904714921	4
4	1198	2474.772656864287	5
4	1206	2490.223068541484	3
4	1209	2498.954044201238	3
5	200	407.023051346512	1
5	228	451.986862219571	1
5	230	452.241254781419	2
5	232	456.269153484022	3
5	236	462.788085686888	4
5	240	471.750175842528	3
5	251	485.838955213216	1
5	269	519.115936014759	1
5	271	522.251961692532	2
5	279	530.364669045925	1
5	299	572.603760894772	1
5	303	587.239462929909	1
5	313	603.134950270608	1
5	316	609.200889985245	1
5	318	610.173953034799	2
5	321	612.980541173579	2
5	337	652.09946073414	1
5	342	654.711139710773	1
5	355	686.391080063499	1
5	359	702.435029905981	1
5	362	711.955453553369	1
5	364	712.551934658254	2
5	370	721.347548185523	1
5	387	739.812602447366	1
5	390	744.908658692014	1
5	403	772.705257103947	1
5	415	806.13012311482	1
5	421	811.858998937252	1
5	448	863.28509472209	1
5	450	867.68999344566	2
5	454	876.537854406773	1
5	464	893.602110190585	1
5	467	901.844889125823	1
5	491	948.259548206261	1
5	530	1041.233624618206	1
5	540	1055.755977745646	1
5	545	1065.018720876321	1
5	555	1075.275228128681	1
5	558	1078.450599689527	1
5	561	1093.025662129838	1
5	570	1106.189148516697	1
5	587	1161.606097471778	1
5	590	1163.578442419488	1
5	605	1201.575345488697	1
5	607	1205.21468365384	2
5	610	1209.074318248075	2
5	616	1216.39044955247	1
5	623	1231.062298958818	1
5	628	1234.247326850965	1
5	635	1248.342184019664	1
5	642	1253.386172667756	1
5	646	1261.957583257431	1
5	654	1277.467176934737	1
5	656	1278.936722892472	2
5	662	1306.576914852068	1
5	672	1323.736502562113	1
5	675	1334.919738381796	1
5	679	1345.193422541783	1
5	684	1347.404884195096	1
5	700	1395.880752839439	1
5	716	1423.878087902705	1
5	730	1456.975740307744	1
5	742	1475.209722097707	1
5	746	1478.042304220319	2
5	749	1491.383258494281	2
5	757	1516.479068035088	1
5	773	1590.50042477963	1
5	778	1599.013666144167	1
5	791	1631.434037847915	1
5	803	1650.493728198422	1
5	807	1658.593476369919	2
5	814	1665.372692648625	2
5	825	1681.278513467016	1
5	865	1766.04703695457	1
5	873	1773.520726651988	1
5	875	1779.875668708269	2
5	877	1781.162383615031	3
5	893	1815.390857124158	1
5	911	1862.080332632237	1
5	923	1880.381953975635	1
5	938	1919.782592244217	1
5	949	1945.274415883366	1
5	953	1965.142792458315	1
5	962	2029.457987501145	1
5	967	2034.339112489427	1
5	970	2036.288220455867	1
5	984	2052.514086448142	1
5	989	2064.672210610458	1
5	993	2066.987813455407	2
5	1009	2109.822365075834	1
5	1013	2125.829693711752	1
5	1030	2149.756655770248	1
5	1039	2167.166571253802	1
5	1042	2174.916574713006	1
5	1049	2192.895363616005	1
5	1054	2201.892852908397	1
5	1073	2232.882083632135	1
5	1082	2259.340022759345	1
5	1093	2277.162737970621	1
5	1103	2296.648678655655	1
5	1105	2298.575357641728	2
5	1110	2303.500581520958	2
5	1116	2307.262137981784	1
5	1145	2388.40867807511	1
5	1166	2422.686534544323	1
5	1172	2432.913250480392	1
5	1175	2438.546595932053	1
5	1186	2463.754640204455	1
5	1189	2467.837102292445	1
5	1200	2475.119593842137	1
6	200	407.023051346512	0
6	201	409.179299548067	0
6	228	451.986862219571	0
6	230	452.241254781419	1
6	232	456.269153484022	2
6	236	462.788085686888	3
6	237	466.758790014986	3
6	238	471.14139878444	2
6	240	471.750175842528	2
6	243	476.80034841014	2
6	244	477.216547188258	1
6	249	481.911467398176	0
6	251	485.838955213216	0
6	256	496.568489233706	0
6	269	519.115936014759	0
6	271	522.251961692532	1
6	274	524.695186582482	1
6	277	529.948966493401	0
6	279	530.364669045925	0
6	280	530.404742230632	0
6	299	572.603760894772	0
6	300	585.633062861438	0
6	303	587.239462929909	0
6	304	589.291046578118	0
6	313	603.134950270608	0
6	314	604.809226988995	0
6	316	609.200889985245	0
6	318	610.173953034799	1
6	319	611.411060835416	1
6	321	612.980541173579	1
6	328	630.682091864747	1
6	329	634.010335517816	0
6	337	652.09946073414	0
6	340	653.145866790984	0
6	342	654.711139710773	0
6	345	665.24139864562	0
6	355	686.391080063499	0
6	356	693.484958441409	0
6	359	702.435029905981	0
6	360	709.465652130619	0
6	362	711.955453553369	0
6	364	712.551934658254	1
6	367	713.467904667874	1
6	368	718.445453066902	0
6	370	721.347548185523	0
6	373	724.03073077115	0
6	387	739.812602447366	0
6	388	742.174504146013	0
6	390	744.908658692014	0
6	397	760.778511972695	0
6	403	772.705257103947	0
6	404	777.165218759894	0
6	415	806.13012311482	0
6	416	808.416684298991	0
6	421	811.858998937252	0
6	424	818.543258927212	0
6	448	863.28509472209	0
6	450	867.68999344566	1
6	451	871.052285086681	1
6	452	875.585800000009	0
6	454	876.537854406773	0
6	455	878.179553117658	0
6	464	893.602110190585	0
6	465	894.087306542106	0
6	467	901.844889125823	0
6	468	902.662004276399	0
6	491	948.259548206261	0
6	492	950.832636915518	0
6	530	1041.233624618206	0
6	531	1041.44451433766	0
6	540	1055.755977745646	0
6	541	1060.210146668022	0
6	545	1065.018720876321	0
6	546	1066.215342964875	0
6	555	1075.275228128681	0
6	556	1075.888399507248	0
6	558	1078.450599689527	0
6	559	1092.572021112389	0
6	561	1093.025662129838	0
6	562	1095.482364438133	0
6	570	1106.189148516697	0
6	571	1107.521096547751	0
6	587	1161.606097471778	0
6	588	1161.914205782841	0
6	590	1163.578442419488	0
6	591	1163.591852468546	0
6	605	1201.575345488697	0
6	607	1205.21468365384	1
6	608	1205.960188975024	1
6	610	1209.074318248075	1
6	611	1209.940615756507	1
6	612	1210.852575969085	0
6	616	1216.39044955247	0
6	617	1216.563250460384	0
6	623	1231.062298958818	0
6	626	1233.201584058983	0
6	628	1234.247326850965	0
6	631	1235.931859359484	0
6	635	1248.342184019664	0
6	638	1251.082218503919	0
6	642	1253.386172667756	0
6	643	1254.202401710928	0
6	646	1261.957583257431	0
6	647	1263.392487308527	0
6	654	1277.467176934737	0
6	656	1278.936722892472	1
6	659	1295.672031836634	1
6	660	1303.01938573326	0
6	662	1306.576914852068	0
6	663	1313.802828723253	0
6	672	1323.736502562113	0
6	673	1327.743620223868	0
6	675	1334.919738381796	0
6	676	1338.96352290984	0
6	679	1345.193422541783	0
6	680	1345.326641896116	0
6	684	1347.404884195096	0
6	685	1362.893251167385	0
6	700	1395.880752839439	0
6	703	1403.250391302408	0
6	716	1423.878087902705	0
6	717	1425.838236534232	0
6	730	1456.975740307744	0
6	731	1457.46500367045	0
6	742	1475.209722097707	0
6	746	1478.042304220319	1
6	747	1486.00540600719	1
6	749	1491.383258494281	1
6	750	1492.072091905328	1
6	751	1497.563446135889	0
6	757	1516.479068035088	0
6	758	1520.811083770343	0
6	773	1590.50042477963	0
6	774	1592.512854278138	0
6	778	1599.013666144167	0
6	779	1603.585351937659	0
6	791	1631.434037847915	0
6	792	1637.288302633119	0
6	803	1650.493728198422	0
6	807	1658.593476369919	1
6	808	1660.227729792684	1
6	814	1665.372692648625	1
6	815	1671.171230249188	1
6	818	1675.176781741674	0
6	825	1681.278513467016	0
6	826	1687.74334643016	0
6	865	1766.04703695457	0
6	866	1766.476700394715	0
6	873	1773.520726651988	0
6	875	1779.875668708269	1
6	877	1781.162383615031	2
6	878	1785.390147897148	2
6	879	1792.001974237164	1
6	882	1794.529847177211	0
6	893	1815.390857124158	0
6	894	1819.207177912806	0
6	911	1862.080332632237	0
6	916	1869.611522023229	0
6	923	1880.381953975635	0
6	924	1882.475382486174	0
6	938	1919.782592244217	0
6	939	1923.761809683708	0
6	949	1945.274415883366	0
6	950	1948.464029512047	0
6	953	1965.142792458315	0
6	954	1974.490115709085	0
6	962	2029.457987501145	0
6	963	2030.71038189025	0
6	967	2034.339112489427	0
6	968	2034.736705888302	0
6	970	2036.288220455867	0
6	971	2037.259030082351	0
6	984	2052.514086448142	0
6	985	2052.710629075318	0
6	989	2064.672210610458	0
6	993	2066.987813455407	1
6	996	2067.889578882736	1
6	999	2071.745336997184	0
6	1009	2109.822365075834	0
6	1010	2112.063475898159	0
6	1013	2125.829693711752	0
6	1014	2129.925981476298	0
6	1030	2149.756655770248	0
6	1033	2158.455521518229	0
6	1039	2167.166571253802	0
6	1040	2168.397474440488	0
6	1042	2174.916574713006	0
6	1043	2175.705695941591	0
6	1049	2192.895363616005	0
6	1050	2193.974762641595	0
6	1054	2201.892852908397	0
6	1059	2210.454891499997	0
6	1073	2232.882083632135	0
6	1078	2249.555392469971	0
6	1082	2259.340022759345	0
6	1083	2260.355924549867	0
6	1093	2277.162737970621	0
6	1094	2279.954430712393	0
6	1103	2296.648678655655	0
6	1105	2298.575357641728	1
6	1106	2300.787940719272	1
6	1110	2303.500581520958	1
6	1111	2306.036157626711	1
6	1114	2306.698605814369	0
6	1116	2307.262137981784	0
6	1117	2308.107805870028	0
6	1145	2388.40867807511	0
6	1148	2394.32820207234	0
6	1166	2422.686534544323	0
6	1169	2427.66428535228	0
6	1172	2432.913250480392	0
6	1173	2433.106776803457	0
6	1175	2438.546595932053	0
6	1176	2441.35817226121	0
6	1186	2463.754640204455	0
6	1187	2465.495576580593	0
6	1189	2467.837102292445	0
6	1194	2471.075227956482	0
6	1200	2475.119593842137	0
6	1201	2486.475874228053	0
7	200	407.023051346512	0
7	228	451.986862219571	0
7	237	466.758790014986	14.517535233567
7	238	471.14139878444	14.872245300418
7	243	476.80034841014	14.012262723252
7	244	477.216547188258	5.46637134573
7	251	485.838955213216	0
7	269	519.115936014759	0
7	274	524.695186582482	2.44322488995
7	279	530.364669045925	0
7	299	572.603760894772	0
7	303	587.239462929909	0
7	313	603.134950270608	0
7	316	609.200889985245	0
7	319	611.411060835416	1.237107800617
7	328	630.682091864747	17.701550691168
7	337	652.09946073414	0
7	342	654.711139710773	0
7	355	686.391080063499	0
7	359	702.435029905981	0
7	362	711.955453553369	0
7	367	713.467904667874	0.91597000962
7	370	721.347548185523	0
7	387	739.812602447366	0
7	390	744.908658692014	0
7	403	772.705257103947	0
7	415	806.13012311482	0
7	421	811.858998937252	0
7	448	863.28509472209	0
7	451	871.052285086681	3.362291641021
7	454	876.537854406773	0
7	464	893.602110190585	0
7	467	901.844889125823	0
7	491	948.259548206261	0
7	530	1041.233624618206	0
7	540	1055.755977745646	0
7	545	1065.018720876321	0
7	555	1075.275228128681	0
7	558	1078.450599689527	0
7	561	1093.025662129838	0
7	570	1106.189148516697	0
7	587	1161.606097471778	0
7	590	1163.578442419488	0
7	605	1201.575345488697	0
7	608	1205.960188975024	0.745505321184
7	611	1209.940615756507	0.866297508432
7	616	1216.39044955247	0
7	623	1231.062298958818	0
7	628	1234.247326850965	0
7	635	1248.342184019664	0
7	642	1253.386172667756	0
7	646	1261.957583257431	0
7	654	1277.467176934737	0
7	659	1295.672031836634	16.735308944162
7	662	1306.576914852068	0
7	672	1323.736502562113	0
7	675	1334.919738381796	0
7	679	1345.193422541783	0
7	684	1347.404884195096	0
7	700	1395.880752839439	0
7	716	1423.878087902705	0
7	730	1456.975740307744	0
7	742	1475.209722097707	0
7	747	1486.00540600719	7.963101786871
7	750	1492.072091905328	0.688833411047
7	757	1516.479068035088	0
7	773	1590.50042477963	0
7	778	1599.013666144167	0
7	791	1631.434037847915	0
7	803	1650.493728198422	0
7	808	1660.227729792684	1.634253422765
7	815	1671.171230249188	5.798537600563
7	825	1681.278513467016	0
7	865	1766.04703695457	0
7	873	1773.520726651988	0
7	878	1785.390147897148	5.514479188879
7	879	1792.001974237164	10.839590622133
7	893	1815.390857124158	0
7	911	1862.080332632237	0
7	923	1880.381953975635	0
7	938	1919.782592244217	0
7	949	1945.274415883366	0
7	953	1965.142792458315	0
7	962	2029.457987501145	0
7	967	2034.339112489427	0
7	970	2036.288220455867	0
7	984	2052.514086448142	0
7	989	2064.672210610458	0
7	996	2067.889578882736	0.901765427329
7	1009	2109.822365075834	0
7	1013	2125.829693711752	0
7	1030	2149.756655770248	0
7	1039	2167.166571253802	0
7	1042	2174.916574713006	0
7	1049	2192.895363616005	0
7	1054	2201.892852908397	0
7	1073	2232.882083632135	0
7	1082	2259.340022759345	0
7	1093	2277.162737970621	0
7	1103	2296.648678655655	0
7	1106	2300.787940719272	2.212583077544
7	1111	2306.036157626711	2.535576105753
7	1116	2307.262137981784	0
7	1145	2388.40867807511	0
7	1166	2422.686534544323	0
7	1172	2432.913250480392	0
7	1175	2438.546595932053	0
7	1186	2463.754640204455	0
7	1189	2467.837102292445	0
7	1200	2475.119593842137	0
8	201	409.179299548067	22
8	237	466.758790014986	23
8	238	471.14139878444	24
8	243	476.80034841014	25
8	244	477.216547188258	26
8	249	481.911467398176	27
8	256	496.568489233706	28
8	274	524.695186582482	29
8	277	529.948966493401	30
8	280	530.404742230632	31
8	300	585.633062861438	32
8	304	589.291046578118	33
8	314	604.809226988995	34
8	319	611.411060835416	35
8	328	630.682091864747	36
8	329	634.010335517816	37
8	340	653.145866790984	38
8	345	665.24139864562	39
8	356	693.484958441409	40
8	360	709.465652130619	41
8	367	713.467904667874	42
8	368	718.445453066902	43
8	373	724.03073077115	44
8	388	742.174504146013	45
8	397	760.778511972695	46
8	404	777.165218759894	47
8	416	808.416684298991	48
8	424	818.543258927212	49
8	451	871.052285086681	50
8	452	875.585800000009	51
8	455	878.179553117658	52
8	465	894.087306542106	53
8	468	902.662004276399	54
8	492	950.832636915518	55
8	531	1041.44451433766	56
8	541	1060.210146668022	57
8	546	1066.215342964875	58
8	556	1075.888399507248	59
8	559	1092.572021112389	60
8	562	1095.482364438133	61
8	571	1107.521096547751	62
8	588	1161.914205782841	63
8	591	1163.591852468546	64
8	608	1205.960188975024	65
8	611	1209.940615756507	66
8	612	1210.852575969085	67
8	617	1216.563250460384	68
8	626	1233.201584058983	69
8	631	1235.931859359484	70
8	638	1251.082218503919	71
8	643	1254.202401710928	72
8	647	1263.392487308527	73
8	659	1295.672031836634	74
8	660	1303.01938573326	75
8	663	1313.802828723253	76
8	673	1327.743620223868	77
8	676	1338.96352290984	78
8	680	1345.326641896116	79
8	685	1362.893251167385	80
8	703	1403.250391302408	81
8	717	1425.838236534232	82
8	731	1457.46500367045	83
8	747	1486.00540600719	84
8	750	1492.072091905328	85
8	751	1497.563446135889	86
8	758	1520.811083770343	87
8	774	1592.512854278138	88
8	779	1603.585351937659	89
8	792	1637.288302633119	90
8	808	1660.227729792684	91
8	815	1671.171230249188	92
8	818	1675.176781741674	93
8	826	1687.74334643016	94
8	866	1766.476700394715	95
8	878	1785.390147897148	96
8	879	1792.001974237164	97
8	882	1794.529847177211	98
8	894	1819.207177912806	99
8	916	1869.611522023229	100
8	924	1882.475382486174	101
8	939	1923.761809683708	102
8	950	1948.464029512047	103
8	954	1974.490115709085	104
8	963	2030.71038189025	105
8	968	2034.736705888302	106
8	971	2037.259030082351	107
8	985	2052.710629075318	108
8	996	2067.889578882736	109
8	999	2071.745336997184	110
8	1010	2112.063475898159	111
8	1014	2129.925981476298	112
8	1033	2158.455521518229	113
8	1040	2168.397474440488	114
8	1043	2175.705695941591	115
8	1050	2193.974762641595	116
8	1059	2210.454891499997	117
8	1078	2249.555392469971	118
8	1083	2260.355924549867	119
8	1094	2279.954430712393	120
8	1106	2300.787940719272	121
8	1111	2306.036157626711	122
8	1114	2306.698605814369	123
8	1117	2308.107805870028	124
8	1148	2394.32820207234	125
8	1169	2427.66428535228	126
8	1173	2433.106776803457	127
8	1176	2441.35817226121	128
8	1187	2465.495576580593	129
8	1194	2471.075227956482	130
8	1201	2486.475874228053	131
9	201	409.179299548067	2.156248201555
9	237	466.758790014986	14.771927795415
9	238	471.14139878444	18.900144003021
9	243	476.80034841014	20.531194926118
9	244	477.216547188258	14.42846150137
9	249	481.911467398176	10.161291555648
9	256	496.568489233706	10.72953402049
9	274	524.695186582482	5.579250567723
9	277	529.948966493401	7.697004800869
9	280	530.404742230632	0.040073184707
9	300	585.633062861438	13.029301966666
9	304	589.291046578118	2.051583648209
9	314	604.809226988995	1.674276718387
9	319	611.411060835416	2.210170850171
9	328	630.682091864747	20.508138829948
9	329	634.010335517816	21.029794344237
9	340	653.145866790984	1.046406056844
9	345	665.24139864562	10.530258934847
9	356	693.484958441409	7.09387837791
9	360	709.465652130619	7.030622224638
9	367	713.467904667874	1.512451114505
9	368	718.445453066902	5.893518408648
9	373	724.03073077115	2.683182585627
9	388	742.174504146013	2.361901698647
9	397	760.778511972695	15.869853280681
9	404	777.165218759894	4.459961655947
9	416	808.416684298991	2.286561184171
9	424	818.543258927212	6.68425998996
9	451	871.052285086681	7.767190364591
9	452	875.585800000009	7.895806554349
9	455	878.179553117658	1.641698710885
9	465	894.087306542106	0.485196351521
9	468	902.662004276399	0.817115150576
9	492	950.832636915518	2.573088709257
9	531	1041.44451433766	0.210889719454
9	541	1060.210146668022	4.454168922376
9	546	1066.215342964875	1.196622088554
9	556	1075.888399507248	0.613171378567
9	559	1092.572021112389	14.121421422862
9	562	1095.482364438133	2.456702308295
9	571	1107.521096547751	1.331948031054
9	588	1161.914205782841	0.308108311063
9	591	1163.591852468546	0.013410049058
9	608	1205.960188975024	4.384843486327
9	611	1209.940615756507	4.725932102667
9	612	1210.852575969085	1.77825772101
9	617	1216.563250460384	0.172800907914
9	626	1233.201584058983	2.139285100165
9	631	1235.931859359484	1.684532508519
9	638	1251.082218503919	2.740034484255
9	643	1254.202401710928	0.816229043172
9	647	1263.392487308527	1.434904051096
9	659	1295.672031836634	18.204854901897
9	660	1303.01938573326	24.082662840788
9	663	1313.802828723253	7.225913871185
9	673	1327.743620223868	4.007117661755
9	676	1338.96352290984	4.043784528044
9	680	1345.326641896116	0.133219354333
9	685	1362.893251167385	15.488366972289
9	703	1403.250391302408	7.369638462969
9	717	1425.838236534232	1.960148631527
9	731	1457.46500367045	0.489263362706
9	747	1486.00540600719	10.795683909483
9	750	1492.072091905328	14.029787685009
9	751	1497.563446135889	6.180187641608
9	758	1520.811083770343	4.332015735255
9	774	1592.512854278138	2.012429498508
9	779	1603.585351937659	4.571685793492
9	792	1637.288302633119	5.854264785204
9	808	1660.227729792684	9.734001594262
9	815	1671.171230249188	12.577753879269
9	818	1675.176781741674	9.804089093049
9	826	1687.74334643016	6.464832963144
9	866	1766.476700394715	0.429663440145
9	878	1785.390147897148	11.86942124516
9	879	1792.001974237164	12.126305528895
9	882	1794.529847177211	13.36746356218
9	894	1819.207177912806	3.816320788648
9	916	1869.611522023229	7.531189390992
9	924	1882.475382486174	2.093428510539
9	939	1923.761809683708	3.979217439491
9	950	1948.464029512047	3.189613628681
9	954	1974.490115709085	9.34732325077
9	963	2030.71038189025	1.252394389105
9	968	2034.736705888302	0.397593398875
9	971	2037.259030082351	0.970809626484
9	985	2052.710629075318	0.196542627176
9	996	2067.889578882736	3.217368272278
9	999	2071.745336997184	4.757523541777
9	1010	2112.063475898159	2.241110822325
9	1014	2129.925981476298	4.096287764546
9	1033	2158.455521518229	8.698865747981
9	1040	2168.397474440488	1.230903186686
9	1043	2175.705695941591	0.789121228585
9	1050	2193.974762641595	1.07939902559
9	1059	2210.454891499997	8.5620385916
9	1078	2249.555392469971	16.673308837836
9	1083	2260.355924549867	1.015901790522
9	1094	2279.954430712393	2.791692741772
9	1106	2300.787940719272	4.139262063617
9	1111	2306.036157626711	7.460799984983
9	1114	2306.698605814369	3.198024293411
9	1117	2308.107805870028	0.845667888244
9	1148	2394.32820207234	5.91952399723
9	1169	2427.66428535228	4.977750807957
9	1173	2433.106776803457	0.193526323065
9	1176	2441.35817226121	2.811576329157
9	1187	2465.495576580593	1.740936376138
9	1194	2471.075227956482	3.238125664037
9	1201	2486.475874228053	11.356280385916
10	228	451.986862219571	17
10	251	485.838955213216	18
10	269	519.115936014759	19
10	279	530.364669045925	20
10	299	572.603760894772	21
10	303	587.239462929909	22
10	313	603.134950270608	23
10	316	609.200889985245	24
10	337	652.09946073414	25
10	342	654.711139710773	26
10	355	686.391080063499	27
10	359	702.435029905981	28
10	362	711.955453553369	29
10	370	721.347548185523	30
10	387	739.812602447366	31
10	390	744.908658692014	32
10	403	772.705257103947	33
10	415	806.13012311482	34
10	421	811.858998937252	35
10	448	863.28509472209	36
10	454	876.537854406773	37
10	540	1055.755977745646	38
10	545	1065.018720876321	39
10	555	1075.275228128681	40
10	558	1078.450599689527	41
10	561	1093.025662129838	42
10	570	1106.189148516697	43
10	616	1216.39044955247	44
10	628	1234.247326850965	45
10	642	1253.386172667756	46
10	646	1261.957583257431	47
10	654	1277.467176934737	48
10	662	1306.576914852068	49
10	672	1323.736502562113	50
10	675	1334.919738381796	51
10	679	1345.193422541783	52
10	684	1347.404884195096	53
10	700	1395.880752839439	54
10	730	1456.975740307744	55
10	742	1475.209722097707	56
10	757	1516.479068035088	57
10	773	1590.50042477963	58
10	778	1599.013666144167	59
10	825	1681.278513467016	60
10	865	1766.04703695457	61
10	873	1773.520726651988	62
10	893	1815.390857124158	63
10	949	1945.274415883366	64
10	967	2034.339112489427	65
10	970	2036.288220455867	66
10	984	2052.514086448142	67
10	1009	2109.822365075834	68
10	1030	2149.756655770248	69
10	1039	2167.166571253802	70
10	1042	2174.916574713006	71
10	1049	2192.895363616005	72
10	1054	2201.892852908397	73
10	1093	2277.162737970621	74
10	1116	2307.262137981784	75
10	1186	2463.754640204455	76
10	1189	2467.837102292445	77
10	1200	2475.119593842137	78
11	1210	2500	0.108
12	1210	2500	0.0524

