version 2
run experiments_medium_game_mode1-159-20230311-09:40:30-9468
attr configname experiments_medium_game_mode1
attr datetime 20230311-09:40:30
attr experiment experiments_medium_game_mode1
attr inifile omnetpp.ini
attr iterationvars "$0=5, $1=5, $2=100"
attr iterationvarsf 5,5,100-
attr measurement "$0=5, $1=5, $2=100"
attr network Network
attr processid 9468
attr repetition 9
attr replication #9
attr resultdir results
attr runnumber 159
attr seedset 9
param *.boss.arrival_mean 20
param *.boss.service_mean 5
param *.minion.arrival_mean 10
param *.minion.service_mean 5
param *.player.recover_rate_x 100
param **.minion.arrival_distribution 0
param **.minion.service_distribution 0
param **.boss.arrival_distribution 0
param **.boss.service_distribution 0

vector 0 Network.player boss_defeated_stat:vector ETV
attr source signal_boss_defeated
vector 1 Network.player boss_jobs_queue_number_stat:vector ETV
attr source signal_boss_jobs_queue_number
vector 2 Network.player boss_response_time_stat:vector ETV
attr source signal_boss_response_time
vector 3 Network.player minion_waiting_time_stat:vector ETV
attr source signal_minion_waiting_time
vector 4 Network.player minion_defeated_stat:vector ETV
attr source signal_minion_defeated
vector 5 Network.player minion_jobs_queue_number_stat:vector ETV
attr source signal_minion_jobs_queue_number
vector 6 Network.player minion_response_time_stat:vector ETV
attr source signal_minion_response_time
vector 7 Network.player minion_jobs_number_stat:vector ETV
attr source signal_minion_jobs_number
vector 8 Network.player boss_jobs_number_stat:vector ETV
attr source signal_boss_jobs_number
vector 9 Network.player minion_recovered_stat:vector ETV
attr source signal_minion_recovered
vector 10 Network.player boss_waiting_time_stat:vector ETV
attr source signal_boss_waiting_time
vector 11 Network.player minion_throughput:vector ETV
attr source signal_minion_throughput
vector 12 Network.player boss_throughput:vector ETV
attr source signal_boss_throughput
0	127	352.899554407909	10
0	137	370.634362612352	11
0	145	384.423513862534	12
0	152	389.368126797752	13
0	155	391.042518894509	14
0	161	402.737637913654	15
0	166	408.624733434725	16
0	173	413.632789909674	17
0	187	445.238448632288	18
0	192	458.363765344836	19
0	221	491.208080440856	20
0	228	499.658688536989	21
0	239	521.270872582878	22
0	247	543.494283183058	23
0	255	551.051250983652	24
0	271	575.530074032988	25
0	274	589.442913825198	26
0	285	629.52315569644	27
0	303	670.723578604228	28
0	308	679.461678147211	29
0	311	682.963612328661	30
0	323	712.060376766334	31
0	333	727.185718984706	32
0	338	743.445396081465	33
0	339	745.558100806863	34
0	351	763.98032056369	35
0	357	767.655560810221	36
0	365	783.857456469385	37
0	369	793.275163252091	38
0	386	835.572442706909	39
0	389	847.440130184786	40
0	408	906.478508643097	41
0	422	920.03996977754	42
0	442	967.036509870337	43
0	449	979.535164316384	44
0	452	985.903815938265	45
0	453	986.46870007259	46
0	460	988.338128105498	47
0	463	989.732085156356	48
0	479	1011.980761194574	49
0	503	1079.722224921605	50
0	536	1139.714634503136	51
0	537	1140.519433124107	52
0	561	1210.255137008759	53
0	569	1219.981616020391	54
0	573	1229.375264159423	55
0	590	1265.284747023638	56
0	605	1290.584198601872	57
0	612	1304.825625295174	58
0	623	1329.9478948362	59
0	632	1339.287136685094	60
0	635	1344.837227144822	61
0	638	1350.962116503219	62
0	649	1378.777783776844	63
0	655	1388.69537653517	64
0	665	1439.52300280655	65
0	674	1449.302335563521	66
0	686	1478.949636779415	67
0	687	1482.591348890473	68
0	690	1486.506196963334	69
0	691	1487.606741166596	70
0	694	1492.892517735359	71
0	695	1499.731031527247	72
0	700	1506.411747267074	73
0	707	1514.534036415429	74
0	725	1543.528964095949	75
0	734	1586.682487701251	76
0	735	1586.750745151043	77
0	740	1606.52284380874	78
0	745	1618.342886963525	79
0	748	1619.569815074006	80
0	752	1625.295518020935	81
0	773	1731.095008268191	82
0	786	1747.288749309338	83
0	805	1799.283103134452	84
0	806	1805.564066981363	85
0	807	1808.991297918914	86
0	813	1839.180607628581	87
0	816	1849.400137095483	88
0	822	1854.25901971666	89
0	833	1867.449406894151	90
0	834	1872.187826322763	91
0	838	1884.117033066116	92
0	841	1886.291952680363	93
0	858	1927.053008729046	94
0	891	2022.402802549828	95
0	903	2040.475181163112	96
0	906	2042.272974402751	97
0	925	2057.479208347455	98
0	930	2065.891790164587	99
0	934	2071.576242289692	100
0	941	2082.496666893199	101
0	957	2129.897164639974	102
0	964	2144.149389840911	103
0	967	2150.990240334434	104
0	968	2152.127239252624	105
0	983	2183.062835881011	106
0	997	2204.451148461155	107
0	1011	2226.298265108195	108
0	1014	2232.71509264011	109
0	1017	2236.032001334797	110
0	1020	2238.160191188217	111
0	1029	2264.653422187359	112
0	1030	2265.89077686342	113
0	1031	2267.996261033935	114
0	1040	2279.261371273158	115
0	1045	2288.855794517137	116
0	1053	2297.238460552483	117
0	1068	2333.859035614542	118
0	1080	2364.972667808299	119
0	1088	2370.595198959792	120
0	1093	2382.470085666083	121
0	1103	2426.353169317824	122
0	1109	2443.295380912286	123
0	1113	2460.672999301803	124
0	1119	2492.50969884862	125
1	127	352.899554407909	0
1	136	366.90674060042	0
1	137	370.634362612352	0
1	144	381.784833013177	0
1	145	384.423513862534	0
1	149	386.250875507134	0
1	152	389.368126797752	0
1	154	389.749122569849	0
1	155	391.042518894509	0
1	158	399.549588799422	0
1	160	402.504371015353	1
1	161	402.737637913654	1
1	165	408.499009690112	1
1	166	408.624733434725	1
1	173	413.632789909674	0
1	186	443.817232557662	0
1	187	445.238448632288	0
1	189	445.367973862082	0
1	192	458.363765344836	0
1	208	478.003471691353	0
1	216	484.600153220399	1
1	221	491.208080440856	1
1	228	499.658688536989	0
1	238	517.502141464979	0
1	239	521.270872582878	0
1	244	529.042666305749	0
1	247	543.494283183058	0
1	254	549.723407939261	0
1	255	551.051250983652	0
1	262	562.927292449865	0
1	271	575.530074032988	0
1	273	586.270515660759	0
1	274	589.442913825198	0
1	284	626.843884536897	0
1	285	629.52315569644	0
1	294	647.353795303353	0
1	298	662.438482297379	1
1	303	670.723578604228	1
1	308	679.461678147211	0
1	310	680.919630399863	0
1	311	682.963612328661	0
1	322	697.442376960556	0
1	323	712.060376766334	0
1	330	725.763040227324	0
1	333	727.185718984706	0
1	335	738.500469943368	0
1	337	739.177665474985	1
1	338	743.445396081465	1
1	339	745.558100806863	0
1	350	762.526755291277	0
1	351	763.98032056369	0
1	354	765.313687185756	0
1	357	767.655560810221	0
1	364	779.370713826155	0
1	365	783.857456469385	0
1	368	791.075455498199	0
1	369	793.275163252091	0
1	381	825.727435836351	0
1	386	835.572442706909	0
1	388	841.668238793278	0
1	389	847.440130184786	0
1	407	906.230180631313	0
1	408	906.478508643097	0
1	421	918.329453634844	0
1	422	920.03996977754	0
1	433	957.388344174164	0
1	435	957.723820241117	1
1	441	965.1212364791	2
1	442	967.036509870337	2
1	444	970.625671301786	2
1	449	979.535164316384	2
1	452	985.903815938265	1
1	453	986.46870007259	0
1	455	986.583432109771	0
1	457	987.393290059605	1
1	460	988.338128105498	1
1	463	989.732085156356	0
1	478	1008.65887140681	0
1	479	1011.980761194574	0
1	500	1070.155179727889	0
1	503	1079.722224921605	0
1	531	1130.416300279589	0
1	533	1132.048297238397	1
1	536	1139.714634503136	1
1	537	1140.519433124107	0
1	560	1205.642446634233	0
1	561	1210.255137008759	0
1	568	1216.616931884824	0
1	569	1219.981616020391	0
1	572	1228.520457625003	0
1	573	1229.375264159423	0
1	587	1254.734196931696	0
1	590	1265.284747023638	0
1	602	1286.850380159512	0
1	605	1290.584198601872	0
1	611	1302.844015444965	0
1	612	1304.825625295174	0
1	622	1328.909099580252	0
1	623	1329.9478948362	0
1	629	1337.388330083135	0
1	631	1339.233828183082	1
1	632	1339.287136685094	1
1	634	1343.29505004117	1
1	635	1344.837227144822	1
1	638	1350.962116503219	0
1	648	1374.799124051652	0
1	649	1378.777783776844	0
1	652	1387.35074829731	0
1	655	1388.69537653517	0
1	664	1438.672465126625	0
1	665	1439.52300280655	0
1	671	1446.386407934709	0
1	674	1449.302335563521	0
1	677	1465.471776737086	0
1	681	1472.526123282645	1
1	683	1477.260476761024	2
1	685	1478.758750500482	3
1	686	1478.949636779415	3
1	687	1482.591348890473	2
1	689	1484.290723402252	2
1	690	1486.506196963334	2
1	691	1487.606741166596	1
1	693	1490.187265864041	1
1	694	1492.892517735359	1
1	695	1499.731031527247	0
1	697	1500.847975289427	0
1	700	1506.411747267074	0
1	704	1508.857475936079	0
1	707	1514.534036415429	0
1	722	1534.984185702364	0
1	725	1543.528964095949	0
1	731	1584.596546818588	0
1	733	1584.900654196861	1
1	734	1586.682487701251	1
1	735	1586.750745151043	0
1	737	1604.854966012996	0
1	740	1606.52284380874	0
1	742	1608.92861649769	0
1	744	1610.735235706327	1
1	745	1618.342886963525	1
1	748	1619.569815074006	0
1	751	1622.440234149539	0
1	752	1625.295518020935	0
1	770	1725.797566812866	0
1	773	1731.095008268191	0
1	785	1744.043509672546	0
1	786	1747.288749309338	0
1	800	1790.574625413366	0
1	802	1793.295441535686	1
1	804	1796.601928198126	2
1	805	1799.283103134452	2
1	806	1805.564066981363	1
1	807	1808.991297918914	0
1	812	1830.0117169173	0
1	813	1839.180607628581	0
1	815	1848.743132659626	0
1	816	1849.400137095483	0
1	821	1853.658041950659	0
1	822	1854.25901971666	0
1	824	1855.784039861942	0
1	826	1857.679617678275	1
1	833	1867.449406894151	1
1	834	1872.187826322763	0
1	837	1882.457710465602	0
1	838	1884.117033066116	0
1	840	1885.04093721874	0
1	841	1886.291952680363	0
1	857	1925.63764088096	0
1	858	1927.053008729046	0
1	890	2022.200134446936	0
1	891	2022.402802549828	0
1	902	2032.794886553949	0
1	903	2040.475181163112	0
1	905	2040.625890296416	0
1	906	2042.272974402751	0
1	924	2053.878915809292	0
1	925	2057.479208347455	0
1	929	2064.153547375319	0
1	930	2065.891790164587	0
1	933	2068.750220991927	0
1	934	2071.576242289692	0
1	938	2081.78025563606	0
1	941	2082.496666893199	0
1	956	2126.915847722145	0
1	957	2129.897164639974	0
1	959	2137.731399979001	0
1	961	2139.643418030477	1
1	964	2144.149389840911	1
1	966	2146.629260054248	1
1	967	2150.990240334434	1
1	968	2152.127239252624	0
1	982	2179.771093233548	0
1	983	2183.062835881011	0
1	992	2196.627595088498	0
1	997	2204.451148461155	0
1	1006	2216.971440694834	0
1	1010	2226.000127713074	1
1	1011	2226.298265108195	1
1	1013	2228.447023846671	1
1	1014	2232.71509264011	1
1	1016	2234.20252635727	1
1	1017	2236.032001334797	1
1	1019	2237.414483346714	1
1	1020	2238.160191188217	1
1	1022	2249.077865559208	1
1	1028	2259.534430219018	2
1	1029	2264.653422187359	2
1	1030	2265.89077686342	1
1	1031	2267.996261033935	0
1	1039	2277.923741025562	0
1	1040	2279.261371273158	0
1	1044	2288.666116345938	0
1	1045	2288.855794517137	0
1	1052	2296.659481833168	0
1	1053	2297.238460552483	0
1	1067	2330.015315462675	0
1	1068	2333.859035614542	0
1	1073	2350.915731692075	0
1	1080	2364.972667808299	0
1	1087	2367.773846882979	0
1	1088	2370.595198959792	0
1	1092	2378.574598955318	0
1	1093	2382.470085666083	0
1	1102	2425.11642804679	0
1	1103	2426.353169317824	0
1	1106	2431.98697731575	0
1	1109	2443.295380912286	0
1	1112	2458.246234532336	0
1	1113	2460.672999301803	0
1	1118	2481.626538504285	0
1	1119	2492.50969884862	0
2	127	352.899554407909	4.618936049001
2	137	370.634362612352	3.727622011932
2	145	384.423513862534	2.638680849357
2	152	389.368126797752	3.117251290618
2	155	391.042518894509	1.29339632466
2	161	402.737637913654	3.188049114232
2	166	408.624733434725	6.120362419372
2	173	413.632789909674	5.133780219562
2	187	445.238448632288	1.421216074626
2	192	458.363765344836	12.995791482754
2	221	491.208080440856	13.204608749503
2	228	499.658688536989	15.05853531659
2	239	521.270872582878	3.768731117899
2	247	543.494283183058	14.451616877309
2	255	551.051250983652	1.327843044391
2	271	575.530074032988	12.602781583123
2	274	589.442913825198	3.172398164439
2	285	629.52315569644	2.679271159543
2	303	670.723578604228	23.369783300875
2	308	679.461678147211	17.023195849832
2	311	682.963612328661	2.043981928798
2	323	712.060376766334	14.617999805778
2	333	727.185718984706	1.422678757382
2	338	743.445396081465	4.944926138097
2	339	745.558100806863	6.380435331878
2	351	763.98032056369	1.453565272413
2	357	767.655560810221	2.341873624465
2	365	783.857456469385	4.48674264323
2	369	793.275163252091	2.199707753892
2	386	835.572442706909	9.845006870558
2	389	847.440130184786	5.771891391508
2	408	906.478508643097	0.248328011784
2	422	920.03996977754	1.710516142696
2	442	967.036509870337	9.648165696173
2	449	979.535164316384	21.811344075267
2	452	985.903815938265	20.782579459165
2	453	986.46870007259	15.843028770804
2	460	988.338128105498	1.754695995727
2	463	989.732085156356	2.338795096751
2	479	1011.980761194574	3.321889787764
2	503	1079.722224921605	9.567045193716
2	536	1139.714634503136	9.298334223547
2	537	1140.519433124107	8.47113588571
2	561	1210.255137008759	4.612690374526
2	569	1219.981616020391	3.364684135567
2	573	1229.375264159423	0.85480653442
2	590	1265.284747023638	10.550550091942
2	605	1290.584198601872	3.73381844236
2	612	1304.825625295174	1.981609850209
2	623	1329.9478948362	1.038795255948
2	632	1339.287136685094	1.898806601959
2	635	1344.837227144822	5.60339896174
2	638	1350.962116503219	7.667066462049
2	649	1378.777783776844	3.978659725192
2	655	1388.69537653517	1.34462823786
2	665	1439.52300280655	0.850537679925
2	674	1449.302335563521	2.915927628812
2	686	1478.949636779415	13.477860042329
2	687	1482.591348890473	10.065225607828
2	690	1486.506196963334	9.24572020231
2	691	1487.606741166596	8.847990666114
2	694	1492.892517735359	8.601794333107
2	695	1499.731031527247	9.543765663206
2	700	1506.411747267074	5.563771977647
2	707	1514.534036415429	5.67656047935
2	725	1543.528964095949	8.544778393585
2	734	1586.682487701251	2.085940882663
2	735	1586.750745151043	1.850090954182
2	740	1606.52284380874	1.667877795744
2	745	1618.342886963525	9.414270465835
2	748	1619.569815074006	8.834579367679
2	752	1625.295518020935	2.855283871396
2	773	1731.095008268191	5.297441455325
2	786	1747.288749309338	3.245239636792
2	805	1799.283103134452	8.708477721086
2	806	1805.564066981363	12.268625445677
2	807	1808.991297918914	12.389369720788
2	813	1839.180607628581	9.168890711281
2	816	1849.400137095483	0.657004435857
2	822	1854.25901971666	0.600977766001
2	833	1867.449406894151	11.665367032209
2	834	1872.187826322763	14.508208644488
2	838	1884.117033066116	1.659322600514
2	841	1886.291952680363	1.251015461623
2	858	1927.053008729046	1.415367848086
2	891	2022.402802549828	0.202668102892
2	903	2040.475181163112	7.680294609163
2	906	2042.272974402751	1.647084106335
2	925	2057.479208347455	3.600292538163
2	930	2065.891790164587	1.738242789268
2	934	2071.576242289692	2.826021297765
2	941	2082.496666893199	0.716411257139
2	957	2129.897164639974	2.981316917829
2	964	2144.149389840911	6.41798986191
2	967	2150.990240334434	11.346822303957
2	968	2152.127239252624	5.497979198376
2	983	2183.062835881011	3.291742647463
2	997	2204.451148461155	7.823553372657
2	1011	2226.298265108195	9.326824413361
2	1014	2232.71509264011	6.714964927036
2	1017	2236.032001334797	7.584977488126
2	1020	2238.160191188217	3.957664830947
2	1029	2264.653422187359	27.238938840645
2	1030	2265.89077686342	16.812911304212
2	1031	2267.996261033935	8.461830814917
2	1040	2279.261371273158	1.337630247596
2	1045	2288.855794517137	0.189678171199
2	1053	2297.238460552483	0.578978719315
2	1068	2333.859035614542	3.843720151867
2	1080	2364.972667808299	14.056936116224
2	1088	2370.595198959792	2.821352076813
2	1093	2382.470085666083	3.895486710765
2	1103	2426.353169317824	1.236741271034
2	1109	2443.295380912286	11.308403596536
2	1113	2460.672999301803	2.426764769467
2	1119	2492.50969884862	10.883160344335
3	127	352.899554407909	4.618936049001
3	128	354.911964978714	6.491270707191
3	131	359.443062281933	0.57324638344
3	134	363.575345481466	0
3	137	370.634362612352	3.727622011932
3	140	372.287979772552	0.392932950395
3	145	384.423513862534	6.500086585947
3	152	389.368126797752	7.583293784575
3	155	391.042518894509	6.243143765543
3	156	396.629665463949	10.378789956815
3	173	413.632789909674	26.008735385381
3	176	426.876653076632	37.127530506783
3	177	431.3971821958	31.847593396378
3	180	435.418500647296	31.707745386745
3	187	445.238448632288	35.363487542913
3	192	458.363765344836	47.277357756171
3	193	459.73019692127	46.28141309207
3	194	460.454239097369	37.794081646461
3	197	470.257528880694	36.483773069758
3	198	470.87984072382	34.345110925811
3	199	472.009230826991	29.46391189376
3	202	474.277715428638	30.460482870976
3	203	474.978702561799	29.610728699717
3	204	475.177842225114	23.677832838393
3	228	499.658688536989	39.17699986559
3	231	507.791884599145	35.461561447474
3	232	510.056942729303	33.766340497886
3	239	521.270872582878	43.267400891525
3	242	526.523121205694	44.94405513735
3	247	543.494283183058	59.379312336046
3	252	545.518953854203	61.111750417146
3	255	551.051250983652	64.215455796438
3	258	554.305712846718	63.786386554212
3	259	558.186926763515	65.783984828867
3	260	559.172706646988	62.839232036259
3	271	575.530074032988	78.967195685342
3	274	589.442913825198	88.743717092762
3	277	592.597719118616	81.981131045562
3	278	599.808354830268	83.405185972722
3	279	604.464398645205	86.962257180226
3	280	618.883552651079	94.900045959924
3	281	619.992153803435	90.949487497686
3	282	623.227362238803	82.119222309218
3	285	629.52315569644	85.625915354926
3	286	631.799212915467	86.552541753436
3	287	636.543135239519	86.819727300258
3	288	637.37309206645	84.685634479588
3	289	641.899626863627	78.972334413762
3	290	644.673709683026	77.864181808178
3	291	646.939939605023	78.216050126293
3	292	647.144540585972	77.845491818469
3	308	679.461678147211	105.97810224469
3	311	682.963612328661	96.693096667902
3	312	684.695585793627	95.096076923109
3	315	686.816301459004	59.972416922107
3	318	688.168784769317	40.814989465964
3	319	691.635817068179	38.95639802408
3	320	696.747843979108	32.897373856506
3	323	712.060376766334	45.564560749047
3	324	712.156989237241	37.978512342165
3	325	712.713320502829	38.277388950808
3	328	720.913795138938	39.994164739075
3	333	727.185718984706	41.313675384996
3	339	745.558100806863	58.052241825951
3	342	748.153168122999	50.710791162443
3	343	749.625643954009	30.450310022933
3	348	758.584601967516	32.821561740192
3	351	763.98032056369	38.204293364122
3	352	763.998372559999	25.497902616631
3	357	767.655560810221	19.975915380444
3	358	768.599812345325	16.554286716867
3	359	771.729437001264	16.092971372334
3	360	771.942720348767	9.41596505749
3	361	774.887383421233	9.573696235477
3	362	777.997699117773	12.15112930764
3	365	783.857456469385	4.48674264323
3	371	797.929656108619	0
3	374	812.530843378195	9.164029865793
3	377	822.021854249861	0
3	386	835.572442706909	11.480226954016
3	389	847.440130184786	21.712694348435
3	390	852.791490155623	26.921198172272
3	391	862.436892853556	32.231586230685
3	392	872.896676556448	31.22843776317
3	397	884.011890159135	7.515360557168
3	400	888.385101534138	5.306105875074
3	401	895.358233596102	11.244008603518
3	408	906.478508643097	6.168931219596
3	413	909.605915548615	6.919886995909
3	414	913.660490168407	7.430309537094
3	419	917.795754250843	9.954296157535
3	422	920.03996977754	11.81648601378
3	423	925.807359868775	11.82146337273
3	424	926.004814640846	10.493594872315
3	425	927.047540614295	8.718086979451
3	428	936.150174684048	0
3	431	957.350522892456	0
3	453	986.46870007259	29.080355898426
3	463	989.732085156356	30.194518781145
3	464	992.446932389651	31.431910840175
3	465	996.450835722652	22.6446647347
3	476	1008.108766635204	33.774985312104
3	479	1011.980761194574	26.247629798408
3	482	1026.497586544224	39.914154434453
3	483	1026.913713446693	39.495227319932
3	486	1037.716190191032	47.998245748942
3	491	1056.588646793529	59.95328559065
3	492	1061.962790597067	64.460813137227
3	495	1066.30832776948	65.693947035566
3	496	1067.801618354459	64.864078936499
3	503	1079.722224921605	76.582312224126
3	504	1081.520468805233	72.861597398423
3	505	1083.016087166045	59.562484512162
3	510	1087.441075803696	59.596970461997
3	511	1091.033264292328	50.567799475728
3	512	1093.045746880504	38.584919573684
3	513	1095.095291518349	29.619180701836
3	514	1098.319570475561	29.542619059947
3	521	1105.519778381712	35.364598653823
3	528	1123.736685824352	49.846832502635
3	529	1126.664182797471	40.4404846155
3	537	1140.519433124107	53.491181603292
3	538	1147.06697394982	46.755245114029
3	539	1149.846951446622	46.909825044218
3	540	1154.813246613246	51.517077897667
3	541	1155.880053325246	50.336745929929
3	544	1165.821164646217	46.590375669494
3	545	1165.929381231928	44.92978937887
3	546	1167.976981194528	37.560680914939
3	547	1169.800696318236	37.240523753283
3	552	1180.873791679399	18.913448274049
3	553	1186.741853243025	9.545855852083
3	556	1191.88081534911	11.799398874307
3	557	1194.592446681413	6.974781144051
3	563	1210.932903490067	0
3	566	1215.469320776207	0
3	569	1219.981616020391	3.364684135567
3	575	1230.212834470246	0
3	578	1231.567563007815	0
3	581	1235.080320368757	1.923371473389
3	584	1239.63087825766	1.692892329859
3	590	1265.284747023638	5.767947467014
3	597	1279.35019217639	8.809643517549
3	598	1282.010443368094	10.689644216098
3	605	1290.584198601872	16.330777241258
3	606	1291.529852022954	6.37706194921
3	609	1300.701778514649	13.851398355137
3	612	1304.825625295174	15.570021716423
3	613	1307.481968182336	8.22503477662
3	618	1320.469686660022	17.625671215057
3	623	1329.9478948362	17.498827620492
3	624	1332.720335289933	16.44083541913
3	627	1337.107520871203	9.312905612431
3	638	1350.962116503219	22.053016922967
3	639	1361.40486173286	27.618863879837
3	642	1364.028170568569	26.639840485434
3	643	1365.47693933029	17.093790606539
3	646	1368.545585259377	4.703443714046
3	649	1378.777783776844	10.964928252149
3	650	1379.747053701747	4.947929650095
3	655	1388.69537653517	1.34462823786
3	656	1400.195823855218	12.051208768542
3	659	1420.952007139121	0
3	662	1433.410097304958	0
3	665	1439.52300280655	0.850537679925
3	668	1441.499454043538	0
3	674	1449.302335563521	0.871559400084
3	695	1499.731031527247	32.631292247241
3	700	1506.411747267074	5.563771977647
3	707	1514.534036415429	13.267076347768
3	710	1522.134516694561	14.944322720471
3	711	1523.058802329151	14.201326393072
3	714	1525.233329658942	13.969670982508
3	715	1528.5539408105	8.319313397774
3	716	1530.09185205148	6.710355487832
3	719	1532.046695711085	1.366432388461
3	725	1543.528964095949	4.595672766859
3	728	1555.691787578848	0
3	740	1606.52284380874	0.817039141369
3	748	1619.569815074006	10.641198576316
3	749	1620.387747327476	1.371413688138
3	752	1625.295518020935	2.855283871396
3	755	1641.110894273024	0
3	760	1659.156260721308	12.546173258151
3	761	1662.030003064564	14.086770266764
3	766	1669.896734752134	7.066226557133
3	767	1670.256762601418	2.556882870011
3	773	1731.095008268191	4.03497368263
3	776	1732.575873732124	0
3	779	1740.131284095942	0
3	782	1742.088416458281	0
3	788	1754.713226187395	0
3	791	1758.057199375726	3.232007426067
3	794	1773.115304760274	0
3	797	1787.885383079952	0
3	809	1819.757551536556	0
3	818	1849.952015362654	0
3	834	1872.187826322763	12.217023898933
3	835	1881.501136100814	18.594257974192
3	838	1884.117033066116	21.166370204578
3	841	1886.291952680363	3.834242214761
3	842	1890.026925936106	4.985988717366
3	845	1895.294256602229	0
3	848	1898.255995949292	0
3	851	1913.119553731396	0
3	854	1916.947606572373	0
3	860	1934.945801855677	0
3	863	1944.800417032737	0
3	866	1957.582475281708	6.038743676692
3	869	1962.190647572055	0
3	872	1989.943338272855	0
3	875	1995.884336036208	0
3	878	2002.056261418425	1.592680513205
3	881	2004.267835654423	1.017642605938
3	884	2014.257045477032	3.349606005044
3	887	2017.303153012704	0.036909299726
3	893	2025.955543780031	0
3	900	2030.671700635974	4.421511381383
3	903	2040.475181163112	11.480237726526
3	906	2042.272974402751	13.067441002602
3	907	2042.573074142079	9.77818758813
3	908	2044.455887395843	3.829997099427
3	913	2045.844869294757	1.274888287783
3	920	2051.968767689751	6.3536698243
3	925	2057.479208347455	9.860881657249
3	930	2065.891790164587	18.216695413925
3	931	2067.912912428358	18.634405805885
3	934	2071.576242289692	19.555179108857
3	935	2075.832410994173	21.953495184881
3	936	2076.487028916031	14.553978452862
3	941	2082.496666893199	18.34311951788
3	942	2083.654961554068	14.904740562141
3	945	2084.70210102821	2.92184539215
3	946	2089.729850342051	7.76565098675
3	947	2094.702650064024	10.705574212705
3	950	2107.844581482129	0
3	953	2111.538694057014	0
3	968	2152.127239252624	8.425473865176
3	971	2162.923318210554	0
3	976	2168.536885251022	4.458867121335
3	977	2174.792341007154	9.826233583969
3	980	2177.139364210375	0
3	983	2183.062835881011	3.291742647463
3	986	2188.229923217893	2.257999819472
3	989	2191.429835718677	0.037183389482
3	997	2204.451148461155	3.861390998658
3	998	2207.991887017562	6.000885502548
3	1001	2210.81382373994	0
3	1004	2216.54883369492	0.880893975603
3	1031	2267.996261033935	51.024820339101
3	1034	2273.53492867312	50.749393302404
3	1035	2274.012366345418	24.918554487212
3	1036	2276.573137774864	24.363053561047
3	1037	2276.593732546085	5.741981381415
3	1040	2279.261371273158	1.337630247596
3	1045	2288.855794517137	4.789730237088
3	1048	2292.496360164775	3.830243818837
3	1053	2297.238460552483	8.123960277612
3	1056	2299.724794730215	6.970194614503
3	1057	2300.133282197801	3.473800364633
3	1058	2310.382390876393	12.505512433975
3	1061	2318.499190192059	4.639776468789
3	1064	2321.635916037201	2.019448496325
3	1070	2344.407621983521	0
3	1080	2364.972667808299	10.719082621466
3	1083	2366.315940112008	6.199402948978
3	1088	2370.595198959792	7.350256216076
3	1089	2372.362286351943	7.360492701806
3	1090	2373.250880331802	6.1660466013
3	1093	2382.470085666083	14.696238783104
3	1096	2390.528698863049	11.954099907731
3	1097	2405.373985917309	15.675497464299
3	1100	2423.939583483753	8.470348130726
3	1103	2426.353169317824	1.236741271034
3	1109	2443.295380912286	0.46262259202
3	1115	2470.443226876066	0
3	1121	2498.157739472885	0
4	128	354.911964978714	32
4	131	359.443062281933	33
4	132	359.944726436129	34
4	140	372.287979772552	35
4	156	396.629665463949	36
4	176	426.876653076632	37
4	177	431.3971821958	38
4	180	435.418500647296	39
4	193	459.73019692127	40
4	194	460.454239097369	41
4	197	470.257528880694	42
4	198	470.87984072382	43
4	199	472.009230826991	44
4	202	474.277715428638	45
4	203	474.978702561799	46
4	204	475.177842225114	47
4	231	507.791884599145	48
4	232	510.056942729303	49
4	242	526.523121205694	50
4	252	545.518953854203	51
4	258	554.305712846718	52
4	259	558.186926763515	53
4	260	559.172706646988	54
4	277	592.597719118616	55
4	278	599.808354830268	56
4	279	604.464398645205	57
4	280	618.883552651079	58
4	281	619.992153803435	59
4	282	623.227362238803	60
4	286	631.799212915467	61
4	287	636.543135239519	62
4	288	637.37309206645	63
4	289	641.899626863627	64
4	290	644.673709683026	65
4	291	646.939939605023	66
4	292	647.144540585972	67
4	312	684.695585793627	68
4	315	686.816301459004	69
4	318	688.168784769317	70
4	319	691.635817068179	71
4	320	696.747843979108	72
4	324	712.156989237241	73
4	325	712.713320502829	74
4	328	720.913795138938	75
4	342	748.153168122999	76
4	343	749.625643954009	77
4	348	758.584601967516	78
4	352	763.998372559999	79
4	358	768.599812345325	80
4	359	771.729437001264	81
4	360	771.942720348767	82
4	361	774.887383421233	83
4	362	777.997699117773	84
4	366	784.993330147683	85
4	374	812.530843378195	86
4	375	816.363729368868	87
4	390	852.791490155623	88
4	391	862.436892853556	89
4	392	872.896676556448	90
4	397	884.011890159135	91
4	400	888.385101534138	92
4	401	895.358233596102	93
4	413	909.605915548615	94
4	414	913.660490168407	95
4	419	917.795754250843	96
4	423	925.807359868775	97
4	424	926.004814640846	98
4	425	927.047540614295	99
4	426	933.086034819754	100
4	429	941.842680789369	101
4	464	992.446932389651	102
4	465	996.450835722652	103
4	476	1008.108766635204	104
4	482	1026.497586544224	105
4	483	1026.913713446693	106
4	486	1037.716190191032	107
4	491	1056.588646793529	108
4	492	1061.962790597067	109
4	495	1066.30832776948	110
4	496	1067.801618354459	111
4	504	1081.520468805233	112
4	505	1083.016087166045	113
4	510	1087.441075803696	114
4	511	1091.033264292328	115
4	512	1093.045746880504	116
4	513	1095.095291518349	117
4	514	1098.319570475561	118
4	521	1105.519778381712	119
4	528	1123.736685824352	120
4	529	1126.664182797471	121
4	538	1147.06697394982	122
4	539	1149.846951446622	123
4	540	1154.813246613246	124
4	541	1155.880053325246	125
4	544	1165.821164646217	126
4	545	1165.929381231928	127
4	546	1167.976981194528	128
4	547	1169.800696318236	129
4	552	1180.873791679399	130
4	553	1186.741853243025	131
4	556	1191.88081534911	132
4	557	1194.592446681413	133
4	558	1198.20858922569	134
4	564	1212.077847439403	135
4	570	1220.314567534526	136
4	576	1230.415040492244	137
4	581	1235.080320368757	138
4	584	1239.63087825766	139
4	585	1244.885585693124	140
4	597	1279.35019217639	141
4	598	1282.010443368094	142
4	606	1291.529852022954	143
4	609	1300.701778514649	144
4	613	1307.481968182336	145
4	618	1320.469686660022	146
4	624	1332.720335289933	147
4	627	1337.107520871203	148
4	639	1361.40486173286	149
4	642	1364.028170568569	150
4	643	1365.47693933029	151
4	646	1368.545585259377	152
4	650	1379.747053701747	153
4	656	1400.195823855218	154
4	657	1400.566049563707	155
4	660	1424.837276741883	156
4	666	1440.57243424658	157
4	669	1443.61074667329	158
4	675	1452.486193230989	159
4	710	1522.134516694561	160
4	711	1523.058802329151	161
4	714	1525.233329658942	162
4	715	1528.5539408105	163
4	716	1530.09185205148	164
4	719	1532.046695711085	165
4	720	1533.886308289093	166
4	726	1544.268271281434	167
4	729	1564.32082350631	168
4	749	1620.387747327476	169
4	753	1626.156149786413	170
4	760	1659.156260721308	171
4	761	1662.030003064564	172
4	766	1669.896734752134	173
4	767	1670.256762601418	174
4	768	1672.232979643717	175
4	774	1731.887766294319	176
4	777	1733.134190519889	177
4	780	1740.702191886331	178
4	783	1743.331020695634	179
4	791	1758.057199375726	180
4	792	1763.520557828644	181
4	795	1773.906075940049	182
4	798	1788.958682292379	183
4	810	1820.385007641527	184
4	819	1850.601532103562	185
4	835	1881.501136100814	186
4	842	1890.026925936106	187
4	843	1893.121845321724	188
4	846	1897.094409816257	189
4	849	1900.447071077888	190
4	852	1915.440128375008	191
4	855	1917.683089457445	192
4	861	1939.740508265728	193
4	866	1957.582475281708	194
4	867	1961.584852372065	195
4	870	1977.757207296999	196
4	873	1992.556503886501	197
4	878	2002.056261418425	198
4	881	2004.267835654423	199
4	884	2014.257045477032	200
4	887	2017.303153012704	201
4	888	2020.173724711002	202
4	900	2030.671700635974	203
4	907	2042.573074142079	204
4	908	2044.455887395843	205
4	913	2045.844869294757	206
4	920	2051.968767689751	207
4	931	2067.912912428358	208
4	935	2075.832410994173	209
4	936	2076.487028916031	210
4	942	2083.654961554068	211
4	945	2084.70210102821	212
4	946	2089.729850342051	213
4	947	2094.702650064024	214
4	948	2100.55762589512	215
4	951	2109.748021626629	216
4	954	2120.639139958416	217
4	969	2157.736548515413	218
4	976	2168.536885251022	219
4	977	2174.792341007154	220
4	978	2175.741688056251	221
4	986	2188.229923217893	222
4	989	2191.429835718677	223
4	990	2191.890529063631	224
4	998	2207.991887017562	225
4	999	2208.851397165204	226
4	1004	2216.54883369492	227
4	1034	2273.53492867312	228
4	1035	2274.012366345418	229
4	1036	2276.573137774864	230
4	1037	2276.593732546085	231
4	1048	2292.496360164775	232
4	1056	2299.724794730215	233
4	1057	2300.133282197801	234
4	1058	2310.382390876393	235
4	1061	2318.499190192059	236
4	1064	2321.635916037201	237
4	1065	2323.487134092408	238
4	1071	2344.533267347934	239
4	1083	2366.315940112008	240
4	1089	2372.362286351943	241
4	1090	2373.250880331802	242
4	1096	2390.528698863049	243
4	1097	2405.373985917309	244
4	1100	2423.939583483753	245
4	1104	2430.467757054724	246
4	1110	2456.176888060771	247
4	1116	2479.27552936794	248
5	128	354.911964978714	1
5	130	358.869815898493	1
5	131	359.443062281933	1
5	132	359.944726436129	0
5	134	363.575345481466	0
5	139	371.895046822157	1
5	140	372.287979772552	1
5	142	377.923427276587	1
5	147	384.799375128966	2
5	151	387.624054524293	3
5	156	396.629665463949	3
5	163	403.710755260551	3
5	168	409.874961089375	4
5	170	411.086407588665	5
5	172	413.4487838292	6
5	175	422.660157450908	7
5	176	426.876653076632	7
5	177	431.3971821958	6
5	179	433.773755810936	6
5	180	435.418500647296	6
5	182	436.534729798009	6
5	184	442.545318933231	7
5	191	451.500009386721	8
5	193	459.73019692127	8
5	194	460.454239097369	7
5	196	460.481688671399	7
5	197	470.257528880694	7
5	198	470.87984072382	6
5	199	472.009230826991	5
5	201	472.330323151671	5
5	202	474.277715428638	5
5	203	474.978702561799	4
5	204	475.177842225114	3
5	206	476.290602231417	3
5	210	481.579066068344	4
5	212	484.114970847012	5
5	214	484.407203437057	6
5	218	486.835795187214	7
5	220	490.519326292506	8
5	223	492.402941934648	9
5	225	496.333474610729	10
5	227	496.562878347646	11
5	230	500.699196732436	12
5	231	507.791884599145	12
5	232	510.056942729303	11
5	234	510.616588073054	11
5	236	516.403168857546	12
5	241	523.983506691155	13
5	242	526.523121205694	13
5	246	541.108139929585	13
5	249	543.897240341514	14
5	251	545.246671162031	15
5	252	545.518953854203	15
5	257	552.687457586862	15
5	258	554.305712846718	15
5	259	558.186926763515	14
5	260	559.172706646988	13
5	264	566.809527874848	13
5	266	568.72388947873	14
5	268	569.299048767503	15
5	270	573.483575902518	16
5	276	589.599508870518	17
5	277	592.597719118616	17
5	278	599.808354830268	16
5	279	604.464398645205	15
5	280	618.883552651079	14
5	281	619.992153803435	13
5	282	623.227362238803	12
5	286	631.799212915467	11
5	287	636.543135239519	10
5	288	637.37309206645	9
5	289	641.899626863627	8
5	290	644.673709683026	7
5	291	646.939939605023	6
5	292	647.144540585972	5
5	296	652.679419044099	5
5	300	663.850470122602	6
5	302	666.495816017287	7
5	305	674.178476895076	8
5	307	674.435931552021	9
5	312	684.695585793627	9
5	314	685.87204359971	9
5	315	686.816301459004	9
5	317	687.505858980912	9
5	318	688.168784769317	9
5	319	691.635817068179	8
5	320	696.747843979108	7
5	324	712.156989237241	6
5	325	712.713320502829	5
5	327	719.175333931076	5
5	328	720.913795138938	5
5	332	725.776027199568	5
5	341	747.679645429777	6
5	342	748.153168122999	6
5	343	749.625643954009	5
5	345	752.045525628458	5
5	347	755.63646562893	6
5	348	758.584601967516	6
5	352	763.998372559999	5
5	356	765.846569810133	5
5	358	768.599812345325	5
5	359	771.729437001264	4
5	360	771.942720348767	3
5	361	774.887383421233	2
5	362	777.997699117773	1
5	366	784.993330147683	0
5	371	797.929656108619	0
5	373	803.366813512402	1
5	374	812.530843378195	1
5	375	816.363729368868	0
5	377	822.021854249861	0
5	379	824.092215752893	1
5	383	825.870291983351	2
5	385	830.205306622871	3
5	390	852.791490155623	3
5	391	862.436892853556	2
5	392	872.896676556448	1
5	394	876.496529601967	1
5	396	883.078995659064	2
5	397	884.011890159135	2
5	399	884.114224992584	2
5	400	888.385101534138	2
5	401	895.358233596102	1
5	403	900.309577423501	1
5	405	902.686028552706	2
5	410	907.841458093308	3
5	412	908.22348376376	4
5	413	909.605915548615	4
5	414	913.660490168407	3
5	416	913.985896496045	3
5	418	915.511219768531	4
5	419	917.795754250843	4
5	423	925.807359868775	3
5	424	926.004814640846	2
5	425	927.047540614295	1
5	426	933.086034819754	0
5	428	936.150174684048	0
5	429	941.842680789369	0
5	431	957.350522892456	0
5	437	959.537566375211	1
5	439	961.015021549476	2
5	446	973.806170987952	3
5	448	974.3337813231	4
5	451	985.733131396166	5
5	459	987.418486126761	6
5	462	989.71794444209	7
5	464	992.446932389651	7
5	465	996.450835722652	6
5	467	996.635361202879	6
5	469	997.50197745984	7
5	471	1000.614380733914	8
5	473	1002.93753941796	9
5	475	1003.139912697479	10
5	476	1008.108766635204	10
5	481	1023.453602653883	10
5	482	1026.497586544224	10
5	483	1026.913713446693	9
5	485	1027.844105341699	9
5	486	1037.716190191032	9
5	488	1040.4654648166	9
5	490	1054.46082730682	10
5	491	1056.588646793529	10
5	492	1061.962790597067	9
5	494	1065.476110816513	9
5	495	1066.30832776948	9
5	496	1067.801618354459	8
5	498	1068.776951415614	8
5	502	1073.889853321717	9
5	504	1081.520468805233	9
5	505	1083.016087166045	8
5	507	1086.223698181971	8
5	509	1087.028251520815	9
5	510	1087.441075803696	9
5	511	1091.033264292328	8
5	512	1093.045746880504	7
5	513	1095.095291518349	6
5	514	1098.319570475561	5
5	516	1100.311728835791	5
5	518	1102.937126402404	6
5	520	1103.296168715579	7
5	521	1105.519778381712	7
5	523	1105.543307395317	7
5	525	1119.230788976723	8
5	527	1120.999591853058	9
5	528	1123.736685824352	9
5	529	1126.664182797471	8
5	535	1132.560172564953	8
5	538	1147.06697394982	8
5	539	1149.846951446622	7
5	540	1154.813246613246	6
5	541	1155.880053325246	5
5	543	1161.96034340535	5
5	544	1165.821164646217	5
5	545	1165.929381231928	4
5	546	1167.976981194528	3
5	547	1169.800696318236	2
5	549	1177.195997390942	2
5	551	1180.081416474803	3
5	552	1180.873791679399	3
5	553	1186.741853243025	2
5	555	1187.617665537362	2
5	556	1191.88081534911	2
5	557	1194.592446681413	1
5	558	1198.20858922569	0
5	563	1210.932903490067	0
5	564	1212.077847439403	0
5	566	1215.469320776207	0
5	570	1220.314567534526	0
5	575	1230.212834470246	0
5	576	1230.415040492244	0
5	578	1231.567563007815	0
5	580	1233.156948895368	1
5	581	1235.080320368757	1
5	583	1237.937985927801	1
5	584	1239.63087825766	1
5	585	1244.885585693124	0
5	589	1259.516799556624	0
5	592	1270.540548658841	1
5	594	1271.320799151996	2
5	596	1274.253421360614	3
5	597	1279.35019217639	3
5	598	1282.010443368094	2
5	600	1285.152790073744	2
5	604	1289.255603578751	3
5	606	1291.529852022954	3
5	608	1299.256933405716	3
5	609	1300.701778514649	3
5	613	1307.481968182336	2
5	615	1312.449067215708	2
5	617	1316.279499870803	3
5	618	1320.469686660022	3
5	620	1327.794615258772	3
5	624	1332.720335289933	3
5	626	1333.785997853023	3
5	627	1337.107520871203	3
5	637	1348.383148723751	3
5	639	1361.40486173286	3
5	641	1363.842141545331	3
5	642	1364.028170568569	3
5	643	1365.47693933029	2
5	645	1367.812855524695	2
5	646	1368.545585259377	2
5	650	1379.747053701747	1
5	654	1388.144615086676	1
5	656	1400.195823855218	1
5	657	1400.566049563707	0
5	659	1420.952007139121	0
5	660	1424.837276741883	0
5	662	1433.410097304958	0
5	666	1440.57243424658	0
5	668	1441.499454043538	0
5	669	1443.61074667329	0
5	673	1448.430776163437	0
5	675	1452.486193230989	0
5	679	1467.099739280006	0
5	699	1501.266960067661	1
5	702	1507.19019397409	2
5	706	1511.263658676434	3
5	709	1520.234627412726	4
5	710	1522.134516694561	4
5	711	1523.058802329151	3
5	713	1523.381496563648	3
5	714	1525.233329658942	3
5	715	1528.5539408105	2
5	716	1530.09185205148	1
5	718	1530.680263322624	1
5	719	1532.046695711085	1
5	720	1533.886308289093	0
5	724	1538.93329132909	0
5	726	1544.268271281434	0
5	728	1555.691787578848	0
5	729	1564.32082350631	0
5	739	1605.705804667371	0
5	747	1619.016333639338	1
5	749	1620.387747327476	1
5	753	1626.156149786413	0
5	755	1641.110894273024	0
5	757	1646.610087463157	1
5	759	1647.9432327978	2
5	760	1659.156260721308	2
5	761	1662.030003064564	1
5	763	1662.830508195001	1
5	765	1667.699879731407	2
5	766	1669.896734752134	2
5	767	1670.256762601418	1
5	768	1672.232979643717	0
5	772	1727.060034585561	0
5	774	1731.887766294319	0
5	776	1732.575873732124	0
5	777	1733.134190519889	0
5	779	1740.131284095942	0
5	780	1740.702191886331	0
5	782	1742.088416458281	0
5	783	1743.331020695634	0
5	788	1754.713226187395	0
5	790	1754.825191949659	1
5	791	1758.057199375726	1
5	792	1763.520557828644	0
5	794	1773.115304760274	0
5	795	1773.906075940049	0
5	797	1787.885383079952	0
5	798	1788.958682292379	0
5	809	1819.757551536556	0
5	810	1820.385007641527	0
5	818	1849.952015362654	0
5	819	1850.601532103562	0
5	828	1859.97080242383	0
5	830	1862.906878126622	1
5	832	1862.950662861538	2
5	835	1881.501136100814	2
5	842	1890.026925936106	1
5	843	1893.121845321724	0
5	845	1895.294256602229	0
5	846	1897.094409816257	0
5	848	1898.255995949292	0
5	849	1900.447071077888	0
5	851	1913.119553731396	0
5	852	1915.440128375008	0
5	854	1916.947606572373	0
5	855	1917.683089457445	0
5	860	1934.945801855677	0
5	861	1939.740508265728	0
5	863	1944.800417032737	0
5	865	1951.543731605016	1
5	866	1957.582475281708	1
5	867	1961.584852372065	0
5	869	1962.190647572055	0
5	870	1977.757207296999	0
5	872	1989.943338272855	0
5	873	1992.556503886501	0
5	875	1995.884336036208	0
5	877	2000.46358090522	1
5	878	2002.056261418425	1
5	880	2003.250193048485	1
5	881	2004.267835654423	1
5	883	2010.907439471988	1
5	884	2014.257045477032	1
5	886	2017.266243712978	1
5	887	2017.303153012704	1
5	888	2020.173724711002	0
5	893	2025.955543780031	0
5	895	2026.250189254591	1
5	897	2028.994943436586	2
5	899	2029.205533400149	3
5	900	2030.671700635974	3
5	907	2042.573074142079	2
5	908	2044.455887395843	1
5	910	2044.569981006974	1
5	912	2045.615097865451	2
5	913	2045.844869294757	2
5	915	2047.618326690206	2
5	917	2047.675094750662	3
5	919	2049.278506622473	4
5	920	2051.968767689751	4
5	922	2052.021063180835	4
5	927	2061.933050463169	5
5	931	2067.912912428358	5
5	935	2075.832410994173	4
5	936	2076.487028916031	3
5	940	2081.964199355301	3
5	942	2083.654961554068	3
5	944	2083.997075851319	3
5	945	2084.70210102821	3
5	946	2089.729850342051	2
5	947	2094.702650064024	1
5	948	2100.55762589512	0
5	950	2107.844581482129	0
5	951	2109.748021626629	0
5	953	2111.538694057014	0
5	954	2120.639139958416	0
5	963	2143.701765387448	0
5	969	2157.736548515413	0
5	971	2162.923318210554	0
5	973	2164.078018129687	1
5	975	2164.966107423185	2
5	976	2168.536885251022	2
5	977	2174.792341007154	1
5	978	2175.741688056251	0
5	980	2177.139364210375	0
5	985	2185.971923398421	1
5	986	2188.229923217893	1
5	988	2191.392652329195	1
5	989	2191.429835718677	1
5	990	2191.890529063631	0
5	994	2200.589757462497	0
5	996	2201.991001515014	1
5	998	2207.991887017562	1
5	999	2208.851397165204	0
5	1001	2210.81382373994	0
5	1003	2215.667939719317	1
5	1004	2216.54883369492	1
5	1008	2222.785535370716	1
5	1024	2249.093811858206	2
5	1026	2252.210084213817	3
5	1033	2270.85175116467	4
5	1034	2273.53492867312	4
5	1035	2274.012366345418	3
5	1036	2276.573137774864	2
5	1037	2276.593732546085	1
5	1042	2284.066064280049	1
5	1047	2289.114500274871	2
5	1048	2292.496360164775	2
5	1050	2292.754600115712	2
5	1055	2297.876878442418	3
5	1056	2299.724794730215	3
5	1057	2300.133282197801	2
5	1058	2310.382390876393	1
5	1060	2313.85941372327	1
5	1061	2318.499190192059	1
5	1063	2319.616467540876	1
5	1064	2321.635916037201	1
5	1065	2323.487134092408	0
5	1070	2344.407621983521	0
5	1071	2344.533267347934	0
5	1075	2354.253585186833	0
5	1077	2360.11653716303	1
5	1079	2363.244942743716	2
5	1082	2365.001793650137	3
5	1083	2366.315940112008	3
5	1085	2367.084833730502	3
5	1089	2372.362286351943	3
5	1090	2373.250880331802	2
5	1095	2389.69848845301	2
5	1096	2390.528698863049	2
5	1097	2405.373985917309	1
5	1099	2415.469235353027	1
5	1100	2423.939583483753	1
5	1104	2430.467757054724	0
5	1108	2442.832758320266	0
5	1110	2456.176888060771	0
5	1115	2470.443226876066	0
5	1116	2479.27552936794	0
5	1121	2498.157739472885	0
6	128	354.911964978714	6.631346619806
6	131	359.443062281933	11.02236801041
6	132	359.944726436129	1.074910537636
6	140	372.287979772552	5.381239172132
6	156	396.629665463949	11.830290334983
6	176	426.876653076632	39.252598552339
6	177	431.3971821958	41.648059625951
6	180	435.418500647296	35.868911847874
6	193	459.73019692127	48.643789332605
6	194	460.454239097369	47.005455268169
6	197	470.257528880694	47.597371429786
6	198	470.87984072382	37.106084912884
6	199	472.009230826991	35.474501028982
6	202	474.277715428638	31.732396495407
6	203	474.978702561799	31.161470004137
6	204	475.177842225114	29.809868363032
6	231	507.791884599145	47.310195927746
6	232	510.056942729303	37.726619577632
6	242	526.523121205694	48.519649514341
6	252	545.518953854203	61.403983007191
6	258	554.305712846718	67.469917659504
6	259	558.186926763515	67.667600471009
6	260	559.172706646988	66.76976471234
6	277	592.597719118616	91.89852238618
6	278	599.808354830268	89.191766757214
6	279	604.464398645205	88.061229787659
6	280	618.883552651079	101.3814111861
6	281	619.992153803435	96.00864711228
6	282	623.227362238803	94.184695933054
6	286	631.799212915467	87.901972573953
6	287	636.543135239519	91.296464077488
6	288	637.37309206645	87.649684127189
6	289	641.899626863627	89.212169276765
6	290	644.673709683026	81.746417233161
6	291	646.939939605023	80.130411730175
6	292	647.144540585972	78.420651107242
6	312	684.695585793627	98.425070132868
6	315	686.816301459004	97.216792588486
6	318	688.168784769317	61.32490023242
6	319	691.635817068179	44.282021764826
6	320	696.747843979108	44.068424935009
6	324	712.156989237241	45.661173219954
6	325	712.713320502829	38.534843607753
6	328	720.913795138938	46.477863586917
6	342	748.153168122999	60.647309142087
6	343	749.625643954009	52.183266993453
6	348	758.584601967516	39.40926803644
6	352	763.998372559999	38.222345360431
6	358	768.599812345325	20.920166915548
6	359	771.729437001264	19.683911372806
6	360	771.942720348767	16.306254719837
6	361	774.887383421233	12.360628129956
6	362	777.997699117773	12.684011932017
6	366	784.993330147683	5.622616321528
6	374	812.530843378195	14.601187269576
6	375	816.363729368868	12.996915856466
6	390	852.791490155623	27.064054319272
6	391	862.436892853556	36.566600870205
6	392	872.896676556448	42.691369933577
6	397	884.011890159135	42.343651365857
6	400	888.385101534138	11.888571932171
6	401	895.358233596102	12.279237937038
6	413	909.605915548615	9.296338125114
6	414	913.660490168407	10.974461615701
6	419	917.795754250843	11.56557361953
6	423	925.807359868775	17.583876105015
6	424	926.004814640846	12.018918144801
6	425	927.047540614295	11.536320845764
6	426	933.086034819754	14.75658118491
6	429	941.842680789369	5.692506105321
6	464	992.446932389651	32.90936601444
6	465	996.450835722652	35.435814173176
6	476	1008.108766635204	34.302595647252
6	482	1026.497586544224	40.764455148058
6	483	1026.913713446693	40.330281336922
6	486	1037.716190191032	50.297704064271
6	491	1056.588646793529	66.870702351439
6	492	1061.962790597067	65.327429394188
6	495	1066.30832776948	68.80635030964
6	496	1067.801618354459	67.187237620545
6	504	1081.520468805233	78.380556107754
6	505	1083.016087166045	74.357215759235
6	510	1087.441075803696	63.987473149813
6	511	1091.033264292328	63.189158950629
6	512	1093.045746880504	52.580282063904
6	513	1095.095291518349	40.634464211529
6	514	1098.319570475561	32.843459659048
6	521	1105.519778381712	36.742826966098
6	528	1123.736685824352	53.581506096463
6	529	1126.664182797471	52.774329475754
6	538	1147.06697394982	60.038722429005
6	539	1149.846951446622	49.535222610831
6	540	1154.813246613246	51.876120210842
6	541	1155.880053325246	52.583884609667
6	544	1165.821164646217	60.2778572509
6	545	1165.929381231928	46.698592255205
6	546	1167.976981194528	46.97738934147
6	547	1169.800696318236	39.384396038647
6	552	1180.873791679399	48.313619114446
6	553	1186.741853243025	24.781509837675
6	556	1191.88081534911	14.684817958168
6	557	1194.592446681413	14.51103020661
6	558	1198.20858922569	10.590923688328
6	564	1212.077847439403	1.144943949336
6	570	1220.314567534526	3.697635649702
6	576	1230.415040492244	0.202206021998
6	581	1235.080320368757	3.512757360942
6	584	1239.63087825766	6.473929362292
6	585	1244.885585693124	6.947599765323
6	597	1279.35019217639	19.833392619766
6	598	1282.010443368094	11.469894709253
6	606	1291.529852022954	17.27643066234
6	609	1300.701778514649	15.548988440905
6	613	1307.481968182336	18.226364603585
6	618	1320.469686660022	21.212753254306
6	624	1332.720335289933	20.271268074225
6	627	1337.107520871203	20.8280210004
6	639	1361.40486173286	32.495762152608
6	642	1364.028170568569	30.242172715546
6	643	1365.47693933029	28.088609247155
6	646	1368.545585259377	20.162436535626
6	650	1379.747053701747	11.934198177052
6	656	1400.195823855218	12.845075557908
6	657	1400.566049563707	12.421434477031
6	660	1424.837276741883	3.885269602762
6	666	1440.57243424658	1.899969119955
6	669	1443.61074667329	2.111292629752
6	675	1452.486193230989	4.055417067552
6	710	1522.134516694561	20.8675566269
6	711	1523.058802329151	15.868608355061
6	714	1525.233329658942	16.375853722863
6	715	1528.5539408105	17.290282134066
6	716	1530.09185205148	9.857224638754
6	719	1532.046695711085	8.665199147437
6	720	1533.886308289093	3.206044966469
6	726	1544.268271281434	5.334979952344
6	729	1564.32082350631	8.629035927462
6	749	1620.387747327476	11.459130829786
6	753	1626.156149786413	3.715915636874
6	760	1659.156260721308	18.045366448284
6	761	1662.030003064564	15.419915601407
6	766	1669.896734752134	21.953501954334
6	767	1670.256762601418	7.426254406417
6	768	1672.232979643717	4.53309991231
6	774	1731.887766294319	4.827731708758
6	777	1733.134190519889	0.558316787765
6	780	1740.702191886331	0.570907790389
6	783	1743.331020695634	1.242604237353
6	791	1758.057199375726	3.343973188331
6	792	1763.520557828644	8.695365878985
6	795	1773.906075940049	0.790771179775
6	798	1788.958682292379	1.073299212427
6	810	1820.385007641527	0.627456104971
6	819	1850.601532103562	0.649516740908
6	835	1881.501136100814	21.530333676984
6	842	1890.026925936106	7.569215470504
6	843	1893.121845321724	8.080908102984
6	846	1897.094409816257	1.800153214028
6	849	1900.447071077888	2.191075128596
6	852	1915.440128375008	2.320574643612
6	855	1917.683089457445	0.735482885072
6	861	1939.740508265728	4.794706410051
6	866	1957.582475281708	12.782058248971
6	867	1961.584852372065	10.041120767049
6	870	1977.757207296999	15.566559724944
6	873	1992.556503886501	2.613165613646
6	878	2002.056261418425	6.171925382217
6	881	2004.267835654423	3.804254749203
6	884	2014.257045477032	11.006852428547
6	887	2017.303153012704	6.395713540716
6	888	2020.173724711002	2.907480998024
6	900	2030.671700635974	4.716156855943
6	907	2042.573074142079	13.36754074193
6	908	2044.455887395843	11.661000841894
6	913	2045.844869294757	5.218978998341
6	920	2051.968767689751	7.398786682777
6	931	2067.912912428358	20.237817677696
6	935	2075.832410994173	23.811347813338
6	936	2076.487028916031	22.608113106739
6	942	2083.654961554068	19.501414178749
6	945	2084.70210102821	15.951880036283
6	946	2089.729850342051	7.949594705991
6	947	2094.702650064024	12.738450708723
6	948	2100.55762589512	16.560550043801
6	951	2109.748021626629	1.9034401445
6	954	2120.639139958416	9.100445901402
6	969	2157.736548515413	14.034783127965
6	976	2168.536885251022	5.613567040468
6	977	2174.792341007154	10.714322877467
6	978	2175.741688056251	10.775580633066
6	986	2188.229923217893	8.458829984345
6	989	2191.429835718677	5.457912320256
6	990	2191.890529063631	0.497876734436
6	998	2207.991887017562	7.402129555065
6	999	2208.851397165204	6.86039565019
6	1004	2216.54883369492	5.73500995498
6	1034	2273.53492867312	56.563487978286
6	1035	2274.012366345418	51.226830974702
6	1036	2276.573137774864	27.479325916658
6	1037	2276.593732546085	24.383648332268
6	1048	2292.496360164775	8.430295884726
6	1056	2299.724794730215	10.610294455344
6	1057	2300.133282197801	7.378682082089
6	1058	2310.382390876393	13.722909043225
6	1061	2318.499190192059	20.622311749641
6	1064	2321.635916037201	7.776502313931
6	1065	2323.487134092408	3.870666551532
6	1071	2344.533267347934	0.125645364413
6	1083	2366.315940112008	12.062354925175
6	1089	2372.362286351943	9.117343608227
6	1090	2373.250880331802	8.249086681665
6	1096	2390.528698863049	22.75485198007
6	1097	2405.373985917309	26.799386961991
6	1100	2423.939583483753	34.241095030743
6	1104	2430.467757054724	5.351329007934
6	1110	2456.176888060771	13.344129740505
6	1116	2479.27552936794	8.832302491874
7	130	358.869815898493	2
7	134	363.575345481466	1
7	139	371.895046822157	2
7	142	377.923427276587	2
7	147	384.799375128966	3
7	151	387.624054524293	4
7	163	403.710755260551	4
7	168	409.874961089375	5
7	170	411.086407588665	6
7	172	413.4487838292	7
7	175	422.660157450908	8
7	179	433.773755810936	7
7	182	436.534729798009	7
7	184	442.545318933231	8
7	191	451.500009386721	9
7	196	460.481688671399	8
7	201	472.330323151671	6
7	206	476.290602231417	4
7	210	481.579066068344	5
7	212	484.114970847012	6
7	214	484.407203437057	7
7	218	486.835795187214	8
7	220	490.519326292506	9
7	223	492.402941934648	10
7	225	496.333474610729	11
7	227	496.562878347646	12
7	230	500.699196732436	13
7	234	510.616588073054	12
7	236	516.403168857546	13
7	241	523.983506691155	14
7	246	541.108139929585	14
7	249	543.897240341514	15
7	251	545.246671162031	16
7	257	552.687457586862	16
7	264	566.809527874848	14
7	266	568.72388947873	15
7	268	569.299048767503	16
7	270	573.483575902518	17
7	276	589.599508870518	18
7	296	652.679419044099	6
7	300	663.850470122602	7
7	302	666.495816017287	8
7	305	674.178476895076	9
7	307	674.435931552021	10
7	314	685.87204359971	10
7	317	687.505858980912	10
7	327	719.175333931076	6
7	332	725.776027199568	6
7	341	747.679645429777	7
7	345	752.045525628458	6
7	347	755.63646562893	7
7	356	765.846569810133	6
7	371	797.929656108619	1
7	373	803.366813512402	2
7	377	822.021854249861	1
7	379	824.092215752893	2
7	383	825.870291983351	3
7	385	830.205306622871	4
7	394	876.496529601967	2
7	396	883.078995659064	3
7	399	884.114224992584	3
7	403	900.309577423501	2
7	405	902.686028552706	3
7	410	907.841458093308	4
7	412	908.22348376376	5
7	416	913.985896496045	4
7	418	915.511219768531	5
7	428	936.150174684048	1
7	431	957.350522892456	1
7	437	959.537566375211	2
7	439	961.015021549476	3
7	446	973.806170987952	4
7	448	974.3337813231	5
7	451	985.733131396166	6
7	459	987.418486126761	7
7	462	989.71794444209	8
7	467	996.635361202879	7
7	469	997.50197745984	8
7	471	1000.614380733914	9
7	473	1002.93753941796	10
7	475	1003.139912697479	11
7	481	1023.453602653883	11
7	485	1027.844105341699	10
7	488	1040.4654648166	10
7	490	1054.46082730682	11
7	494	1065.476110816513	10
7	498	1068.776951415614	9
7	502	1073.889853321717	10
7	507	1086.223698181971	9
7	509	1087.028251520815	10
7	516	1100.311728835791	6
7	518	1102.937126402404	7
7	520	1103.296168715579	8
7	523	1105.543307395317	8
7	525	1119.230788976723	9
7	527	1120.999591853058	10
7	535	1132.560172564953	9
7	543	1161.96034340535	6
7	549	1177.195997390942	3
7	551	1180.081416474803	4
7	555	1187.617665537362	3
7	563	1210.932903490067	1
7	566	1215.469320776207	1
7	575	1230.212834470246	1
7	578	1231.567563007815	1
7	580	1233.156948895368	2
7	583	1237.937985927801	2
7	589	1259.516799556624	1
7	592	1270.540548658841	2
7	594	1271.320799151996	3
7	596	1274.253421360614	4
7	600	1285.152790073744	3
7	604	1289.255603578751	4
7	608	1299.256933405716	4
7	615	1312.449067215708	3
7	617	1316.279499870803	4
7	620	1327.794615258772	4
7	626	1333.785997853023	4
7	637	1348.383148723751	4
7	641	1363.842141545331	4
7	645	1367.812855524695	3
7	654	1388.144615086676	2
7	659	1420.952007139121	1
7	662	1433.410097304958	1
7	668	1441.499454043538	1
7	673	1448.430776163437	1
7	679	1467.099739280006	1
7	699	1501.266960067661	2
7	702	1507.19019397409	3
7	706	1511.263658676434	4
7	709	1520.234627412726	5
7	713	1523.381496563648	4
7	718	1530.680263322624	2
7	724	1538.93329132909	1
7	728	1555.691787578848	1
7	739	1605.705804667371	1
7	747	1619.016333639338	2
7	755	1641.110894273024	1
7	757	1646.610087463157	2
7	759	1647.9432327978	3
7	763	1662.830508195001	2
7	765	1667.699879731407	3
7	772	1727.060034585561	1
7	776	1732.575873732124	1
7	779	1740.131284095942	1
7	782	1742.088416458281	1
7	788	1754.713226187395	1
7	790	1754.825191949659	2
7	794	1773.115304760274	1
7	797	1787.885383079952	1
7	809	1819.757551536556	1
7	818	1849.952015362654	1
7	828	1859.97080242383	1
7	830	1862.906878126622	2
7	832	1862.950662861538	3
7	845	1895.294256602229	1
7	848	1898.255995949292	1
7	851	1913.119553731396	1
7	854	1916.947606572373	1
7	860	1934.945801855677	1
7	863	1944.800417032737	1
7	865	1951.543731605016	2
7	869	1962.190647572055	1
7	872	1989.943338272855	1
7	875	1995.884336036208	1
7	877	2000.46358090522	2
7	880	2003.250193048485	2
7	883	2010.907439471988	2
7	886	2017.266243712978	2
7	893	2025.955543780031	1
7	895	2026.250189254591	2
7	897	2028.994943436586	3
7	899	2029.205533400149	4
7	910	2044.569981006974	2
7	912	2045.615097865451	3
7	915	2047.618326690206	3
7	917	2047.675094750662	4
7	919	2049.278506622473	5
7	922	2052.021063180835	5
7	927	2061.933050463169	6
7	940	2081.964199355301	4
7	944	2083.997075851319	4
7	950	2107.844581482129	1
7	953	2111.538694057014	1
7	963	2143.701765387448	1
7	971	2162.923318210554	1
7	973	2164.078018129687	2
7	975	2164.966107423185	3
7	980	2177.139364210375	1
7	985	2185.971923398421	2
7	988	2191.392652329195	2
7	994	2200.589757462497	1
7	996	2201.991001515014	2
7	1001	2210.81382373994	1
7	1003	2215.667939719317	2
7	1008	2222.785535370716	2
7	1024	2249.093811858206	3
7	1026	2252.210084213817	4
7	1033	2270.85175116467	5
7	1042	2284.066064280049	2
7	1047	2289.114500274871	3
7	1050	2292.754600115712	3
7	1055	2297.876878442418	4
7	1060	2313.85941372327	2
7	1063	2319.616467540876	2
7	1070	2344.407621983521	1
7	1075	2354.253585186833	1
7	1077	2360.11653716303	2
7	1079	2363.244942743716	3
7	1082	2365.001793650137	4
7	1085	2367.084833730502	4
7	1095	2389.69848845301	3
7	1099	2415.469235353027	2
7	1108	2442.832758320266	1
7	1115	2470.443226876066	1
7	1121	2498.157739472885	1
8	136	366.90674060042	1
8	144	381.784833013177	1
8	149	386.250875507134	1
8	154	389.749122569849	1
8	158	399.549588799422	1
8	160	402.504371015353	2
8	165	408.499009690112	2
8	186	443.817232557662	1
8	189	445.367973862082	1
8	208	478.003471691353	1
8	216	484.600153220399	2
8	238	517.502141464979	1
8	244	529.042666305749	1
8	254	549.723407939261	1
8	262	562.927292449865	1
8	273	586.270515660759	1
8	284	626.843884536897	1
8	294	647.353795303353	1
8	298	662.438482297379	2
8	310	680.919630399863	1
8	322	697.442376960556	1
8	330	725.763040227324	1
8	335	738.500469943368	1
8	337	739.177665474985	2
8	350	762.526755291277	1
8	354	765.313687185756	1
8	364	779.370713826155	1
8	368	791.075455498199	1
8	381	825.727435836351	1
8	388	841.668238793278	1
8	407	906.230180631313	1
8	421	918.329453634844	1
8	433	957.388344174164	1
8	435	957.723820241117	2
8	441	965.1212364791	3
8	444	970.625671301786	3
8	455	986.583432109771	1
8	457	987.393290059605	2
8	478	1008.65887140681	1
8	500	1070.155179727889	1
8	531	1130.416300279589	1
8	533	1132.048297238397	2
8	560	1205.642446634233	1
8	568	1216.616931884824	1
8	572	1228.520457625003	1
8	587	1254.734196931696	1
8	602	1286.850380159512	1
8	611	1302.844015444965	1
8	622	1328.909099580252	1
8	629	1337.388330083135	1
8	631	1339.233828183082	2
8	634	1343.29505004117	2
8	648	1374.799124051652	1
8	652	1387.35074829731	1
8	664	1438.672465126625	1
8	671	1446.386407934709	1
8	677	1465.471776737086	1
8	681	1472.526123282645	2
8	683	1477.260476761024	3
8	685	1478.758750500482	4
8	689	1484.290723402252	3
8	693	1490.187265864041	2
8	697	1500.847975289427	1
8	704	1508.857475936079	1
8	722	1534.984185702364	1
8	731	1584.596546818588	1
8	733	1584.900654196861	2
8	737	1604.854966012996	1
8	742	1608.92861649769	1
8	744	1610.735235706327	2
8	751	1622.440234149539	1
8	770	1725.797566812866	1
8	785	1744.043509672546	1
8	800	1790.574625413366	1
8	802	1793.295441535686	2
8	804	1796.601928198126	3
8	812	1830.0117169173	1
8	815	1848.743132659626	1
8	821	1853.658041950659	1
8	824	1855.784039861942	1
8	826	1857.679617678275	2
8	837	1882.457710465602	1
8	840	1885.04093721874	1
8	857	1925.63764088096	1
8	890	2022.200134446936	1
8	902	2032.794886553949	1
8	905	2040.625890296416	1
8	924	2053.878915809292	1
8	929	2064.153547375319	1
8	933	2068.750220991927	1
8	938	2081.78025563606	1
8	956	2126.915847722145	1
8	959	2137.731399979001	1
8	961	2139.643418030477	2
8	966	2146.629260054248	2
8	982	2179.771093233548	1
8	992	2196.627595088498	1
8	1006	2216.971440694834	1
8	1010	2226.000127713074	2
8	1013	2228.447023846671	2
8	1016	2234.20252635727	2
8	1019	2237.414483346714	2
8	1022	2249.077865559208	2
8	1028	2259.534430219018	3
8	1039	2277.923741025562	1
8	1044	2288.666116345938	1
8	1052	2296.659481833168	1
8	1067	2330.015315462675	1
8	1073	2350.915731692075	1
8	1087	2367.773846882979	1
8	1092	2378.574598955318	1
8	1102	2425.11642804679	1
8	1106	2431.98697731575	1
8	1112	2458.246234532336	1
8	1118	2481.626538504285	1
9	136	366.90674060042	5
9	144	381.784833013177	6
9	149	386.250875507134	7
9	154	389.749122569849	8
9	158	399.549588799422	9
9	186	443.817232557662	10
9	189	445.367973862082	11
9	208	478.003471691353	12
9	238	517.502141464979	13
9	244	529.042666305749	14
9	254	549.723407939261	15
9	262	562.927292449865	16
9	273	586.270515660759	17
9	284	626.843884536897	18
9	294	647.353795303353	19
9	310	680.919630399863	20
9	322	697.442376960556	21
9	330	725.763040227324	22
9	335	738.500469943368	23
9	350	762.526755291277	24
9	354	765.313687185756	25
9	364	779.370713826155	26
9	381	825.727435836351	27
9	388	841.668238793278	28
9	407	906.230180631313	29
9	421	918.329453634844	30
9	433	957.388344174164	31
9	455	986.583432109771	32
9	478	1008.65887140681	33
9	500	1070.155179727889	34
9	531	1130.416300279589	35
9	568	1216.616931884824	36
9	602	1286.850380159512	37
9	611	1302.844015444965	38
9	622	1328.909099580252	39
9	629	1337.388330083135	40
9	648	1374.799124051652	41
9	652	1387.35074829731	42
9	664	1438.672465126625	43
9	697	1500.847975289427	44
9	704	1508.857475936079	45
9	742	1608.92861649769	46
9	751	1622.440234149539	47
9	837	1882.457710465602	48
9	840	1885.04093721874	49
9	902	2032.794886553949	50
9	905	2040.625890296416	51
9	924	2053.878915809292	52
9	929	2064.153547375319	53
9	933	2068.750220991927	54
9	938	2081.78025563606	55
9	982	2179.771093233548	56
9	1006	2216.971440694834	57
9	1039	2277.923741025562	58
9	1044	2288.666116345938	59
9	1052	2296.659481833168	60
9	1087	2367.773846882979	61
9	1092	2378.574598955318	62
9	1102	2425.11642804679	63
10	136	366.90674060042	0
10	144	381.784833013177	0
10	149	386.250875507134	0
10	154	389.749122569849	0
10	158	399.549588799422	0
10	161	402.737637913654	0.233266898301
10	166	408.624733434725	0.125723744613
10	186	443.817232557662	0
10	189	445.367973862082	0
10	208	478.003471691353	0
10	221	491.208080440856	6.607927220457
10	238	517.502141464979	0
10	244	529.042666305749	0
10	254	549.723407939261	0
10	262	562.927292449865	0
10	273	586.270515660759	0
10	284	626.843884536897	0
10	294	647.353795303353	0
10	303	670.723578604228	8.285096306849
10	310	680.919630399863	0
10	322	697.442376960556	0
10	330	725.763040227324	0
10	335	738.500469943368	0
10	338	743.445396081465	4.26773060648
10	350	762.526755291277	0
10	354	765.313687185756	0
10	364	779.370713826155	0
10	368	791.075455498199	0
10	381	825.727435836351	0
10	388	841.668238793278	0
10	407	906.230180631313	0
10	421	918.329453634844	0
10	433	957.388344174164	0
10	442	967.036509870337	9.31268962922
10	449	979.535164316384	14.413927837284
10	452	985.903815938265	15.278144636479
10	455	986.583432109771	0
10	460	988.338128105498	0.944838045893
10	478	1008.65887140681	0
10	500	1070.155179727889	0
10	531	1130.416300279589	0
10	536	1139.714634503136	7.666337264739
10	560	1205.642446634233	0
10	568	1216.616931884824	0
10	572	1228.520457625003	0
10	587	1254.734196931696	0
10	602	1286.850380159512	0
10	611	1302.844015444965	0
10	622	1328.909099580252	0
10	629	1337.388330083135	0
10	632	1339.287136685094	0.053308502012
10	635	1344.837227144822	1.542177103652
10	648	1374.799124051652	0
10	652	1387.35074829731	0
10	664	1438.672465126625	0
10	671	1446.386407934709	0
10	677	1465.471776737086	0
10	686	1478.949636779415	6.42351349677
10	687	1482.591348890473	5.330872129449
10	690	1486.506196963334	7.747446462852
10	691	1487.606741166596	3.316017764344
10	694	1492.892517735359	2.705251871318
10	697	1500.847975289427	0
10	704	1508.857475936079	0
10	722	1534.984185702364	0
10	731	1584.596546818588	0
10	734	1586.682487701251	1.78183350439
10	737	1604.854966012996	0
10	742	1608.92861649769	0
10	745	1618.342886963525	7.607651257198
10	751	1622.440234149539	0
10	770	1725.797566812866	0
10	785	1744.043509672546	0
10	800	1790.574625413366	0
10	805	1799.283103134452	5.987661598766
10	806	1805.564066981363	8.962138783237
10	812	1830.0117169173	0
10	815	1848.743132659626	0
10	821	1853.658041950659	0
10	824	1855.784039861942	0
10	833	1867.449406894151	9.769789215876
10	837	1882.457710465602	0
10	840	1885.04093721874	0
10	857	1925.63764088096	0
10	890	2022.200134446936	0
10	902	2032.794886553949	0
10	905	2040.625890296416	0
10	924	2053.878915809292	0
10	929	2064.153547375319	0
10	933	2068.750220991927	0
10	938	2081.78025563606	0
10	956	2126.915847722145	0
10	959	2137.731399979001	0
10	964	2144.149389840911	4.505971810434
10	967	2150.990240334434	4.360980280186
10	982	2179.771093233548	0
10	992	2196.627595088498	0
10	1006	2216.971440694834	0
10	1011	2226.298265108195	0.298137395121
10	1014	2232.71509264011	4.268068793439
10	1017	2236.032001334797	1.829474977527
10	1020	2238.160191188217	0.745707841503
10	1029	2264.653422187359	15.575556628151
10	1030	2265.89077686342	6.356346644402
10	1039	2277.923741025562	0
10	1044	2288.666116345938	0
10	1052	2296.659481833168	0
10	1067	2330.015315462675	0
10	1073	2350.915731692075	0
10	1087	2367.773846882979	0
10	1092	2378.574598955318	0
10	1102	2425.11642804679	0
10	1106	2431.98697731575	0
10	1112	2458.246234532336	0
10	1118	2481.626538504285	0
11	1122	2500	0.0992
12	1122	2500	0.05

