version 2
run experiments_medium_game_mode1-418-20230311-09:41:23-10774
attr configname experiments_medium_game_mode1
attr datetime 20230311-09:41:23
attr experiment experiments_medium_game_mode1
attr inifile omnetpp.ini
attr iterationvars "$0=5.5, $1=4, $2=100"
attr iterationvarsf 5.5,4,100-
attr measurement "$0=5.5, $1=4, $2=100"
attr network Network
attr processid 10774
attr repetition 28
attr replication #28
attr resultdir results
attr runnumber 418
attr seedset 28
param *.boss.arrival_mean 20
param *.boss.service_mean 5.5
param *.minion.arrival_mean 10
param *.minion.service_mean 4
param *.player.recover_rate_x 100
param **.minion.arrival_distribution 0
param **.minion.service_distribution 0
param **.boss.arrival_distribution 0
param **.boss.service_distribution 0

vector 0 Network.player minion_jobs_number_stat:vector ETV
attr source signal_minion_jobs_number
vector 1 Network.player minion_jobs_queue_number_stat:vector ETV
attr source signal_minion_jobs_queue_number
vector 2 Network.player minion_defeated_stat:vector ETV
attr source signal_minion_defeated
vector 3 Network.player minion_response_time_stat:vector ETV
attr source signal_minion_response_time
vector 4 Network.player minion_waiting_time_stat:vector ETV
attr source signal_minion_waiting_time
vector 5 Network.player boss_jobs_number_stat:vector ETV
attr source signal_boss_jobs_number
vector 6 Network.player boss_jobs_queue_number_stat:vector ETV
attr source signal_boss_jobs_queue_number
vector 7 Network.player boss_waiting_time_stat:vector ETV
attr source signal_boss_waiting_time
vector 8 Network.player boss_defeated_stat:vector ETV
attr source signal_boss_defeated
vector 9 Network.player boss_response_time_stat:vector ETV
attr source signal_boss_response_time
vector 10 Network.player minion_recovered_stat:vector ETV
attr source signal_minion_recovered
vector 11 Network.player minion_throughput:vector ETV
attr source signal_minion_throughput
vector 12 Network.player boss_throughput:vector ETV
attr source signal_boss_throughput
0	167	350.294513694894	4
0	171	363.639385191236	3
0	186	395.967732442049	1
0	192	427.159591447421	2
0	194	432.765782918222	3
0	203	449.947678496786	1
0	205	454.945726975953	2
0	210	459.176667775983	2
0	224	486.255948306324	1
0	227	491.012857394079	1
0	229	491.777575685855	2
0	235	507.137759544897	1
0	239	512.556181913125	1
0	241	513.4579622533	2
0	244	527.808006862067	2
0	248	535.706216348722	1
0	250	538.604951992273	2
0	253	540.375021267488	2
0	259	560.447999415621	1
0	261	563.873884554785	2
0	264	571.726134409241	3
0	267	572.186659351179	3
0	272	582.163489332664	1
0	275	586.200971562991	1
0	277	586.801018141556	2
0	283	600.139297678135	3
0	294	621.370227739097	4
0	300	639.646881293396	5
0	308	659.060776399104	4
0	312	671.417531041499	3
0	316	674.211585846454	2
0	318	676.299076244988	3
0	323	693.681225810529	1
0	329	736.134221527032	1
0	332	747.297448632487	1
0	335	752.207732643532	1
0	338	758.413090383666	1
0	341	765.407851661881	1
0	344	770.463541129355	1
0	347	784.88289423812	1
0	353	792.246328686303	1
0	356	803.757996106487	1
0	362	830.613305193708	1
0	365	843.413113944246	1
0	368	849.294871178456	1
0	371	851.704791292802	1
0	374	852.417378293355	1
0	378	866.818236715752	2
0	380	869.09392381702	3
0	382	869.875876308415	4
0	387	876.496034911976	3
0	389	885.934984987796	4
0	391	886.335462395712	5
0	398	891.880284731485	3
0	403	900.205063499668	4
0	405	902.875379046943	5
0	411	908.889970047335	6
0	416	916.853486259358	6
0	418	917.693032700502	7
0	422	926.294494189633	7
0	424	926.930844007641	8
0	429	934.871934789699	8
0	433	935.994326362746	8
0	435	937.677465601314	9
0	439	944.889580167609	8
0	449	954.901572751685	6
0	459	971.368637164473	7
0	461	972.524355441693	8
0	465	979.736233024576	9
0	467	980.954520292716	10
0	471	985.458950389984	9
0	474	992.314140590091	9
0	481	1011.689877239094	5
0	484	1016.425793707413	5
0	487	1023.747950625016	5
0	497	1062.408896828515	3
0	501	1073.920307508341	3
0	506	1086.412763685241	1
0	520	1129.504131067294	1
0	522	1130.137690966545	2
0	530	1142.125729052923	1
0	541	1165.179712411229	1
0	543	1165.298295139806	2
0	554	1194.743970844658	1
0	559	1217.401377583172	1
0	563	1235.076840789736	2
0	566	1237.656652970642	3
0	568	1239.329840174216	4
0	571	1242.417205123507	5
0	578	1253.007032138073	4
0	583	1270.715093928246	2
0	590	1287.140139812766	1
0	596	1311.575579480774	1
0	598	1312.641631723577	2
0	602	1316.994823514032	1
0	604	1318.060865432187	2
0	608	1328.019285020217	1
0	611	1330.670337975008	1
0	613	1333.970644627878	2
0	617	1340.742713307508	1
0	621	1346.771012237382	2
0	623	1351.270470131262	3
0	627	1359.232090685853	3
0	629	1359.562117816025	4
0	631	1360.141407267009	5
0	634	1362.380936788234	5
0	636	1362.446556802255	6
0	639	1364.573313357586	6
0	645	1371.430722611907	3
0	648	1376.481791297443	3
0	653	1388.535971260675	1
0	655	1390.92568428937	2
0	657	1396.260086775359	3
0	659	1398.526102203502	4
0	665	1413.164292923553	1
0	673	1438.443018201108	1
0	676	1446.242418118421	2
0	680	1452.889507469076	1
0	682	1454.61648399024	2
0	684	1457.106807366308	3
0	690	1463.341150504445	2
0	692	1464.518839651967	3
0	695	1465.471329612148	4
0	697	1465.677038760284	5
0	705	1474.210476258838	5
0	710	1476.798781879275	4
0	716	1482.087081506948	5
0	718	1482.241627916752	6
0	726	1490.828201086264	7
0	728	1491.60009994703	8
0	744	1528.860948272361	6
0	751	1535.771305000355	6
0	754	1542.574818051796	7
0	756	1546.140151323238	8
0	759	1550.28545153088	9
0	761	1550.620890325931	10
0	763	1550.911886505854	11
0	765	1551.388269856311	12
0	793	1610.406475456756	1
0	795	1619.737148409179	2
0	800	1623.255613144863	3
0	805	1636.170622927085	2
0	809	1647.276199399388	1
0	815	1653.367597601162	1
0	824	1677.043312469711	1
0	826	1677.669644042182	2
0	832	1696.856404307526	2
0	835	1700.616095823832	2
0	838	1703.81731854165	2
0	840	1703.958884704604	3
0	848	1721.840881323087	1
0	851	1738.639292207234	1
0	854	1740.28301290746	1
0	857	1741.94231495916	1
0	859	1746.278323822409	2
0	861	1747.132978468727	3
0	866	1763.744959369342	1
0	869	1766.832317197775	1
0	872	1781.194061412384	1
0	875	1784.007172870224	1
0	878	1791.444793225007	1
0	889	1818.767574374127	1
0	892	1823.912494308424	2
0	896	1825.031935837156	3
0	898	1826.742113535859	4
0	900	1829.177898004458	5
0	903	1830.475974871447	6
0	905	1832.727478097734	7
0	908	1837.836836424692	7
0	910	1849.063043979003	8
0	914	1855.172356944006	7
0	916	1857.001293247168	8
0	918	1858.512785288162	9
0	924	1865.0163181571	6
0	926	1870.890209302152	7
0	933	1882.319536835075	5
0	935	1894.652070974355	6
0	938	1897.0452703193	7
0	940	1901.13905651228	8
0	944	1906.165645035977	7
0	947	1911.414594258261	7
0	950	1913.696463255112	7
0	955	1918.988644349112	7
0	957	1921.236140018328	8
0	959	1925.822683503792	9
0	962	1930.040236147994	10
0	972	1942.644956077952	3
0	975	1954.128819601869	3
0	977	1954.985926865917	4
0	981	1976.050555183861	3
0	986	1988.908814795108	1
0	989	1994.899296821272	1
0	992	2000.710797375236	1
0	995	2017.872222831108	1
0	998	2023.586400580186	1
0	1001	2035.149372275751	1
0	1003	2036.383769932827	2
0	1009	2052.6402209119	1
0	1011	2053.438782548318	2
0	1013	2056.466399041406	3
0	1018	2067.862028175937	4
0	1021	2076.376692711629	5
0	1024	2081.776984030721	5
0	1028	2083.457158291611	4
0	1034	2105.145380865089	1
0	1037	2135.309728064205	1
0	1040	2154.455229077172	1
0	1042	2156.522746367308	2
0	1046	2169.554756261325	1
0	1049	2170.07863638295	1
0	1060	2198.576693982376	1
0	1063	2201.61030075626	2
0	1065	2203.10283473555	3
0	1068	2204.885680249809	3
0	1071	2212.638258954712	3
0	1073	2229.449308528692	4
0	1076	2233.203004793729	4
0	1079	2234.707007767304	4
0	1081	2242.872358595071	5
0	1089	2255.528460384978	3
0	1097	2271.690803451792	1
0	1100	2277.261690615057	1
0	1103	2286.562431843466	1
0	1106	2288.617014748565	1
0	1108	2290.195723633174	2
0	1110	2291.789356918091	3
0	1112	2294.486130733997	4
0	1116	2301.721929275329	3
0	1120	2304.632968356191	2
0	1130	2330.756959188175	1
0	1136	2347.337730131784	1
0	1138	2347.355279760539	2
0	1140	2347.821212135755	3
0	1143	2349.35594733363	3
0	1147	2353.101277890705	2
0	1150	2357.587073636544	2
0	1153	2360.550717446282	2
0	1157	2392.293092303921	1
0	1162	2398.988939380238	2
0	1164	2399.35765296574	3
0	1167	2405.934133730232	3
0	1172	2415.654602181887	1
0	1183	2440.870673671743	1
0	1185	2444.982830372601	2
0	1189	2454.204788739677	2
0	1193	2463.184025075622	1
0	1195	2463.460184766505	2
1	167	350.294513694894	3
1	168	351.904357357934	3
1	169	358.264984161005	2
1	171	363.639385191236	2
1	172	369.91195016487	2
1	173	370.235524106419	1
1	174	377.384524700085	0
1	186	395.967732442049	0
1	192	427.159591447421	1
1	194	432.765782918222	2
1	196	433.538823449968	2
1	197	434.775854051312	1
1	198	435.169911369704	0
1	203	449.947678496786	0
1	205	454.945726975953	1
1	206	457.195985588266	1
1	210	459.176667775983	1
1	215	472.750714485145	1
1	216	479.405530168376	0
1	224	486.255948306324	0
1	225	488.335515530086	0
1	227	491.012857394079	0
1	229	491.777575685855	1
1	230	493.923046404077	1
1	231	501.294666513514	0
1	235	507.137759544897	0
1	237	507.957267663979	0
1	239	512.556181913125	0
1	241	513.4579622533	1
1	242	518.714848847343	1
1	244	527.808006862067	1
1	245	528.7616091668	1
1	246	534.729508013195	0
1	248	535.706216348722	0
1	250	538.604951992273	1
1	251	540.100567440055	1
1	253	540.375021267488	1
1	254	540.59549135823	1
1	255	541.363909878606	0
1	259	560.447999415621	0
1	261	563.873884554785	1
1	264	571.726134409241	2
1	265	572.029621867586	2
1	267	572.186659351179	2
1	268	573.01164640345	2
1	269	573.937969208334	1
1	270	576.461478779332	0
1	272	582.163489332664	0
1	273	582.805526279512	0
1	275	586.200971562991	0
1	277	586.801018141556	1
1	283	600.139297678135	2
1	294	621.370227739097	3
1	300	639.646881293396	4
1	302	649.113945850103	4
1	303	650.986763291412	3
1	308	659.060776399104	3
1	309	663.942854534344	3
1	310	664.950051811191	2
1	312	671.417531041499	2
1	313	671.741120366762	2
1	314	674.012322944521	1
1	316	674.211585846454	1
1	318	676.299076244988	2
1	319	677.569159718506	2
1	320	677.841844334582	1
1	321	679.140343936874	0
1	323	693.681225810529	0
1	324	693.717032728071	0
1	329	736.134221527032	0
1	330	739.118069643295	0
1	332	747.297448632487	0
1	333	747.474734821237	0
1	335	752.207732643532	0
1	336	753.408679440432	0
1	338	758.413090383666	0
1	339	759.064457405402	0
1	341	765.407851661881	0
1	342	768.419004164015	0
1	344	770.463541129355	0
1	345	772.526424847137	0
1	347	784.88289423812	0
1	351	790.756457155419	0
1	353	792.246328686303	0
1	354	796.198619105128	0
1	356	803.757996106487	0
1	357	806.900469433245	0
1	362	830.613305193708	0
1	363	834.180784979527	0
1	365	843.413113944246	0
1	366	844.52169971335	0
1	368	849.294871178456	0
1	369	849.497952411687	0
1	371	851.704791292802	0
1	372	852.10070620109	0
1	374	852.417378293355	0
1	378	866.818236715752	1
1	380	869.09392381702	2
1	382	869.875876308415	3
1	384	874.16903714114	3
1	385	875.009286938156	2
1	387	876.496034911976	2
1	389	885.934984987796	3
1	391	886.335462395712	4
1	392	888.549330564608	4
1	393	889.200749219431	3
1	394	890.583915171531	2
1	398	891.880284731485	2
1	403	900.205063499668	3
1	405	902.875379046943	4
1	411	908.889970047335	5
1	412	909.22812007179	5
1	416	916.853486259358	5
1	418	917.693032700502	6
1	420	926.146840197913	6
1	422	926.294494189633	6
1	424	926.930844007641	7
1	425	927.571831952453	7
1	429	934.871934789699	7
1	431	935.757130239778	7
1	433	935.994326362746	7
1	435	937.677465601314	8
1	436	942.182484012421	8
1	437	942.208487318144	7
1	439	944.889580167609	7
1	440	946.49272217272	7
1	441	950.138068845291	6
1	442	950.908129380825	5
1	449	954.901572751685	5
1	459	971.368637164473	6
1	461	972.524355441693	7
1	465	979.736233024576	8
1	467	980.954520292716	9
1	468	982.212146287291	9
1	469	985.294573994093	8
1	471	985.458950389984	8
1	472	988.945971311198	8
1	474	992.314140590091	8
1	475	993.23154606605	8
1	476	993.767981739505	7
1	477	997.585891239735	6
1	478	1001.67022122531	5
1	479	1009.834360238063	4
1	481	1011.689877239094	4
1	482	1013.152944959553	4
1	484	1016.425793707413	4
1	485	1018.382680823725	4
1	487	1023.747950625016	4
1	488	1031.19739031659	4
1	489	1036.992824045205	3
1	490	1046.1698815734	2
1	497	1062.408896828515	2
1	499	1066.661084042118	2
1	501	1073.920307508341	2
1	502	1076.161171963674	2
1	503	1079.108384559347	1
1	504	1082.578760971738	0
1	506	1086.412763685241	0
1	507	1089.474139351195	0
1	520	1129.504131067294	0
1	522	1130.137690966545	1
1	524	1132.756566224333	1
1	525	1133.103089955224	0
1	530	1142.125729052923	0
1	534	1146.695662518861	0
1	541	1165.179712411229	0
1	543	1165.298295139806	1
1	545	1165.897421487042	1
1	546	1166.034741276915	0
1	554	1194.743970844658	0
1	555	1195.971043928495	0
1	559	1217.401377583172	0
1	563	1235.076840789736	1
1	566	1237.656652970642	2
1	568	1239.329840174216	3
1	571	1242.417205123507	4
1	572	1247.907409698603	4
1	576	1250.837560003924	3
1	578	1253.007032138073	3
1	579	1264.816079429654	3
1	580	1264.825696163858	2
1	581	1270.433211557046	1
1	583	1270.715093928246	1
1	584	1271.944979248543	1
1	585	1273.280446023397	0
1	590	1287.140139812766	0
1	591	1289.900534770302	0
1	596	1311.575579480774	0
1	598	1312.641631723577	1
1	599	1313.844399776466	1
1	600	1314.753220945207	0
1	602	1316.994823514032	0
1	604	1318.060865432187	1
1	605	1319.614627564238	1
1	606	1324.225546846597	0
1	608	1328.019285020217	0
1	609	1328.800231596296	0
1	611	1330.670337975008	0
1	613	1333.970644627878	1
1	614	1337.927531584814	1
1	615	1338.674013018909	0
1	617	1340.742713307508	0
1	621	1346.771012237382	1
1	623	1351.270470131262	2
1	625	1356.945076260404	2
1	627	1359.232090685853	2
1	629	1359.562117816025	3
1	631	1360.141407267009	4
1	632	1362.34354497162	4
1	634	1362.380936788234	4
1	636	1362.446556802255	5
1	637	1363.958557471698	5
1	639	1364.573313357586	5
1	640	1366.64861355602	5
1	641	1367.250931074005	4
1	642	1370.620485113276	3
1	643	1371.421524351934	2
1	645	1371.430722611907	2
1	646	1373.730971326635	2
1	648	1376.481791297443	2
1	649	1379.647266244038	2
1	650	1385.753376314613	1
1	651	1386.287988225779	0
1	653	1388.535971260675	0
1	655	1390.92568428937	1
1	657	1396.260086775359	2
1	659	1398.526102203502	3
1	660	1398.944333688397	3
1	661	1405.616648506012	2
1	662	1407.438484962718	1
1	663	1412.247299452422	0
1	665	1413.164292923553	0
1	666	1414.285785726543	0
1	673	1438.443018201108	0
1	676	1446.242418118421	1
1	677	1449.263289286311	1
1	678	1451.815979739087	0
1	680	1452.889507469076	0
1	682	1454.61648399024	1
1	684	1457.106807366308	2
1	685	1457.202840719906	2
1	686	1457.406159955293	1
1	690	1463.341150504445	1
1	692	1464.518839651967	2
1	695	1465.471329612148	3
1	697	1465.677038760284	4
1	701	1468.576187447885	4
1	705	1474.210476258838	4
1	707	1475.205474266481	4
1	708	1476.557380451992	3
1	710	1476.798781879275	3
1	716	1482.087081506948	4
1	718	1482.241627916752	5
1	726	1490.828201086264	6
1	728	1491.60009994703	7
1	731	1500.886377643604	7
1	732	1506.115656289078	6
1	736	1513.870751232655	5
1	744	1528.860948272361	5
1	745	1529.666951441223	5
1	751	1535.771305000355	5
1	754	1542.574818051796	6
1	756	1546.140151323238	7
1	759	1550.28545153088	8
1	761	1550.620890325931	9
1	763	1550.911886505854	10
1	765	1551.388269856311	11
1	766	1556.49051025797	11
1	767	1558.388784083465	10
1	768	1561.168327084455	9
1	769	1564.396217431657	8
1	770	1568.217197675603	7
1	771	1569.602114758088	6
1	772	1571.529780916466	5
1	776	1574.584448072404	4
1	777	1574.967313497769	3
1	787	1598.056563042855	2
1	788	1602.444629376612	1
1	789	1607.473761530491	0
1	793	1610.406475456756	0
1	795	1619.737148409179	1
1	800	1623.255613144863	2
1	802	1625.536593349412	2
1	803	1630.91406129755	1
1	805	1636.170622927085	1
1	806	1638.141862948625	1
1	807	1640.799966227073	0
1	809	1647.276199399388	0
1	813	1653.187282474608	0
1	815	1653.367597601162	0
1	816	1654.498488282615	0
1	824	1677.043312469711	0
1	826	1677.669644042182	1
1	827	1687.730285741528	1
1	832	1696.856404307526	1
1	833	1698.045858881854	1
1	835	1700.616095823832	1
1	836	1701.081638353341	1
1	838	1703.81731854165	1
1	840	1703.958884704604	2
1	841	1708.037671180369	2
1	842	1708.813044831155	1
1	843	1709.599739865241	0
1	848	1721.840881323087	0
1	849	1724.85692128951	0
1	851	1738.639292207234	0
1	852	1738.720094077837	0
1	854	1740.28301290746	0
1	855	1740.512427467338	0
1	857	1741.94231495916	0
1	859	1746.278323822409	1
1	861	1747.132978468727	2
1	862	1747.227794891291	2
1	863	1751.175443980945	1
1	864	1755.752962394173	0
1	866	1763.744959369342	0
1	867	1766.389405752403	0
1	869	1766.832317197775	0
1	870	1773.251614764871	0
1	872	1781.194061412384	0
1	873	1781.405746415071	0
1	875	1784.007172870224	0
1	876	1784.957150874984	0
1	878	1791.444793225007	0
1	879	1791.709908042407	0
1	889	1818.767574374127	0
1	892	1823.912494308424	1
1	896	1825.031935837156	2
1	898	1826.742113535859	3
1	900	1829.177898004458	4
1	903	1830.475974871447	5
1	905	1832.727478097734	6
1	906	1836.132068704252	6
1	908	1837.836836424692	6
1	910	1849.063043979003	7
1	911	1850.530684763634	7
1	912	1852.944925555282	6
1	914	1855.172356944006	6
1	916	1857.001293247168	7
1	918	1858.512785288162	8
1	919	1858.811219918026	8
1	920	1862.918194713413	7
1	921	1863.060896843264	6
1	922	1864.721452439574	5
1	924	1865.0163181571	5
1	926	1870.890209302152	6
1	927	1872.11758679779	6
1	928	1875.785535075523	5
1	929	1876.12033789744	4
1	933	1882.319536835075	4
1	935	1894.652070974355	5
1	938	1897.0452703193	6
1	940	1901.13905651228	7
1	941	1901.691468480703	7
1	942	1901.841038351365	6
1	944	1906.165645035977	6
1	945	1909.292789585339	6
1	947	1911.414594258261	6
1	948	1912.733045660302	6
1	950	1913.696463255112	6
1	951	1914.9433421586	6
1	955	1918.988644349112	6
1	957	1921.236140018328	7
1	959	1925.822683503792	8
1	962	1930.040236147994	9
1	963	1930.86934452777	9
1	964	1932.187081805403	8
1	965	1935.525827946717	7
1	966	1935.629274762402	6
1	967	1937.69375847033	5
1	968	1941.552757486311	4
1	969	1942.226104367893	3
1	970	1942.266183864223	2
1	972	1942.644956077952	2
1	973	1949.147376350337	2
1	975	1954.128819601869	2
1	977	1954.985926865917	3
1	978	1957.944156794868	3
1	979	1961.795614913831	2
1	981	1976.050555183861	2
1	982	1979.006743412682	2
1	983	1985.343715988719	1
1	984	1986.464937712069	0
1	986	1988.908814795108	0
1	987	1993.359725356005	0
1	989	1994.899296821272	0
1	990	1995.920256212847	0
1	992	2000.710797375236	0
1	993	2002.389594279675	0
1	995	2017.872222831108	0
1	996	2019.527543633383	0
1	998	2023.586400580186	0
1	999	2024.723130173245	0
1	1001	2035.149372275751	0
1	1003	2036.383769932827	1
1	1004	2038.450369089699	1
1	1005	2045.27650045772	0
1	1009	2052.6402209119	0
1	1011	2053.438782548318	1
1	1013	2056.466399041406	2
1	1018	2067.862028175937	3
1	1021	2076.376692711629	4
1	1022	2077.286664142472	4
1	1024	2081.776984030721	4
1	1025	2081.841087136453	4
1	1026	2081.963190633212	3
1	1028	2083.457158291611	3
1	1029	2089.944093475797	3
1	1030	2094.094109178351	2
1	1031	2095.572715403362	1
1	1032	2098.501737257246	0
1	1034	2105.145380865089	0
1	1035	2106.89577088466	0
1	1037	2135.309728064205	0
1	1038	2136.229370280298	0
1	1040	2154.455229077172	0
1	1042	2156.522746367308	1
1	1043	2162.734248767579	1
1	1044	2164.150324231692	0
1	1046	2169.554756261325	0
1	1047	2170.00374462937	0
1	1049	2170.07863638295	0
1	1053	2194.066971306596	0
1	1060	2198.576693982376	0
1	1063	2201.61030075626	1
1	1065	2203.10283473555	2
1	1066	2203.902701535629	2
1	1068	2204.885680249809	2
1	1069	2208.002957856926	2
1	1071	2212.638258954712	2
1	1073	2229.449308528692	3
1	1074	2232.490906386426	3
1	1076	2233.203004793729	3
1	1077	2234.566177706291	3
1	1079	2234.707007767304	3
1	1081	2242.872358595071	4
1	1085	2248.167699744379	4
1	1086	2249.704075962953	3
1	1087	2252.005901070227	2
1	1089	2255.528460384978	2
1	1090	2256.987040184517	2
1	1091	2259.540747881254	1
1	1092	2259.932427390521	0
1	1097	2271.690803451792	0
1	1098	2275.82598406747	0
1	1100	2277.261690615057	0
1	1101	2285.095932868386	0
1	1103	2286.562431843466	0
1	1104	2286.728334040658	0
1	1106	2288.617014748565	0
1	1108	2290.195723633174	1
1	1110	2291.789356918091	2
1	1112	2294.486130733997	3
1	1113	2294.610349658058	3
1	1114	2297.706619221827	2
1	1116	2301.721929275329	2
1	1117	2302.434508817	2
1	1118	2303.858864701911	1
1	1120	2304.632968356191	1
1	1121	2308.252811030809	1
1	1122	2311.24471018078	0
1	1130	2330.756959188175	0
1	1134	2341.903987048842	0
1	1136	2347.337730131784	0
1	1138	2347.355279760539	1
1	1140	2347.821212135755	2
1	1141	2348.833149014229	2
1	1143	2349.35594733363	2
1	1144	2349.611194205948	2
1	1145	2352.440336808075	1
1	1147	2353.101277890705	1
1	1148	2354.902836597454	1
1	1150	2357.587073636544	1
1	1151	2359.208747303301	1
1	1153	2360.550717446282	1
1	1154	2370.831000735865	1
1	1155	2379.880797136099	0
1	1157	2392.293092303921	0
1	1162	2398.988939380238	1
1	1164	2399.35765296574	2
1	1165	2400.213535126427	2
1	1167	2405.934133730232	2
1	1168	2407.71768189548	2
1	1169	2415.271624152969	1
1	1170	2415.430813873235	0
1	1172	2415.654602181887	0
1	1179	2433.453262235256	0
1	1183	2440.870673671743	0
1	1185	2444.982830372601	1
1	1187	2447.302281522303	1
1	1189	2454.204788739677	1
1	1190	2458.113175771049	1
1	1191	2461.168034168651	0
1	1193	2463.184025075622	0
1	1195	2463.460184766505	1
1	1196	2469.014859623625	1
1	1197	2472.520185468417	0
2	168	351.904357357934	29
2	169	358.264984161005	30
2	172	369.91195016487	31
2	173	370.235524106419	32
2	174	377.384524700085	33
2	196	433.538823449968	34
2	197	434.775854051312	35
2	198	435.169911369704	36
2	206	457.195985588266	37
2	215	472.750714485145	38
2	216	479.405530168376	39
2	225	488.335515530086	40
2	230	493.923046404077	41
2	231	501.294666513514	42
2	237	507.957267663979	43
2	242	518.714848847343	44
2	245	528.7616091668	45
2	246	534.729508013195	46
2	251	540.100567440055	47
2	254	540.59549135823	48
2	255	541.363909878606	49
2	265	572.029621867586	50
2	268	573.01164640345	51
2	269	573.937969208334	52
2	270	576.461478779332	53
2	273	582.805526279512	54
2	302	649.113945850103	55
2	303	650.986763291412	56
2	309	663.942854534344	57
2	310	664.950051811191	58
2	313	671.741120366762	59
2	314	674.012322944521	60
2	319	677.569159718506	61
2	320	677.841844334582	62
2	321	679.140343936874	63
2	324	693.717032728071	64
2	330	739.118069643295	65
2	333	747.474734821237	66
2	336	753.408679440432	67
2	339	759.064457405402	68
2	342	768.419004164015	69
2	345	772.526424847137	70
2	351	790.756457155419	71
2	354	796.198619105128	72
2	357	806.900469433245	73
2	363	834.180784979527	74
2	366	844.52169971335	75
2	369	849.497952411687	76
2	372	852.10070620109	77
2	384	874.16903714114	78
2	385	875.009286938156	79
2	392	888.549330564608	80
2	393	889.200749219431	81
2	394	890.583915171531	82
2	412	909.22812007179	83
2	420	926.146840197913	84
2	425	927.571831952453	85
2	431	935.757130239778	86
2	436	942.182484012421	87
2	437	942.208487318144	88
2	440	946.49272217272	89
2	441	950.138068845291	90
2	442	950.908129380825	91
2	468	982.212146287291	92
2	469	985.294573994093	93
2	472	988.945971311198	94
2	475	993.23154606605	95
2	476	993.767981739505	96
2	477	997.585891239735	97
2	478	1001.67022122531	98
2	479	1009.834360238063	99
2	482	1013.152944959553	100
2	485	1018.382680823725	101
2	488	1031.19739031659	102
2	489	1036.992824045205	103
2	490	1046.1698815734	104
2	499	1066.661084042118	105
2	502	1076.161171963674	106
2	503	1079.108384559347	107
2	504	1082.578760971738	108
2	507	1089.474139351195	109
2	524	1132.756566224333	110
2	525	1133.103089955224	111
2	534	1146.695662518861	112
2	545	1165.897421487042	113
2	546	1166.034741276915	114
2	555	1195.971043928495	115
2	572	1247.907409698603	116
2	576	1250.837560003924	117
2	579	1264.816079429654	118
2	580	1264.825696163858	119
2	581	1270.433211557046	120
2	584	1271.944979248543	121
2	585	1273.280446023397	122
2	591	1289.900534770302	123
2	599	1313.844399776466	124
2	600	1314.753220945207	125
2	605	1319.614627564238	126
2	606	1324.225546846597	127
2	609	1328.800231596296	128
2	614	1337.927531584814	129
2	615	1338.674013018909	130
2	625	1356.945076260404	131
2	632	1362.34354497162	132
2	637	1363.958557471698	133
2	640	1366.64861355602	134
2	641	1367.250931074005	135
2	642	1370.620485113276	136
2	643	1371.421524351934	137
2	646	1373.730971326635	138
2	649	1379.647266244038	139
2	650	1385.753376314613	140
2	651	1386.287988225779	141
2	660	1398.944333688397	142
2	661	1405.616648506012	143
2	662	1407.438484962718	144
2	663	1412.247299452422	145
2	666	1414.285785726543	146
2	677	1449.263289286311	147
2	678	1451.815979739087	148
2	685	1457.202840719906	149
2	686	1457.406159955293	150
2	701	1468.576187447885	151
2	707	1475.205474266481	152
2	708	1476.557380451992	153
2	731	1500.886377643604	154
2	732	1506.115656289078	155
2	736	1513.870751232655	156
2	745	1529.666951441223	157
2	766	1556.49051025797	158
2	767	1558.388784083465	159
2	768	1561.168327084455	160
2	769	1564.396217431657	161
2	770	1568.217197675603	162
2	771	1569.602114758088	163
2	772	1571.529780916466	164
2	776	1574.584448072404	165
2	777	1574.967313497769	166
2	787	1598.056563042855	167
2	788	1602.444629376612	168
2	789	1607.473761530491	169
2	802	1625.536593349412	170
2	803	1630.91406129755	171
2	806	1638.141862948625	172
2	807	1640.799966227073	173
2	813	1653.187282474608	174
2	816	1654.498488282615	175
2	827	1687.730285741528	176
2	833	1698.045858881854	177
2	836	1701.081638353341	178
2	841	1708.037671180369	179
2	842	1708.813044831155	180
2	843	1709.599739865241	181
2	849	1724.85692128951	182
2	852	1738.720094077837	183
2	855	1740.512427467338	184
2	862	1747.227794891291	185
2	863	1751.175443980945	186
2	864	1755.752962394173	187
2	867	1766.389405752403	188
2	870	1773.251614764871	189
2	873	1781.405746415071	190
2	876	1784.957150874984	191
2	879	1791.709908042407	192
2	906	1836.132068704252	193
2	911	1850.530684763634	194
2	912	1852.944925555282	195
2	919	1858.811219918026	196
2	920	1862.918194713413	197
2	921	1863.060896843264	198
2	922	1864.721452439574	199
2	927	1872.11758679779	200
2	928	1875.785535075523	201
2	929	1876.12033789744	202
2	941	1901.691468480703	203
2	942	1901.841038351365	204
2	945	1909.292789585339	205
2	948	1912.733045660302	206
2	951	1914.9433421586	207
2	963	1930.86934452777	208
2	964	1932.187081805403	209
2	965	1935.525827946717	210
2	966	1935.629274762402	211
2	967	1937.69375847033	212
2	968	1941.552757486311	213
2	969	1942.226104367893	214
2	970	1942.266183864223	215
2	973	1949.147376350337	216
2	978	1957.944156794868	217
2	979	1961.795614913831	218
2	982	1979.006743412682	219
2	983	1985.343715988719	220
2	984	1986.464937712069	221
2	987	1993.359725356005	222
2	990	1995.920256212847	223
2	993	2002.389594279675	224
2	996	2019.527543633383	225
2	999	2024.723130173245	226
2	1004	2038.450369089699	227
2	1005	2045.27650045772	228
2	1022	2077.286664142472	229
2	1025	2081.841087136453	230
2	1026	2081.963190633212	231
2	1029	2089.944093475797	232
2	1030	2094.094109178351	233
2	1031	2095.572715403362	234
2	1032	2098.501737257246	235
2	1035	2106.89577088466	236
2	1038	2136.229370280298	237
2	1043	2162.734248767579	238
2	1044	2164.150324231692	239
2	1047	2170.00374462937	240
2	1053	2194.066971306596	241
2	1066	2203.902701535629	242
2	1069	2208.002957856926	243
2	1074	2232.490906386426	244
2	1077	2234.566177706291	245
2	1085	2248.167699744379	246
2	1086	2249.704075962953	247
2	1087	2252.005901070227	248
2	1090	2256.987040184517	249
2	1091	2259.540747881254	250
2	1092	2259.932427390521	251
2	1098	2275.82598406747	252
2	1101	2285.095932868386	253
2	1104	2286.728334040658	254
2	1113	2294.610349658058	255
2	1114	2297.706619221827	256
2	1117	2302.434508817	257
2	1118	2303.858864701911	258
2	1121	2308.252811030809	259
2	1122	2311.24471018078	260
2	1134	2341.903987048842	261
2	1141	2348.833149014229	262
2	1144	2349.611194205948	263
2	1145	2352.440336808075	264
2	1148	2354.902836597454	265
2	1151	2359.208747303301	266
2	1154	2370.831000735865	267
2	1155	2379.880797136099	268
2	1165	2400.213535126427	269
2	1168	2407.71768189548	270
2	1169	2415.271624152969	271
2	1170	2415.430813873235	272
2	1179	2433.453262235256	273
2	1187	2447.302281522303	274
2	1190	2458.113175771049	275
2	1191	2461.168034168651	276
2	1196	2469.014859623625	277
2	1197	2472.520185468417	278
3	168	351.904357357934	10.177562559858
3	169	358.264984161005	16.488617484766
3	172	369.91195016487	21.453882827137
3	173	370.235524106419	19.941010411525
3	174	377.384524700085	13.745139508849
3	196	433.538823449968	37.571091007919
3	197	434.775854051312	7.616262603891
3	198	435.169911369704	2.404128451482
3	206	457.195985588266	7.24830709148
3	215	472.750714485145	13.574046709162
3	216	479.405530168376	10.606466023085
3	225	488.335515530086	2.079567223762
3	230	493.923046404077	2.910189009998
3	231	501.294666513514	9.517090827659
3	237	507.957267663979	0.819508119082
3	242	518.714848847343	6.158666934218
3	245	528.7616091668	15.3036469135
3	246	534.729508013195	6.921501151128
3	251	540.100567440055	4.394351091333
3	254	540.59549135823	1.990539365957
3	255	541.363909878606	0.988888611118
3	265	572.029621867586	11.581622451965
3	268	573.01164640345	9.137761848665
3	269	573.937969208334	2.211834799093
3	270	576.461478779332	4.274819428153
3	273	582.805526279512	0.642036946848
3	302	649.113945850103	62.312927708547
3	303	650.986763291412	63.808327147303
3	309	663.942854534344	42.572626795247
3	310	664.950051811191	25.303170517795
3	313	671.741120366762	16.542447297187
3	314	674.012322944521	14.951546545417
3	319	677.569159718506	6.151628677007
3	320	677.841844334582	3.630258488128
3	321	679.140343936874	2.841267691886
3	324	693.717032728071	0.035806917542
3	330	739.118069643295	2.983848116263
3	333	747.474734821237	0.17728618875
3	336	753.408679440432	1.2009467969
3	339	759.064457405402	0.651367021736
3	342	768.419004164015	3.011152502134
3	345	772.526424847137	2.062883717782
3	351	790.756457155419	5.657920581419
3	354	796.198619105128	3.952290418825
3	357	806.900469433245	3.142473326758
3	363	834.180784979527	3.567479785819
3	366	844.52169971335	1.108585769104
3	369	849.497952411687	0.203081233231
3	372	852.10070620109	0.395914908288
3	384	874.16903714114	19.337474203159
3	385	875.009286938156	8.191050222404
3	392	888.549330564608	19.455406747588
3	393	889.200749219431	19.324872911016
3	394	890.583915171531	14.087880259555
3	412	909.22812007179	22.892657676078
3	420	926.146840197913	34.266555466428
3	425	927.571831952453	27.366768452785
3	431	935.757130239778	26.867160192443
3	436	942.182484012421	28.158476298262
3	437	942.208487318144	25.355001058786
3	440	946.49272217272	28.799689472218
3	441	950.138068845291	23.843574655658
3	442	950.908129380825	23.977285373184
3	468	982.212146287291	47.340211497592
3	469	985.294573994093	49.300247631347
3	472	988.945971311198	51.268505709884
3	475	993.23154606605	48.341965898441
3	476	993.767981739505	42.457070677012
3	477	997.585891239735	42.68431848805
3	478	1001.67022122531	30.301584060837
3	479	1009.834360238063	37.31000479637
3	482	1013.152944959553	33.416711934977
3	485	1018.382680823725	37.428160531009
3	488	1031.19739031659	45.738439926606
3	489	1036.992824045205	44.678683455114
3	490	1046.1698815734	34.480004334306
3	499	1066.661084042118	42.913133417102
3	502	1076.161171963674	19.914260316739
3	503	1079.108384559347	16.699487730832
3	504	1082.578760971738	8.658453463397
3	507	1089.474139351195	3.061375665954
3	524	1132.756566224333	3.252435157039
3	525	1133.103089955224	2.965398988679
3	534	1146.695662518861	3.4715500431
3	545	1165.897421487042	0.717709075813
3	546	1166.034741276915	0.736446137109
3	555	1195.971043928495	1.227073083837
3	572	1247.907409698603	30.506032115431
3	576	1250.837560003924	13.180907033282
3	579	1264.816079429654	25.486239255438
3	580	1264.825696163858	22.408491040351
3	581	1270.433211557046	21.232833809313
3	584	1271.944979248543	18.93794711047
3	585	1273.280446023397	2.565352095151
3	591	1289.900534770302	2.760394957536
3	599	1313.844399776466	2.268820295692
3	600	1314.753220945207	2.11158922163
3	605	1319.614627564238	2.619804050206
3	606	1324.225546846597	6.16468141441
3	609	1328.800231596296	0.780946576079
3	614	1337.927531584814	7.257193609806
3	615	1338.674013018909	4.703368391031
3	625	1356.945076260404	10.791896085186
3	632	1362.34354497162	15.572532734238
3	637	1363.958557471698	12.688087340436
3	640	1366.64861355602	7.416522870167
3	641	1367.250931074005	7.68881325798
3	642	1370.620485113276	10.479077846267
3	643	1371.421524351934	9.0405875637
3	646	1373.730971326635	11.28441452438
3	649	1379.647266244038	15.073952886452
3	650	1385.753376314613	14.322653702706
3	651	1386.287988225779	9.806196928336
3	660	1398.944333688397	10.408362427722
3	661	1405.616648506012	14.690964216642
3	662	1407.438484962718	11.178398187359
3	663	1412.247299452422	13.72119724892
3	666	1414.285785726543	1.12149280299
3	677	1449.263289286311	10.820271085203
3	678	1451.815979739087	5.573561620666
3	685	1457.202840719906	4.31333325083
3	686	1457.406159955293	2.789675965053
3	701	1468.576187447885	5.23503694344
3	707	1475.205474266481	9.734144654333
3	708	1476.557380451992	10.880341691708
3	731	1500.886377643604	26.675901384766
3	732	1506.115656289078	29.316874409803
3	736	1513.870751232655	31.783669725707
3	745	1529.666951441223	38.838750354959
3	766	1556.49051025797	46.861343969373
3	767	1558.388784083465	43.86939652367
3	768	1561.168327084455	38.684623758064
3	769	1564.396217431657	35.535269159296
3	770	1568.217197675603	36.315337513654
3	771	1569.602114758088	33.830809757733
3	772	1571.529780916466	28.95496286467
3	776	1574.584448072404	24.298996541524
3	777	1574.967313497769	24.346423171838
3	787	1598.056563042855	46.668293186544
3	788	1602.444629376612	29.457808239225
3	789	1607.473761530491	29.297807883138
3	802	1625.536593349412	5.799444940233
3	803	1630.91406129755	10.055314959635
3	806	1638.141862948625	14.886249803762
3	807	1640.799966227073	4.629343299988
3	813	1653.187282474608	1.530071016422
3	816	1654.498488282615	1.130890681453
3	827	1687.730285741528	10.686973271817
3	833	1698.045858881854	8.187535082395
3	836	1701.081638353341	4.225234045815
3	841	1708.037671180369	7.421575356537
3	842	1708.813044831155	4.995726289505
3	843	1709.599739865241	5.640855160637
3	849	1724.85692128951	3.016039966423
3	852	1738.720094077837	0.080801870603
3	855	1740.512427467338	0.229414559878
3	862	1747.227794891291	5.285479932131
3	863	1751.175443980945	4.897120158536
3	864	1755.752962394173	8.619983925446
3	867	1766.389405752403	2.644446383061
3	870	1773.251614764871	6.419297567096
3	873	1781.405746415071	0.211685002687
3	876	1784.957150874984	0.94997800476
3	879	1791.709908042407	0.2651148174
3	906	1836.132068704252	12.219574395828
3	911	1850.530684763634	26.141786823375
3	912	1852.944925555282	27.912989718126
3	919	1858.811219918026	32.069106382167
3	920	1862.918194713413	33.740296708955
3	921	1863.060896843264	32.584921971817
3	922	1864.721452439574	31.99397434184
3	927	1872.11758679779	34.280750373098
3	928	1875.785535075523	26.72249109652
3	929	1876.12033789744	20.947980953434
3	941	1901.691468480703	43.178683192541
3	942	1901.841038351365	36.824720194265
3	945	1909.292789585339	38.402580283187
3	948	1912.733045660302	30.78560449518
3	951	1914.9433421586	32.623805323525
3	963	1930.86934452777	33.82407420847
3	964	1932.187081805403	31.048025293123
3	965	1935.525827946717	29.36018291074
3	966	1935.629274762402	24.214680504141
3	967	1937.69375847033	23.997295215218
3	968	1941.552757486311	25.430359257885
3	969	1942.226104367893	23.237460018781
3	970	1942.266183864223	21.030043845895
3	973	1949.147376350337	23.324692846545
3	978	1957.944156794868	27.903920646874
3	979	1961.795614913831	19.150658835879
3	982	1979.006743412682	24.877923810813
3	983	1985.343715988719	30.357789122802
3	984	1986.464937712069	10.414382528208
3	987	1993.359725356005	4.450910560897
3	990	1995.920256212847	1.020959391575
3	993	2002.389594279675	1.678796904439
3	996	2019.527543633383	1.655320802275
3	999	2024.723130173245	1.136729593059
3	1004	2038.450369089699	3.300996813948
3	1005	2045.27650045772	8.892730524893
3	1022	2077.286664142472	24.646443230572
3	1025	2081.841087136453	28.402304588135
3	1026	2081.963190633212	25.496791591806
3	1029	2089.944093475797	22.08206529986
3	1030	2094.094109178351	17.717416466722
3	1031	2095.572715403362	13.795731372641
3	1032	2098.501737257246	15.044578965635
3	1035	2106.89577088466	1.750390019571
3	1038	2136.229370280298	0.919642216093
3	1043	2162.734248767579	8.279019690407
3	1044	2164.150324231692	7.627577864384
3	1047	2170.00374462937	0.448988368045
3	1053	2194.066971306596	8.020031824491
3	1066	2203.902701535629	5.326007553253
3	1069	2208.002957856926	6.392657100666
3	1074	2232.490906386426	29.388071650876
3	1077	2234.566177706291	29.680497456482
3	1085	2248.167699744379	18.718391215687
3	1086	2249.704075962953	16.501071169224
3	1087	2252.005901070227	17.298893302923
3	1090	2256.987040184517	14.114681589446
3	1091	2259.540747881254	15.443405383134
3	1092	2259.932427390521	4.403967005543
3	1098	2275.82598406747	4.135180615678
3	1101	2285.095932868386	7.834242253329
3	1104	2286.728334040658	0.165902197192
3	1113	2294.610349658058	5.993334909493
3	1114	2297.706619221827	7.510895588653
3	1117	2302.434508817	10.645151898909
3	1118	2303.858864701911	9.372733967914
3	1121	2308.252811030809	6.53088175548
3	1122	2311.24471018078	6.611741824589
3	1134	2341.903987048842	3.807510460777
3	1141	2348.833149014229	1.495418882445
3	1144	2349.611194205948	2.255914445409
3	1145	2352.440336808075	4.61912467232
3	1148	2354.902836597454	5.546889263824
3	1151	2359.208747303301	6.107469412596
3	1154	2370.831000735865	13.243927099321
3	1155	2379.880797136099	19.330079689817
3	1165	2400.213535126427	4.856118110751
3	1168	2407.71768189548	8.728742515242
3	1169	2415.271624152969	15.913971187229
3	1170	2415.430813873235	9.496680143003
3	1179	2433.453262235256	6.713987266278
3	1187	2447.302281522303	6.43160785056
3	1190	2458.113175771049	13.130345398448
3	1191	2461.168034168651	6.963245428974
3	1196	2469.014859623625	5.830834548003
3	1197	2472.520185468417	9.060000701912
4	168	351.904357357934	10.127990681695
4	169	358.264984161005	9.806916823272
4	172	369.91195016487	19.617436469976
4	173	370.235524106419	6.596138915183
4	195	433.128238413619	37.16050597157
4	196	433.538823449968	6.379232002547
4	197	434.775854051312	2.01007113309
4	203	449.947678496786	0
4	206	457.195985588266	2.250258612313
4	211	459.384015933449	1.964992698887
4	214	469.712481738318	10.535813962335
4	215	472.750714485145	3.951650339854
4	224	486.255948306324	0
4	227	491.012857394079	0
4	230	493.923046404077	2.145470718222
4	236	507.542097539768	0.404337994871
4	239	512.556181913125	0
4	242	518.714848847343	5.256886594043
4	245	528.7616091668	0.953602304733
4	248	535.706216348722	0
4	251	540.100567440055	1.495615447782
4	254	540.59549135823	0.220470090742
4	262	569.258987202998	8.810987787377
4	265	572.029621867586	8.155737312801
4	268	573.01164640345	1.285511994209
4	269	573.937969208334	1.751309857155
4	272	582.163489332664	0
4	275	586.200971562991	0
4	301	648.300960387178	61.499942245622
4	302	649.113945850103	61.935509705994
4	303	650.986763291412	50.847465613277
4	306	657.129567833061	35.759340093964
4	309	663.942854534344	24.295973240948
4	310	664.950051811191	9.751378741616
4	313	671.741120366762	12.680343967658
4	314	674.012322944521	2.594791903022
4	319	677.569159718506	3.357573872052
4	320	677.841844334582	1.542768089594
4	323	693.681225810529	0
4	329	736.134221527032	0
4	332	747.297448632487	0
4	335	752.207732643532	0
4	338	758.413090383666	0
4	341	765.407851661881	0
4	344	770.463541129355	0
4	347	784.88289423812	0
4	350	789.290842800095	4.192306226095
4	353	792.246328686303	0
4	356	803.757996106487	0
4	362	830.613305193708	0
4	365	843.413113944246	0
4	368	849.294871178456	0
4	371	851.704791292802	0
4	374	852.417378293355	0
4	383	873.680340768845	18.848777830864
4	384	874.16903714114	7.350800425388
4	385	875.009286938156	5.915363121136
4	392	888.549330564608	18.673454256193
4	393	889.200749219431	12.704714307455
4	394	890.583915171531	4.648930183735
4	409	908.208723755499	21.873261359787
4	412	909.22812007179	18.360027987323
4	419	924.715840379714	32.835555648229
4	420	926.146840197913	25.941776698245
4	425	927.571831952453	24.69645290551
4	430	935.160223228292	26.270253180957
4	431	935.757130239778	21.733122525619
4	436	942.182484012421	25.328997753063
4	437	942.208487318144	24.515454617642
4	440	946.49272217272	20.198227983087
4	441	950.138068845291	23.20722483765
4	442	950.908129380825	22.520281644714
4	463	975.885810856889	41.01387606719
4	468	982.212146287291	46.217819924545
4	469	985.294573994093	47.617108392779
4	472	988.945971311198	44.056391143589
4	475	993.23154606605	41.920635003557
4	476	993.767981739505	38.86640898782
4	477	997.585891239735	26.217254075262
4	478	1001.67022122531	29.145865783617
4	479	1009.834360238063	30.098127213487
4	482	1013.152944959553	32.198424666837
4	485	1018.382680823725	32.923730433741
4	488	1031.19739031659	38.883249726499
4	489	1036.992824045205	25.302946806111
4	490	1046.1698815734	29.744087865987
4	498	1063.511620937072	39.763670312056
4	499	1066.661084042118	10.414172395183
4	502	1076.161171963674	13.752275135159
4	503	1079.108384559347	5.188077051006
4	506	1086.412763685241	0
4	523	1130.298181363572	0.794050296278
4	524	1132.756566224333	2.618875257788
4	530	1142.125729052923	0
4	533	1144.517398002091	1.29328552633
4	544	1165.820452751738	0.640740340509
4	545	1165.897421487042	0.599126347236
4	554	1194.743970844658	0
4	569	1240.765273013148	23.363895429976
4	572	1247.907409698603	12.830568908867
4	575	1249.877558538909	12.220905568267
4	576	1250.837560003924	11.507719829708
4	579	1264.816079429654	22.398874306147
4	580	1264.825696163858	15.625318416125
4	581	1270.433211557046	17.426179418973
4	584	1271.944979248543	1.229885320297
4	590	1287.140139812766	0
4	596	1311.575579480774	0
4	599	1313.844399776466	1.202768052889
4	602	1316.994823514032	0
4	605	1319.614627564238	1.553762132051
4	608	1328.019285020217	0
4	611	1330.670337975008	0
4	614	1337.927531584814	3.956886956936
4	617	1340.742713307508	0
4	624	1355.929239813019	9.776059637801
4	625	1356.945076260404	10.174064023022
4	632	1362.34354497162	11.073074840358
4	637	1363.958557471698	4.726466785845
4	640	1366.64861355602	7.086495739995
4	641	1367.250931074005	7.109523806996
4	642	1370.620485113276	8.239548325042
4	643	1371.421524351934	8.974967549679
4	646	1373.730971326635	9.157657969049
4	649	1379.647266244038	8.216543632131
4	650	1385.753376314613	9.27158501717
4	653	1388.535971260675	0
4	660	1398.944333688397	8.018649399027
4	661	1405.616648506012	9.356561730653
4	662	1407.438484962718	8.912382759216
4	665	1413.164292923553	0
4	674	1444.540477148798	6.09745894769
4	677	1449.263289286311	3.02087116789
4	680	1452.889507469076	0
4	685	1457.202840719906	2.586356729666
4	686	1457.406159955293	0.299352588985
4	693	1464.919526612869	2.687885264408
4	700	1466.801805125089	3.460654620644
4	701	1468.576187447885	4.057347795918
4	706	1474.373076631771	8.901747019623
4	707	1475.205474266481	9.528435506197
4	708	1476.557380451992	10.215775549005
4	720	1483.657970555671	12.693313755491
4	730	1497.679882546859	23.469406288021
4	731	1500.886377643604	24.087595764329
4	732	1506.115656289078	28.337411040118
4	735	1511.884936455323	29.797854948375
4	736	1513.870751232655	31.629123315903
4	739	1521.224092345244	32.760870182741
4	742	1523.650199366205	32.821998279941
4	745	1529.666951441223	38.066851494193
4	757	1549.234031418051	39.604865129454
4	766	1556.49051025797	41.971122698175
4	767	1558.388784083465	35.905080757074
4	768	1561.168327084455	32.307378812094
4	769	1564.396217431657	32.494357269708
4	770	1568.217197675603	32.445892675248
4	771	1569.602114758088	27.027296706292
4	772	1571.529780916466	25.389629593228
4	775	1573.474501883317	23.189050352437
4	776	1574.584448072404	23.963557746473
4	777	1574.967313497769	24.055426991915
4	786	1596.271364434554	44.883094578243
4	787	1598.056563042855	25.069741905468
4	788	1602.444629376612	24.268675729259
4	796	1620.629704192004	10.223228735248
4	801	1625.177549031103	5.440400621924
4	802	1625.536593349412	4.677847011497
4	803	1630.91406129755	7.658448152687
4	806	1638.141862948625	1.97124002154
4	809	1647.276199399388	0
4	812	1651.659160558626	0.00194910044
4	815	1653.367597601162	0
4	824	1677.043312469711	0
4	827	1687.730285741528	10.060641699346
4	830	1694.537288354916	4.678964555457
4	833	1698.045858881854	1.189454574328
4	836	1701.081638353341	0.465542529509
4	841	1708.037671180369	4.220352638719
4	842	1708.813044831155	4.854160126551
4	848	1721.840881323087	0
4	851	1738.639292207234	0
4	854	1740.28301290746	0
4	857	1741.94231495916	0
4	862	1747.227794891291	0.949471068882
4	863	1751.175443980945	4.042465512218
4	866	1763.744959369342	0
4	869	1766.832317197775	0
4	872	1781.194061412384	0
4	875	1784.007172870224	0
4	878	1791.444793225007	0
4	890	1818.982854119794	0.215279745667
4	901	1829.96149814846	6.049003840036
4	906	1836.132068704252	11.743170763993
4	911	1850.530684763634	25.498748926478
4	912	1852.944925555282	26.202812019423
4	919	1858.811219918026	29.633321913568
4	920	1862.918194713413	32.442219841966
4	921	1863.060896843264	30.33341874553
4	922	1864.721452439574	26.884616014882
4	927	1872.11758679779	23.054542818787
4	928	1875.785535075523	20.613178131517
4	929	1876.12033789744	19.119044650272
4	936	1895.22577745265	36.712992164488
4	941	1901.691468480703	36.675150323603
4	942	1901.841038351365	30.950829049213
4	945	1909.292789585339	27.345348420217
4	948	1912.733045660302	30.413508825227
4	951	1914.9433421586	20.291271184245
4	960	1926.944428266701	29.899157947401
4	963	1930.86934452777	29.73028801549
4	964	1932.187081805403	26.021436769426
4	965	1935.525827946717	24.111233688456
4	966	1935.629274762402	21.93281150729
4	967	1937.69375847033	21.571360241904
4	968	1941.552757486311	22.564113137199
4	969	1942.226104367893	20.989964349565
4	970	1942.266183864223	16.443500360431
4	973	1949.147376350337	19.107140202343
4	978	1957.944156794868	15.299200716916
4	979	1961.795614913831	7.666795311962
4	982	1979.006743412682	24.020816546765
4	983	1985.343715988719	9.293160804858
4	986	1988.908814795108	0
4	989	1994.899296821272	0
4	992	2000.710797375236	0
4	995	2017.872222831108	0
4	998	2023.586400580186	0
4	1001	2035.149372275751	0
4	1004	2038.450369089699	2.066599156872
4	1019	2070.273930916855	17.633710004955
4	1022	2077.286664142472	23.847881594154
4	1025	2081.841087136453	25.374688095047
4	1026	2081.963190633212	14.101162457275
4	1029	2089.944093475797	13.567400764168
4	1030	2094.094109178351	12.31712514763
4	1031	2095.572715403362	12.115557111751
4	1034	2105.145380865089	0
4	1037	2135.309728064205	0
4	1040	2154.455229077172	0
4	1043	2162.734248767579	6.211502400271
4	1046	2169.554756261325	0
4	1049	2170.07863638295	0
4	1052	2186.201631296938	0.154691814833
4	1061	2200.548765262009	1.972071279633
4	1066	2203.902701535629	2.292400779369
4	1069	2208.002957856926	4.900123121376
4	1074	2232.490906386426	27.605226136617
4	1077	2234.566177706291	21.927918751579
4	1084	2245.243531250884	15.794222722192
4	1085	2248.167699744379	14.96469495065
4	1086	2249.704075962953	14.997068195649
4	1087	2252.005901070227	9.133542475156
4	1090	2256.987040184517	12.889697686397
4	1091	2259.540747881254	4.012287496276
4	1097	2271.690803451792	0
4	1100	2277.261690615057	0
4	1103	2286.562431843466	0
4	1106	2288.617014748565	0
4	1113	2294.610349658058	4.414626024884
4	1114	2297.706619221827	5.917262303736
4	1117	2302.434508817	7.948378083003
4	1118	2303.858864701911	2.136935426582
4	1121	2308.252811030809	3.619842674618
4	1130	2330.756959188175	0
4	1133	2339.920051463521	1.823574875456
4	1136	2347.337730131784	0
4	1141	2348.833149014229	1.47786925369
4	1144	2349.611194205948	1.789982070193
4	1145	2352.440336808075	3.084389474445
4	1148	2354.902836597454	1.801558706749
4	1151	2359.208747303301	1.621673666757
4	1154	2370.831000735865	10.280283289583
4	1157	2392.293092303921	0
4	1160	2395.741248215716	0.38383120004
4	1165	2400.213535126427	1.224595746189
4	1168	2407.71768189548	8.36002892974
4	1169	2415.271624152969	9.337490422737
4	1172	2415.654602181887	0
4	1175	2418.739518902685	1.027456618244
4	1178	2429.230886802438	2.49161183346
4	1186	2445.341379966832	4.470706295089
4	1187	2447.302281522303	2.319451149702
4	1190	2458.113175771049	3.908387031372
4	1193	2463.184025075622	0
4	1196	2469.014859623625	5.55467485712
5	176	378.709152250134	1
5	178	380.27431564241	2
5	181	389.235505617551	2
5	183	390.977351324658	3
5	189	418.365243161892	2
5	200	440.53012720774	1
5	208	457.419023234562	1
5	213	468.799064145291	1
5	218	480.318230797203	1
5	221	484.90952384887	1
5	233	505.961850649434	1
5	257	554.110108776546	1
5	279	587.178436144109	1
5	281	592.643012636746	2
5	285	600.245437869745	3
5	287	600.66151758005	4
5	290	608.864634039198	4
5	297	628.992075770935	2
5	305	655.198673069575	1
5	326	721.458044270898	1
5	349	785.098536574	1
5	359	813.085741460761	1
5	376	854.831562937981	1
5	396	890.868092084467	1
5	400	892.822221156924	2
5	407	904.440978452057	2
5	414	914.024007714159	1
5	427	928.387847736111	1
5	444	951.310911062493	1
5	446	951.721988495665	2
5	451	954.912534915324	2
5	453	963.443723202907	3
5	457	968.301676543182	2
5	492	1056.246911646935	1
5	494	1057.563382410452	2
5	509	1093.973552858002	1
5	512	1101.54876270529	1
5	515	1111.932910573383	1
5	518	1127.786404134727	1
5	527	1138.483016837908	1
5	532	1143.224112475761	1
5	536	1151.149186355431	1
5	539	1161.456839193517	1
5	548	1173.797537388465	1
5	551	1191.368243655724	1
5	557	1216.415934965837	1
5	561	1217.598482219436	2
5	574	1249.200377747733	1
5	587	1277.083159288513	1
5	593	1303.717692866975	1
5	619	1346.153180175218	1
5	668	1418.001472486213	1
5	671	1436.179366792582	1
5	688	1462.231641348461	1
5	699	1466.341604902987	1
5	703	1470.96465680018	1
5	712	1477.77824524896	1
5	714	1478.053095075698	2
5	722	1488.463222162503	1
5	724	1490.418657299978	2
5	734	1509.629166288597	1
5	738	1514.519387559795	1
5	741	1522.483703326391	1
5	747	1531.901860161949	1
5	749	1535.646236770744	2
5	774	1572.986821137387	1
5	779	1578.175953647353	1
5	781	1585.241753050579	2
5	783	1587.132978603985	3
5	791	1607.866900230068	1
5	798	1620.858746337915	1
5	811	1651.657211458186	1
5	818	1663.458451971507	1
5	820	1669.807579158733	2
5	829	1689.858323799459	1
5	845	1718.415691489493	1
5	881	1800.015885119056	1
5	884	1808.0803409936	1
5	886	1810.341179370831	2
5	894	1824.388897940259	1
5	931	1881.947441165122	1
5	953	1916.122398228426	1
5	1007	2045.666673793756	1
5	1015	2059.687067641443	2
5	1051	2186.046939482105	1
5	1055	2194.833129946157	1
5	1058	2196.299699915596	1
5	1083	2244.09734249812	1
5	1094	2265.22514778348	1
5	1124	2316.970532866741	1
5	1126	2323.784024738193	2
5	1132	2338.096476588065	1
5	1159	2395.357417015676	1
5	1174	2417.712062284441	1
5	1177	2426.739274968978	1
5	1181	2439.090611052453	1
5	1199	2480.174805911224	1
5	1202	2495.979355742821	1
6	176	378.709152250134	0
6	178	380.27431564241	1
6	179	385.430920471266	1
6	181	389.235505617551	1
6	183	390.977351324658	2
6	184	392.349507266839	2
6	187	396.059256471321	1
6	189	418.365243161892	1
6	190	425.941454825716	1
6	195	433.128238413619	0
6	200	440.53012720774	0
6	201	441.37584365362	0
6	208	457.419023234562	0
6	211	459.384015933449	0
6	213	468.799064145291	0
6	214	469.712481738318	0
6	218	480.318230797203	0
6	219	481.245676999422	0
6	221	484.90952384887	0
6	222	486.179701436593	0
6	233	505.961850649434	0
6	236	507.542097539768	0
6	257	554.110108776546	0
6	262	569.258987202998	0
6	279	587.178436144109	0
6	281	592.643012636746	1
6	285	600.245437869745	2
6	287	600.66151758005	3
6	288	602.936921475162	3
6	290	608.864634039198	3
6	291	611.844960151098	3
6	292	613.99039112254	2
6	295	627.172428720909	1
6	297	628.992075770935	1
6	298	629.535732284638	1
6	301	648.300960387178	0
6	305	655.198673069575	0
6	306	657.129567833061	0
6	326	721.458044270898	0
6	327	729.737678090866	0
6	349	785.098536574	0
6	350	789.290842800095	0
6	359	813.085741460761	0
6	360	825.374866031221	0
6	376	854.831562937981	0
6	383	873.680340768845	0
6	396	890.868092084467	0
6	400	892.822221156924	1
6	401	892.924707757544	1
6	407	904.440978452057	1
6	408	904.55180092781	1
6	409	908.208723755499	0
6	414	914.024007714159	0
6	419	924.715840379714	0
6	427	928.387847736111	0
6	430	935.160223228292	0
6	444	951.310911062493	0
6	446	951.721988495665	1
6	447	952.396813534867	1
6	451	954.912534915324	1
6	453	963.443723202907	2
6	454	964.855932776059	2
6	455	964.969502332229	1
6	457	968.301676543182	1
6	462	973.20225201469	1
6	463	975.885810856889	0
6	492	1056.246911646935	0
6	494	1057.563382410452	1
6	495	1057.889841093595	1
6	498	1063.511620937072	0
6	509	1093.973552858002	0
6	510	1095.682089398831	0
6	512	1101.54876270529	0
6	513	1104.622048375946	0
6	515	1111.932910573383	0
6	516	1112.324918471875	0
6	518	1127.786404134727	0
6	523	1130.298181363572	0
6	527	1138.483016837908	0
6	528	1139.840331073326	0
6	532	1143.224112475761	0
6	533	1144.517398002091	0
6	536	1151.149186355431	0
6	537	1154.702605980971	0
6	539	1161.456839193517	0
6	544	1165.820452751738	0
6	548	1173.797537388465	0
6	549	1174.414724232736	0
6	551	1191.368243655724	0
6	552	1193.113638890336	0
6	557	1216.415934965837	0
6	561	1217.598482219436	1
6	564	1236.023202327306	1
6	569	1240.765273013148	0
6	574	1249.200377747733	0
6	575	1249.877558538909	0
6	587	1277.083159288513	0
6	588	1286.70354000466	0
6	593	1303.717692866975	0
6	594	1306.356296587139	0
6	619	1346.153180175218	0
6	624	1355.929239813019	0
6	668	1418.001472486213	0
6	669	1422.88635416102	0
6	671	1436.179366792582	0
6	674	1444.540477148798	0
6	688	1462.231641348461	0
6	693	1464.919526612869	0
6	699	1466.341604902987	0
6	700	1466.801805125089	0
6	703	1470.96465680018	0
6	706	1474.373076631771	0
6	712	1477.77824524896	0
6	714	1478.053095075698	1
6	719	1483.097667817443	1
6	720	1483.657970555671	0
6	722	1488.463222162503	0
6	724	1490.418657299978	1
6	729	1491.826652938163	1
6	730	1497.679882546859	0
6	734	1509.629166288597	0
6	735	1511.884936455323	0
6	738	1514.519387559795	0
6	739	1521.224092345244	0
6	741	1522.483703326391	0
6	742	1523.650199366205	0
6	747	1531.901860161949	0
6	749	1535.646236770744	1
6	752	1540.94821493639	1
6	757	1549.234031418051	0
6	774	1572.986821137387	0
6	775	1573.474501883317	0
6	779	1578.175953647353	0
6	781	1585.241753050579	1
6	783	1587.132978603985	2
6	784	1593.158154634016	2
6	785	1595.564394936705	1
6	786	1596.271364434554	0
6	791	1607.866900230068	0
6	796	1620.629704192004	0
6	798	1620.858746337915	0
6	801	1625.177549031103	0
6	811	1651.657211458186	0
6	812	1651.659160558626	0
6	818	1663.458451971507	0
6	820	1669.807579158733	1
6	821	1673.234149407519	1
6	822	1674.9895809918	0
6	829	1689.858323799459	0
6	830	1694.537288354916	0
6	845	1718.415691489493	0
6	846	1719.57641807002	0
6	881	1800.015885119056	0
6	882	1801.137856357017	0
6	884	1808.0803409936	0
6	886	1810.341179370831	1
6	887	1810.572075866355	1
6	890	1818.982854119794	0
6	894	1824.388897940259	0
6	901	1829.96149814846	0
6	931	1881.947441165122	0
6	936	1895.22577745265	0
6	953	1916.122398228426	0
6	960	1926.944428266701	0
6	1007	2045.666673793756	0
6	1015	2059.687067641443	1
6	1016	2060.392946580334	1
6	1019	2070.273930916855	0
6	1051	2186.046939482105	0
6	1052	2186.201631296938	0
6	1055	2194.833129946157	0
6	1056	2196.164498599017	0
6	1058	2196.299699915596	0
6	1061	2200.548765262009	0
6	1083	2244.09734249812	0
6	1084	2245.243531250884	0
6	1094	2265.22514778348	0
6	1095	2265.447768052674	0
6	1124	2316.970532866741	0
6	1126	2323.784024738193	1
6	1127	2327.839451454783	1
6	1128	2327.986249934025	0
6	1132	2338.096476588065	0
6	1133	2339.920051463521	0
6	1159	2395.357417015676	0
6	1160	2395.741248215716	0
6	1174	2417.712062284441	0
6	1175	2418.739518902685	0
6	1177	2426.739274968978	0
6	1178	2429.230886802438	0
6	1181	2439.090611052453	0
6	1186	2445.341379966832	0
6	1199	2480.174805911224	0
6	1200	2487.432932482901	0
6	1202	2495.979355742821	0
6	1203	2497.632859238079	0
7	176	378.709152250134	0
7	179	385.430920471266	5.156604828856
7	184	392.349507266839	3.114001649288
7	187	396.059256471321	5.081905146663
7	190	425.941454825716	7.576211663824
7	200	440.53012720774	0
7	208	457.419023234562	0
7	213	468.799064145291	0
7	218	480.318230797203	0
7	221	484.90952384887	0
7	233	505.961850649434	0
7	257	554.110108776546	0
7	279	587.178436144109	0
7	288	602.936921475162	10.293908838416
7	291	611.844960151098	11.599522281353
7	292	613.99039112254	13.32887354249
7	295	627.172428720909	18.307794681711
7	298	629.535732284638	0.543656513703
7	305	655.198673069575	0
7	326	721.458044270898	0
7	349	785.098536574	0
7	359	813.085741460761	0
7	376	854.831562937981	0
7	396	890.868092084467	0
7	401	892.924707757544	0.10248660062
7	408	904.55180092781	0.110822475753
7	414	914.024007714159	0
7	427	928.387847736111	0
7	444	951.310911062493	0
7	447	952.396813534867	0.674825039202
7	454	964.855932776059	9.943397860735
7	455	964.969502332229	1.525779129322
7	462	973.20225201469	4.900575471508
7	492	1056.246911646935	0
7	495	1057.889841093595	0.326458683143
7	509	1093.973552858002	0
7	512	1101.54876270529	0
7	515	1111.932910573383	0
7	518	1127.786404134727	0
7	527	1138.483016837908	0
7	532	1143.224112475761	0
7	536	1151.149186355431	0
7	539	1161.456839193517	0
7	548	1173.797537388465	0
7	551	1191.368243655724	0
7	557	1216.415934965837	0
7	564	1236.023202327306	18.42472010787
7	574	1249.200377747733	0
7	587	1277.083159288513	0
7	593	1303.717692866975	0
7	619	1346.153180175218	0
7	668	1418.001472486213	0
7	671	1436.179366792582	0
7	688	1462.231641348461	0
7	699	1466.341604902987	0
7	703	1470.96465680018	0
7	712	1477.77824524896	0
7	719	1483.097667817443	5.044572741745
7	722	1488.463222162503	0
7	729	1491.826652938163	1.407995638185
7	734	1509.629166288597	0
7	738	1514.519387559795	0
7	741	1522.483703326391	0
7	747	1531.901860161949	0
7	752	1540.94821493639	5.301978165646
7	774	1572.986821137387	0
7	779	1578.175953647353	0
7	784	1593.158154634016	7.916401583437
7	785	1595.564394936705	8.43141633272
7	791	1607.866900230068	0
7	798	1620.858746337915	0
7	811	1651.657211458186	0
7	818	1663.458451971507	0
7	821	1673.234149407519	3.426570248786
7	829	1689.858323799459	0
7	845	1718.415691489493	0
7	881	1800.015885119056	0
7	884	1808.0803409936	0
7	887	1810.572075866355	0.230896495524
7	894	1824.388897940259	0
7	931	1881.947441165122	0
7	953	1916.122398228426	0
7	1007	2045.666673793756	0
7	1016	2060.392946580334	0.705878938891
7	1051	2186.046939482105	0
7	1055	2194.833129946157	0
7	1058	2196.299699915596	0
7	1083	2244.09734249812	0
7	1094	2265.22514778348	0
7	1124	2316.970532866741	0
7	1127	2327.839451454783	4.05542671659
7	1132	2338.096476588065	0
7	1159	2395.357417015676	0
7	1174	2417.712062284441	0
7	1177	2426.739274968978	0
7	1181	2439.090611052453	0
7	1199	2480.174805911224	0
7	1202	2495.979355742821	0
8	179	385.430920471266	26
8	184	392.349507266839	27
8	187	396.059256471321	28
8	190	425.941454825716	29
8	195	433.128238413619	30
8	201	441.37584365362	31
8	211	459.384015933449	32
8	214	469.712481738318	33
8	219	481.245676999422	34
8	222	486.179701436593	35
8	236	507.542097539768	36
8	262	569.258987202998	37
8	288	602.936921475162	38
8	291	611.844960151098	39
8	292	613.99039112254	40
8	295	627.172428720909	41
8	298	629.535732284638	42
8	301	648.300960387178	43
8	306	657.129567833061	44
8	327	729.737678090866	45
8	350	789.290842800095	46
8	360	825.374866031221	47
8	383	873.680340768845	48
8	401	892.924707757544	49
8	408	904.55180092781	50
8	409	908.208723755499	51
8	419	924.715840379714	52
8	430	935.160223228292	53
8	447	952.396813534867	54
8	454	964.855932776059	55
8	455	964.969502332229	56
8	462	973.20225201469	57
8	463	975.885810856889	58
8	495	1057.889841093595	59
8	498	1063.511620937072	60
8	510	1095.682089398831	61
8	513	1104.622048375946	62
8	516	1112.324918471875	63
8	523	1130.298181363572	64
8	528	1139.840331073326	65
8	533	1144.517398002091	66
8	537	1154.702605980971	67
8	544	1165.820452751738	68
8	549	1174.414724232736	69
8	552	1193.113638890336	70
8	564	1236.023202327306	71
8	569	1240.765273013148	72
8	575	1249.877558538909	73
8	588	1286.70354000466	74
8	594	1306.356296587139	75
8	624	1355.929239813019	76
8	669	1422.88635416102	77
8	674	1444.540477148798	78
8	693	1464.919526612869	79
8	700	1466.801805125089	80
8	706	1474.373076631771	81
8	719	1483.097667817443	82
8	720	1483.657970555671	83
8	729	1491.826652938163	84
8	730	1497.679882546859	85
8	735	1511.884936455323	86
8	739	1521.224092345244	87
8	742	1523.650199366205	88
8	752	1540.94821493639	89
8	757	1549.234031418051	90
8	775	1573.474501883317	91
8	784	1593.158154634016	92
8	785	1595.564394936705	93
8	786	1596.271364434554	94
8	796	1620.629704192004	95
8	801	1625.177549031103	96
8	812	1651.659160558626	97
8	821	1673.234149407519	98
8	822	1674.9895809918	99
8	830	1694.537288354916	100
8	846	1719.57641807002	101
8	882	1801.137856357017	102
8	887	1810.572075866355	103
8	890	1818.982854119794	104
8	901	1829.96149814846	105
8	936	1895.22577745265	106
8	960	1926.944428266701	107
8	1016	2060.392946580334	108
8	1019	2070.273930916855	109
8	1052	2186.201631296938	110
8	1056	2196.164498599017	111
8	1061	2200.548765262009	112
8	1084	2245.243531250884	113
8	1095	2265.447768052674	114
8	1127	2327.839451454783	115
8	1128	2327.986249934025	116
8	1133	2339.920051463521	117
8	1160	2395.741248215716	118
8	1175	2418.739518902685	119
8	1178	2429.230886802438	120
8	1186	2445.341379966832	121
8	1200	2487.432932482901	122
8	1203	2497.632859238079	123
9	179	385.430920471266	6.721768221132
9	184	392.349507266839	12.075191624429
9	187	396.059256471321	6.82375085377
9	190	425.941454825716	34.964103501058
9	195	433.128238413619	14.762995251727
9	201	441.37584365362	0.84571644588
9	211	459.384015933449	1.964992698887
9	214	469.712481738318	0.913417593027
9	219	481.245676999422	0.927446202219
9	222	486.179701436593	1.270177587723
9	236	507.542097539768	1.580246890334
9	262	569.258987202998	15.148878426452
9	288	602.936921475162	15.758485331053
9	291	611.844960151098	19.201947514352
9	292	613.99039112254	13.744953252795
9	295	627.172428720909	26.510911140859
9	298	629.535732284638	20.67109824544
9	301	648.300960387178	19.308884616243
9	306	657.129567833061	1.930894763486
9	327	729.737678090866	8.279633819968
9	350	789.290842800095	4.192306226095
9	360	825.374866031221	12.28912457046
9	383	873.680340768845	18.848777830864
9	401	892.924707757544	2.056615673077
9	408	904.55180092781	11.729579770886
9	409	908.208723755499	3.767745303442
9	419	924.715840379714	10.691832665555
9	430	935.160223228292	6.772375492181
9	447	952.396813534867	1.085902472374
9	454	964.855932776059	13.133944280394
9	455	964.969502332229	10.056967416905
9	462	973.20225201469	9.758528811783
9	463	975.885810856889	7.584134313707
9	495	1057.889841093595	1.64292944666
9	498	1063.511620937072	5.94823852662
9	510	1095.682089398831	1.708536540829
9	513	1104.622048375946	3.073285670656
9	516	1112.324918471875	0.392007898492
9	523	1130.298181363572	2.511777228845
9	528	1139.840331073326	1.357314235418
9	533	1144.517398002091	1.29328552633
9	537	1154.702605980971	3.55341962554
9	544	1165.820452751738	4.363613558221
9	549	1174.414724232736	0.617186844271
9	552	1193.113638890336	1.745395234612
9	564	1236.023202327306	19.607267361469
9	569	1240.765273013148	23.166790793712
9	575	1249.877558538909	0.677180791176
9	588	1286.70354000466	9.620380716147
9	594	1306.356296587139	2.638603720164
9	624	1355.929239813019	9.776059637801
9	669	1422.88635416102	4.884881674807
9	674	1444.540477148798	8.361110356216
9	693	1464.919526612869	2.687885264408
9	700	1466.801805125089	0.460200222102
9	706	1474.373076631771	3.408419831591
9	719	1483.097667817443	5.319422568483
9	720	1483.657970555671	5.604875479973
9	729	1491.826652938163	3.36343077566
9	730	1497.679882546859	7.261225246881
9	735	1511.884936455323	2.255770166726
9	739	1521.224092345244	6.704704785449
9	742	1523.650199366205	1.166496039814
9	752	1540.94821493639	9.046354774441
9	757	1549.234031418051	13.587794647307
9	775	1573.474501883317	0.48768074593
9	784	1593.158154634016	14.982200986663
9	785	1595.564394936705	10.322641886126
9	786	1596.271364434554	9.138385830569
9	796	1620.629704192004	12.762803961936
9	801	1625.177549031103	4.318802693188
9	812	1651.659160558626	0.00194910044
9	821	1673.234149407519	9.775697436012
9	822	1674.9895809918	5.182001833067
9	830	1694.537288354916	4.678964555457
9	846	1719.57641807002	1.160726580527
9	882	1801.137856357017	1.121971237961
9	887	1810.572075866355	2.491734872755
9	890	1818.982854119794	8.641674748963
9	901	1829.96149814846	5.572600208201
9	936	1895.22577745265	13.278336287528
9	960	1926.944428266701	10.822030038275
9	1016	2060.392946580334	14.726272786578
9	1019	2070.273930916855	10.586863275412
9	1052	2186.201631296938	0.154691814833
9	1056	2196.164498599017	1.33136865286
9	1061	2200.548765262009	4.249065346413
9	1084	2245.243531250884	1.146188752764
9	1095	2265.447768052674	0.222620269194
9	1127	2327.839451454783	10.868918588042
9	1128	2327.986249934025	4.202225195832
9	1133	2339.920051463521	1.823574875456
9	1160	2395.741248215716	0.38383120004
9	1175	2418.739518902685	1.027456618244
9	1178	2429.230886802438	2.49161183346
9	1186	2445.341379966832	6.250768914379
9	1200	2487.432932482901	7.258126571677
9	1203	2497.632859238079	1.653503495258
10	208	457.419023234562	15
10	213	468.799064145291	16
10	279	587.178436144109	17
10	305	655.198673069575	18
10	349	785.098536574	19
10	376	854.831562937981	20
10	396	890.868092084467	21
10	414	914.024007714159	22
10	427	928.387847736111	23
10	444	951.310911062493	24
10	492	1056.246911646935	25
10	532	1143.224112475761	26
10	574	1249.200377747733	27
10	619	1346.153180175218	28
10	688	1462.231641348461	29
10	699	1466.341604902987	30
10	703	1470.96465680018	31
10	712	1477.77824524896	32
10	722	1488.463222162503	33
10	734	1509.629166288597	34
10	738	1514.519387559795	35
10	741	1522.483703326391	36
10	747	1531.901860161949	37
10	774	1572.986821137387	38
10	779	1578.175953647353	39
10	798	1620.858746337915	40
10	811	1651.657211458186	41
10	829	1689.858323799459	42
10	894	1824.388897940259	43
10	931	1881.947441165122	44
10	953	1916.122398228426	45
10	1051	2186.046939482105	46
10	1083	2244.09734249812	47
10	1132	2338.096476588065	48
10	1159	2395.357417015676	49
10	1174	2417.712062284441	50
10	1177	2426.739274968978	51
11	1204	2500	0.1112
12	1204	2500	0.0492

