version 2
run experiments_medium_game_mode1-517-20230311-09:41:44-11273
attr configname experiments_medium_game_mode1
attr datetime 20230311-09:41:44
attr experiment experiments_medium_game_mode1
attr inifile omnetpp.ini
attr iterationvars "$0=5.5, $1=6, $2=100"
attr iterationvarsf 5.5,6,100-
attr measurement "$0=5.5, $1=6, $2=100"
attr network Network
attr processid 11273
attr repetition 7
attr replication #7
attr resultdir results
attr runnumber 517
attr seedset 7
param *.boss.arrival_mean 20
param *.boss.service_mean 5.5
param *.minion.arrival_mean 10
param *.minion.service_mean 6
param *.player.recover_rate_x 100
param **.minion.arrival_distribution 0
param **.minion.service_distribution 0
param **.boss.arrival_distribution 0
param **.boss.service_distribution 0

vector 0 Network.player boss_jobs_number_stat:vector ETV
attr source signal_boss_jobs_number
vector 1 Network.player boss_jobs_queue_number_stat:vector ETV
attr source signal_boss_jobs_queue_number
vector 2 Network.player boss_waiting_time_stat:vector ETV
attr source signal_boss_waiting_time
vector 3 Network.player minion_jobs_number_stat:vector ETV
attr source signal_minion_jobs_number
vector 4 Network.player minion_jobs_queue_number_stat:vector ETV
attr source signal_minion_jobs_queue_number
vector 5 Network.player boss_defeated_stat:vector ETV
attr source signal_boss_defeated
vector 6 Network.player boss_response_time_stat:vector ETV
attr source signal_boss_response_time
vector 7 Network.player minion_waiting_time_stat:vector ETV
attr source signal_minion_waiting_time
vector 8 Network.player minion_defeated_stat:vector ETV
attr source signal_minion_defeated
vector 9 Network.player minion_response_time_stat:vector ETV
attr source signal_minion_response_time
vector 10 Network.player minion_recovered_stat:vector ETV
attr source signal_minion_recovered
vector 11 Network.player minion_throughput:vector ETV
attr source signal_minion_throughput
vector 12 Network.player boss_throughput:vector ETV
attr source signal_boss_throughput
0	122	354.444077836132	1
0	134	406.898104172744	1
0	138	412.257206650644	2
0	154	436.114629776888	1
0	163	453.737651697012	1
0	166	454.215286568968	1
0	173	464.656055005741	1
0	176	476.260410756314	1
0	179	479.189485801982	1
0	182	483.085877055807	1
0	189	498.797104969028	1
0	194	504.528118920206	1
0	199	519.131660745384	1
0	221	592.360836225431	1
0	225	621.482739564962	1
0	227	622.989798236534	2
0	251	677.30644856781	1
0	256	692.35140995363	1
0	258	694.23110564586	2
0	261	699.495877799079	2
0	266	703.853308695614	2
0	268	710.741952008659	3
0	304	813.718144071485	1
0	310	827.514843339431	1
0	314	832.877151770902	1
0	316	834.115971989249	2
0	327	839.578052108125	1
0	340	879.643308591697	1
0	346	899.479755191889	1
0	376	976.565614317659	1
0	386	1003.12254496667	1
0	388	1003.62455407805	2
0	392	1026.941684101135	1
0	395	1030.833821058568	1
0	397	1031.466333288233	2
0	402	1039.284372261193	2
0	419	1085.845270508107	1
0	424	1100.918783639256	1
0	428	1107.668427627462	2
0	450	1161.237628372735	1
0	457	1177.458798046421	1
0	476	1243.026575003035	1
0	482	1252.472146928695	1
0	522	1354.658220514177	1
0	524	1355.197924768725	2
0	531	1382.867144682827	1
0	538	1396.497411846483	1
0	541	1406.293757776049	1
0	547	1442.295449873716	1
0	554	1451.72734647732	1
0	560	1460.872643203582	1
0	569	1481.237026826022	1
0	575	1495.724918166403	1
0	578	1499.13631228092	1
0	587	1511.92385810321	1
0	607	1581.533932958997	1
0	610	1591.294094495414	1
0	638	1665.178439283615	1
0	649	1692.44070236867	1
0	651	1693.608171517466	2
0	657	1701.774818324175	1
0	664	1707.872550576227	1
0	680	1725.971570480458	1
0	683	1730.598897677657	1
0	687	1738.198745412658	1
0	693	1744.347793922827	1
0	698	1752.848412235259	1
0	704	1757.78363004108	1
0	709	1763.399925835698	1
0	711	1764.921157897889	2
0	722	1788.864423319195	1
0	728	1799.117948212139	2
0	731	1803.885143658398	2
0	736	1812.247238961048	2
0	738	1818.46743115362	3
0	753	1847.235945382245	1
0	759	1856.600659787436	1
0	776	1884.986909974073	1
0	780	1902.010481329994	1
0	784	1909.821559344625	2
0	799	1959.686324650859	1
0	802	1961.530443557048	1
0	812	1995.712949519735	1
0	819	2010.305708730489	1
0	823	2013.868655704263	2
0	827	2033.511827931655	1
0	831	2034.000853631123	2
0	835	2042.018879043449	1
0	853	2072.729029228804	1
0	856	2074.942192120614	1
0	860	2081.096007312855	1
0	870	2101.959760183306	1
0	874	2110.250898302535	1
0	878	2116.31426357427	1
0	895	2149.994215450844	1
0	905	2162.535855115292	1
0	911	2195.484333627378	1
0	914	2206.573676180957	1
0	923	2220.180729233857	1
0	934	2234.82324390748	1
0	952	2272.150202713364	1
0	961	2294.213482175366	1
0	972	2303.302072368365	1
0	1004	2403.073108456165	1
0	1006	2404.053361099046	2
0	1016	2423.00394114612	1
0	1019	2429.138406406712	1
0	1022	2436.588983293494	1
0	1031	2449.056449732793	1
0	1039	2456.915004370078	1
0	1054	2480.556299264915	1
1	122	354.444077836132	0
1	125	367.589287047365	0
1	134	406.898104172744	0
1	138	412.257206650644	1
1	141	420.658607393874	1
1	142	421.04970029511	0
1	154	436.114629776888	0
1	161	451.248593528469	0
1	163	453.737651697012	0
1	164	454.168418867891	0
1	166	454.215286568968	0
1	171	464.174918570116	0
1	173	464.656055005741	0
1	174	468.969389225553	0
1	176	476.260410756314	0
1	177	476.914789398102	0
1	179	479.189485801982	0
1	180	479.704567634542	0
1	182	483.085877055807	0
1	185	492.992470765119	0
1	189	498.797104969028	0
1	190	501.447573540202	0
1	194	504.528118920206	0
1	195	509.168393536932	0
1	199	519.131660745384	0
1	200	525.205364723672	0
1	221	592.360836225431	0
1	222	593.904217791738	0
1	225	621.482739564962	0
1	227	622.989798236534	1
1	228	624.566381278828	1
1	229	625.371858012532	0
1	251	677.30644856781	0
1	252	677.553682720984	0
1	256	692.35140995363	0
1	258	694.23110564586	1
1	259	699.394016927253	1
1	261	699.495877799079	1
1	262	700.582162259116	1
1	266	703.853308695614	1
1	268	710.741952008659	2
1	273	727.225976336811	2
1	274	730.480775759075	1
1	275	731.237101902422	0
1	304	813.718144071485	0
1	305	814.073535847207	0
1	310	827.514843339431	0
1	311	828.883948141734	0
1	314	832.877151770902	0
1	316	834.115971989249	1
1	317	834.819782900459	1
1	324	838.847582414567	0
1	327	839.578052108125	0
1	330	855.395139894492	0
1	340	879.643308591697	0
1	341	883.007174196405	0
1	346	899.479755191889	0
1	347	901.308043137203	0
1	376	976.565614317659	0
1	377	976.800976198524	0
1	386	1003.12254496667	0
1	388	1003.62455407805	1
1	389	1004.836104051638	1
1	390	1010.137372633974	0
1	392	1026.941684101135	0
1	393	1029.817800558209	0
1	395	1030.833821058568	0
1	397	1031.466333288233	1
1	398	1035.025672401204	1
1	402	1039.284372261193	1
1	403	1044.643218998603	1
1	404	1046.110457952669	0
1	419	1085.845270508107	0
1	420	1089.731785627706	0
1	424	1100.918783639256	0
1	428	1107.668427627462	1
1	429	1109.495559126735	1
1	430	1111.22251704199	0
1	450	1161.237628372735	0
1	451	1164.009867477781	0
1	457	1177.458798046421	0
1	458	1179.745702273995	0
1	476	1243.026575003035	0
1	477	1243.191918911777	0
1	482	1252.472146928695	0
1	489	1272.646000573017	0
1	522	1354.658220514177	0
1	524	1355.197924768725	1
1	527	1367.71867987731	1
1	528	1368.839108243929	0
1	531	1382.867144682827	0
1	536	1394.068559903232	0
1	538	1396.497411846483	0
1	539	1398.023282471421	0
1	541	1406.293757776049	0
1	542	1410.902703795888	0
1	547	1442.295449873716	0
1	550	1448.745111480544	0
1	554	1451.72734647732	0
1	555	1454.192738376458	0
1	560	1460.872643203582	0
1	561	1463.536861059004	0
1	569	1481.237026826022	0
1	570	1485.042355344717	0
1	575	1495.724918166403	0
1	576	1499.128653192378	0
1	578	1499.13631228092	0
1	581	1504.611472014621	0
1	587	1511.92385810321	0
1	588	1518.109282446874	0
1	607	1581.533932958997	0
1	608	1587.307159902028	0
1	610	1591.294094495414	0
1	611	1591.787059512136	0
1	638	1665.178439283615	0
1	641	1676.36398412631	0
1	649	1692.44070236867	0
1	651	1693.608171517466	1
1	652	1693.906973964452	1
1	655	1700.7701803878	0
1	657	1701.774818324175	0
1	662	1705.839895836118	0
1	664	1707.872550576227	0
1	667	1713.031966377001	0
1	680	1725.971570480458	0
1	681	1726.365487812563	0
1	683	1730.598897677657	0
1	684	1731.5392351812	0
1	687	1738.198745412658	0
1	690	1738.718884915744	0
1	693	1744.347793922827	0
1	694	1749.764230225524	0
1	698	1752.848412235259	0
1	699	1753.330783304303	0
1	704	1757.78363004108	0
1	705	1758.50894560849	0
1	709	1763.399925835698	0
1	711	1764.921157897889	1
1	712	1765.543767784462	1
1	713	1773.884266555126	0
1	722	1788.864423319195	0
1	728	1799.117948212139	1
1	729	1802.163610882805	1
1	731	1803.885143658398	1
1	732	1809.94067507016	1
1	736	1812.247238961048	1
1	738	1818.46743115362	2
1	741	1819.751200352741	2
1	744	1821.425120176643	1
1	749	1829.051505319629	0
1	753	1847.235945382245	0
1	754	1852.492695145654	0
1	759	1856.600659787436	0
1	760	1860.084752244669	0
1	776	1884.986909974073	0
1	777	1896.237408717963	0
1	780	1902.010481329994	0
1	784	1909.821559344625	1
1	785	1913.119645502485	1
1	788	1916.283321970244	0
1	799	1959.686324650859	0
1	800	1961.487660096095	0
1	802	1961.530443557048	0
1	803	1961.668750258031	0
1	812	1995.712949519735	0
1	813	1996.181338103857	0
1	819	2010.305708730489	0
1	823	2013.868655704263	1
1	824	2014.127875720192	1
1	825	2015.016629984039	0
1	827	2033.511827931655	0
1	831	2034.000853631123	1
1	832	2036.556442633551	1
1	833	2040.311494183836	0
1	835	2042.018879043449	0
1	842	2049.548299660416	0
1	853	2072.729029228804	0
1	854	2074.719984207785	0
1	856	2074.942192120614	0
1	857	2077.314086131812	0
1	860	2081.096007312855	0
1	861	2083.071619652825	0
1	870	2101.959760183306	0
1	871	2102.486001062386	0
1	874	2110.250898302535	0
1	875	2110.291677142049	0
1	878	2116.31426357427	0
1	885	2132.548603489825	0
1	895	2149.994215450844	0
1	896	2154.758445668627	0
1	905	2162.535855115292	0
1	906	2166.904153197524	0
1	911	2195.484333627378	0
1	912	2202.452705621187	0
1	914	2206.573676180957	0
1	917	2210.717876392581	0
1	923	2220.180729233857	0
1	926	2223.057258422176	0
1	934	2234.82324390748	0
1	935	2236.357805780532	0
1	952	2272.150202713364	0
1	955	2273.128589114952	0
1	961	2294.213482175366	0
1	968	2300.985685739398	0
1	972	2303.302072368365	0
1	973	2304.600680739736	0
1	1004	2403.073108456165	0
1	1006	2404.053361099046	1
1	1007	2407.987076176298	1
1	1012	2415.839036256494	0
1	1016	2423.00394114612	0
1	1017	2427.529125225918	0
1	1019	2429.138406406712	0
1	1020	2431.574010129656	0
1	1022	2436.588983293494	0
1	1027	2440.484204541177	0
1	1031	2449.056449732793	0
1	1032	2451.748555480073	0
1	1039	2456.915004370078	0
1	1040	2457.832529986843	0
1	1054	2480.556299264915	0
1	1055	2488.267921119391	0
2	122	354.444077836132	0
2	134	406.898104172744	0
2	141	420.658607393874	8.40140074323
2	154	436.114629776888	0
2	163	453.737651697012	0
2	166	454.215286568968	0
2	173	464.656055005741	0
2	176	476.260410756314	0
2	179	479.189485801982	0
2	182	483.085877055807	0
2	189	498.797104969028	0
2	194	504.528118920206	0
2	199	519.131660745384	0
2	221	592.360836225431	0
2	225	621.482739564962	0
2	228	624.566381278828	1.576583042294
2	251	677.30644856781	0
2	256	692.35140995363	0
2	259	699.394016927253	5.162911281393
2	262	700.582162259116	1.086284460037
2	273	727.225976336811	23.372667641197
2	274	730.480775759075	19.738823750416
2	304	813.718144071485	0
2	310	827.514843339431	0
2	314	832.877151770902	0
2	317	834.819782900459	0.70381091121
2	327	839.578052108125	0
2	340	879.643308591697	0
2	346	899.479755191889	0
2	376	976.565614317659	0
2	386	1003.12254496667	0
2	389	1004.836104051638	1.211549973588
2	392	1026.941684101135	0
2	395	1030.833821058568	0
2	398	1035.025672401204	3.559339112971
2	403	1044.643218998603	5.35884673741
2	419	1085.845270508107	0
2	424	1100.918783639256	0
2	429	1109.495559126735	1.827131499273
2	450	1161.237628372735	0
2	457	1177.458798046421	0
2	476	1243.026575003035	0
2	482	1252.472146928695	0
2	522	1354.658220514177	0
2	527	1367.71867987731	12.520755108585
2	531	1382.867144682827	0
2	538	1396.497411846483	0
2	541	1406.293757776049	0
2	547	1442.295449873716	0
2	554	1451.72734647732	0
2	560	1460.872643203582	0
2	569	1481.237026826022	0
2	575	1495.724918166403	0
2	578	1499.13631228092	0
2	587	1511.92385810321	0
2	607	1581.533932958997	0
2	610	1591.294094495414	0
2	638	1665.178439283615	0
2	649	1692.44070236867	0
2	652	1693.906973964452	0.298802446986
2	657	1701.774818324175	0
2	664	1707.872550576227	0
2	680	1725.971570480458	0
2	683	1730.598897677657	0
2	687	1738.198745412658	0
2	693	1744.347793922827	0
2	698	1752.848412235259	0
2	704	1757.78363004108	0
2	709	1763.399925835698	0
2	712	1765.543767784462	0.622609886573
2	722	1788.864423319195	0
2	729	1802.163610882805	3.045662670666
2	732	1809.94067507016	6.055531411762
2	741	1819.751200352741	7.503961391693
2	744	1821.425120176643	2.957689023023
2	753	1847.235945382245	0
2	759	1856.600659787436	0
2	776	1884.986909974073	0
2	780	1902.010481329994	0
2	785	1913.119645502485	3.29808615786
2	799	1959.686324650859	0
2	802	1961.530443557048	0
2	812	1995.712949519735	0
2	819	2010.305708730489	0
2	824	2014.127875720192	0.259220015929
2	827	2033.511827931655	0
2	832	2036.556442633551	2.555589002428
2	835	2042.018879043449	0
2	853	2072.729029228804	0
2	856	2074.942192120614	0
2	860	2081.096007312855	0
2	870	2101.959760183306	0
2	874	2110.250898302535	0
2	878	2116.31426357427	0
2	895	2149.994215450844	0
2	905	2162.535855115292	0
2	911	2195.484333627378	0
2	914	2206.573676180957	0
2	923	2220.180729233857	0
2	934	2234.82324390748	0
2	952	2272.150202713364	0
2	961	2294.213482175366	0
2	972	2303.302072368365	0
2	1004	2403.073108456165	0
2	1007	2407.987076176298	3.933715077252
2	1016	2423.00394114612	0
2	1019	2429.138406406712	0
2	1022	2436.588983293494	0
2	1031	2449.056449732793	0
2	1039	2456.915004370078	0
2	1054	2480.556299264915	0
3	124	362.779012560417	1
3	128	378.94232276728	1
3	131	404.417573523671	1
3	136	410.945070117655	1
3	140	414.426127238478	2
3	146	424.720149536488	1
3	149	426.538650611217	1
3	152	434.202318365371	1
3	156	439.234578117422	2
3	158	440.99737043903	3
3	160	448.144546700357	4
3	168	456.290829722043	5
3	170	459.9730609396	6
3	184	489.431553173651	7
3	187	495.045180807425	8
3	197	515.019738422812	7
3	202	532.743390214778	8
3	206	545.080840038026	7
3	210	553.345193350048	6
3	213	558.53515728906	6
3	216	576.30711615312	6
3	218	578.772894273072	7
3	233	636.631361304735	4
3	236	642.183143198286	4
3	238	646.226482758435	5
3	242	655.747145422117	4
3	245	656.701336655666	4
3	254	687.32047340833	1
3	264	702.185225875771	2
3	270	712.640532632296	3
3	272	714.2584742481	4
3	278	738.109972685136	4
3	284	751.032734217623	1
3	287	752.077991711549	1
3	290	783.121513972541	1
3	292	786.99886226362	2
3	294	787.757912559629	3
3	299	804.658261068389	1
3	302	810.585177372074	1
3	307	817.045913734827	2
3	319	835.441852948545	1
3	321	835.817226806073	2
3	323	837.390078834879	3
3	329	844.859932121541	3
3	332	859.353191058201	4
3	338	879.526058134851	1
3	344	894.748798914436	1
3	349	901.429111008363	2
3	352	912.670828928672	2
3	356	921.083001103788	1
3	359	922.495206296778	1
3	361	924.426246535187	2
3	363	924.827210553039	3
3	368	941.643193032314	1
3	371	952.314999984398	1
3	374	976.309122619328	1
3	379	979.201723983299	2
3	383	993.234354209163	1
3	400	1037.817714041834	1
3	406	1054.86377306729	2
3	408	1062.486238876957	3
3	410	1067.586314668505	4
3	412	1068.196298550826	5
3	417	1081.781918852097	3
3	422	1093.780243235995	4
3	426	1105.299906099446	5
3	433	1115.166361282277	5
3	435	1117.585575416514	6
3	439	1140.197947428563	5
3	441	1143.245327056085	6
3	443	1145.011799952512	7
3	446	1150.608804235597	7
3	448	1160.034678423633	8
3	453	1171.021977446639	9
3	455	1174.834363420373	10
3	461	1184.835546820342	10
3	464	1199.243714448613	10
3	466	1200.03451206652	11
3	468	1201.733882664147	12
3	473	1226.655835093917	10
3	484	1253.232387214677	7
3	486	1263.300329930188	8
3	488	1270.188107608062	9
3	493	1301.695075724682	8
3	497	1319.606710615869	7
3	499	1323.221393193487	8
3	503	1325.834643875292	7
3	505	1326.375745945546	8
3	507	1327.505305647438	9
3	509	1327.930719510784	10
3	514	1339.130112043044	8
3	518	1345.566230223337	7
3	520	1354.217056812716	8
3	526	1364.753652170588	9
3	533	1385.61624942652	9
3	535	1385.873721217589	10
3	549	1444.399947274309	8
3	552	1451.077245172219	9
3	557	1454.297307664281	10
3	563	1466.369209094997	10
3	566	1479.941857648679	10
3	580	1502.106389304741	7
3	584	1505.457368391863	7
3	590	1519.645900163428	7
3	595	1532.601251588089	5
3	597	1539.939842688134	6
3	600	1546.694297322603	6
3	605	1579.360818638479	4
3	615	1599.611571199337	3
3	620	1615.238231094837	1
3	622	1617.008726374054	2
3	625	1618.803667111087	2
3	629	1654.320999339294	1
3	631	1654.530132778208	2
3	633	1655.031343022317	3
3	640	1668.119471991487	1
3	644	1680.17741353523	1
3	646	1685.45785398811	2
3	654	1696.0117990378	2
3	659	1704.068347513425	3
3	661	1704.544076971741	4
3	666	1711.975374516738	5
3	669	1714.173127754168	6
3	672	1718.559366824822	6
3	674	1722.573206414053	7
3	678	1724.64832324279	6
3	689	1738.617628260856	6
3	696	1752.532885940149	6
3	701	1757.074418285213	7
3	715	1775.650069026053	5
3	719	1783.216712739424	4
3	724	1791.646316524924	4
3	726	1796.018681398212	5
3	734	1811.394057054295	6
3	740	1818.623402905251	7
3	743	1820.470659874128	8
3	746	1823.504701725267	9
3	748	1824.776611398249	10
3	751	1843.864454562918	11
3	757	1853.020426018164	11
3	762	1862.781928549067	12
3	764	1862.910194214946	13
3	766	1866.541002019037	14
3	769	1868.111340479915	14
3	772	1883.049181367715	14
3	774	1884.18179652135	15
3	782	1906.77245399804	15
3	787	1913.148113594738	16
3	791	1926.519640148576	16
3	793	1930.890122130338	17
3	797	1950.238507299322	16
3	805	1965.645265703979	17
3	808	1982.800215019916	17
3	821	2013.535855516251	12
3	829	2033.577040077019	13
3	837	2042.019035780318	14
3	839	2046.833801616255	15
3	841	2048.471088520238	16
3	845	2057.923317528761	16
3	849	2063.518800961812	15
3	851	2068.888887785074	16
3	865	2093.375820763635	14
3	867	2096.148318178671	15
3	880	2126.611538650229	13
3	882	2127.243610642487	14
3	884	2131.285105288694	15
3	893	2148.296038955969	10
3	898	2155.411754794041	11
3	901	2160.25086735818	11
3	908	2171.715046139006	10
3	916	2210.271698978259	10
3	919	2215.909237306194	11
3	925	2220.719843061578	10
3	928	2224.656285819337	11
3	931	2234.602854882523	11
3	938	2256.889795796327	10
3	941	2262.748014258532	10
3	944	2264.790023649927	10
3	946	2265.048559352724	11
3	948	2269.762694224587	12
3	954	2272.418185729447	11
3	957	2276.902444097247	12
3	959	2292.009618507136	13
3	963	2294.720392956889	14
3	965	2296.583318064366	15
3	967	2297.701144502198	16
3	970	2303.055250043694	17
3	975	2305.874375309216	18
3	978	2314.908121836742	18
3	983	2340.920934181234	16
3	991	2365.097535760258	11
3	993	2369.544204619743	12
3	996	2376.604331874898	12
3	998	2393.123895236844	13
3	1000	2398.897702729902	14
3	1009	2411.913131361185	13
3	1011	2412.241381802257	14
3	1024	2437.405041906015	13
3	1026	2439.998051360079	14
3	1034	2452.886610574733	13
3	1037	2454.890705118865	13
3	1046	2466.209201325361	10
3	1049	2468.987260939911	10
3	1052	2476.660273799729	10
3	1058	2493.238974334309	10
4	124	362.779012560417	0
4	126	373.24928989367	0
4	128	378.94232276728	0
4	129	379.915805560296	0
4	131	404.417573523671	0
4	132	406.191172579672	0
4	136	410.945070117655	0
4	140	414.426127238478	1
4	143	421.202232698575	1
4	144	423.220710315945	0
4	146	424.720149536488	0
4	147	425.146865761337	0
4	149	426.538650611217	0
4	150	433.459540697936	0
4	152	434.202318365371	0
4	156	439.234578117422	1
4	158	440.99737043903	2
4	160	448.144546700357	3
4	168	456.290829722043	4
4	170	459.9730609396	5
4	184	489.431553173651	6
4	187	495.045180807425	7
4	191	501.447954534943	7
4	192	503.608800635514	6
4	197	515.019738422812	6
4	202	532.743390214778	7
4	203	535.19867284084	7
4	204	536.97234393134	6
4	206	545.080840038026	6
4	207	552.403772221636	6
4	208	553.33335016374	5
4	210	553.345193350048	5
4	211	557.737656055607	5
4	213	558.53515728906	5
4	214	561.563309220314	5
4	216	576.30711615312	5
4	218	578.772894273072	6
4	219	590.011555196692	6
4	223	602.789397793493	5
4	230	628.395973115763	4
4	231	632.374346835783	3
4	233	636.631361304735	3
4	234	640.041665941046	3
4	236	642.183143198286	3
4	238	646.226482758435	4
4	239	649.351752755057	4
4	240	649.451108652342	3
4	242	655.747145422117	3
4	243	655.969562975835	3
4	245	656.701336655666	3
4	246	658.948809242448	3
4	247	666.890003562156	2
4	248	669.690908130037	1
4	249	673.456324751852	0
4	254	687.32047340833	0
4	264	702.185225875771	1
4	270	712.640532632296	2
4	272	714.2584742481	3
4	276	734.286307791183	3
4	278	738.109972685136	3
4	279	744.108648715658	3
4	280	745.759085934439	2
4	281	749.21647343245	1
4	282	749.317422517788	0
4	284	751.032734217623	0
4	285	751.861687991151	0
4	287	752.077991711549	0
4	288	761.518762824314	0
4	290	783.121513972541	0
4	292	786.99886226362	1
4	294	787.757912559629	2
4	295	789.287371777405	2
4	296	800.295974768857	1
4	297	804.203904412254	0
4	299	804.658261068389	0
4	300	807.198121479875	0
4	302	810.585177372074	0
4	307	817.045913734827	1
4	308	818.989128800735	1
4	312	829.642101826947	0
4	319	835.441852948545	0
4	321	835.817226806073	1
4	323	837.390078834879	2
4	325	839.369778970778	2
4	329	844.859932121541	2
4	332	859.353191058201	3
4	333	861.934062645585	3
4	334	862.184015361131	2
4	335	868.364762067561	1
4	336	872.415899346902	0
4	338	879.526058134851	0
4	342	892.755198405211	0
4	344	894.748798914436	0
4	349	901.429111008363	1
4	350	907.104944598277	1
4	352	912.670828928672	1
4	353	914.107925408004	1
4	354	917.458291162875	0
4	356	921.083001103788	0
4	357	921.125476779757	0
4	359	922.495206296778	0
4	361	924.426246535187	1
4	363	924.827210553039	2
4	364	924.896375796065	2
4	365	931.254522662653	1
4	366	935.151601774512	0
4	368	941.643193032314	0
4	369	942.12076070411	0
4	371	952.314999984398	0
4	372	967.434737392673	0
4	374	976.309122619328	0
4	379	979.201723983299	1
4	380	990.869953833979	1
4	381	993.074960479989	0
4	383	993.234354209163	0
4	384	995.384562567839	0
4	400	1037.817714041834	0
4	406	1054.86377306729	1
4	408	1062.486238876957	2
4	410	1067.586314668505	3
4	412	1068.196298550826	4
4	413	1071.27649422975	4
4	414	1075.613304242504	3
4	415	1076.3377818803	2
4	417	1081.781918852097	2
4	422	1093.780243235995	3
4	426	1105.299906099446	4
4	431	1112.112627840066	4
4	433	1115.166361282277	4
4	435	1117.585575416514	5
4	436	1119.772358337991	5
4	437	1132.170878064726	4
4	439	1140.197947428563	4
4	441	1143.245327056085	5
4	443	1145.011799952512	6
4	444	1147.395069994742	6
4	446	1150.608804235597	6
4	448	1160.034678423633	7
4	453	1171.021977446639	8
4	455	1174.834363420373	9
4	459	1184.625959535917	9
4	461	1184.835546820342	9
4	462	1186.245560021257	9
4	464	1199.243714448613	9
4	466	1200.03451206652	10
4	468	1201.733882664147	11
4	469	1202.560681564505	11
4	470	1214.252677700209	10
4	471	1220.933411689958	9
4	473	1226.655835093917	9
4	474	1230.696915007967	9
4	478	1243.813400921612	8
4	479	1244.8810225227	7
4	480	1252.290360547972	6
4	484	1253.232387214677	6
4	486	1263.300329930188	7
4	488	1270.188107608062	8
4	490	1274.752084205503	8
4	491	1296.991460497343	7
4	493	1301.695075724682	7
4	494	1302.014857191364	7
4	495	1306.791150518726	6
4	497	1319.606710615869	6
4	499	1323.221393193487	7
4	500	1324.440142920167	7
4	501	1324.792673484324	6
4	503	1325.834643875292	6
4	505	1326.375745945546	7
4	507	1327.505305647438	8
4	509	1327.930719510784	9
4	510	1337.432944902366	9
4	511	1337.696700832324	8
4	512	1337.928544648251	7
4	514	1339.130112043044	7
4	515	1341.93345320986	7
4	516	1344.607631365796	6
4	518	1345.566230223337	6
4	520	1354.217056812716	7
4	526	1364.753652170588	8
4	529	1375.200057134633	8
4	533	1385.61624942652	8
4	535	1385.873721217589	9
4	543	1430.450061938515	9
4	544	1432.584928259968	8
4	545	1433.378301057237	7
4	549	1444.399947274309	7
4	552	1451.077245172219	8
4	557	1454.297307664281	9
4	558	1458.099326211529	9
4	563	1466.369209094997	9
4	564	1473.727217600343	9
4	566	1479.941857648679	9
4	567	1481.168068439559	9
4	571	1487.218398392613	8
4	572	1492.054515859045	7
4	573	1492.354113255259	6
4	580	1502.106389304741	6
4	582	1505.165471200373	6
4	584	1505.457368391863	6
4	585	1508.564706732219	6
4	590	1519.645900163428	6
4	591	1520.28869730321	6
4	592	1525.582957321238	5
4	593	1529.459020452997	4
4	595	1532.601251588089	4
4	597	1539.939842688134	5
4	598	1544.377691689287	5
4	600	1546.694297322603	5
4	601	1547.358803090545	5
4	602	1548.867643403712	4
4	603	1560.502871749399	3
4	605	1579.360818638479	3
4	612	1592.013999413575	3
4	613	1597.476646163008	2
4	615	1599.611571199337	2
4	616	1600.071713954882	2
4	617	1605.060437882227	1
4	618	1606.210457258082	0
4	620	1615.238231094837	0
4	622	1617.008726374054	1
4	623	1617.341869823892	1
4	625	1618.803667111087	1
4	626	1620.249950838995	1
4	627	1625.221131418934	0
4	629	1654.320999339294	0
4	631	1654.530132778208	1
4	633	1655.031343022317	2
4	634	1658.536553047321	2
4	635	1661.736283080309	1
4	636	1664.514611071288	0
4	640	1668.119471991487	0
4	642	1676.616442072426	0
4	644	1680.17741353523	0
4	646	1685.45785398811	1
4	647	1689.308059061947	1
4	654	1696.0117990378	1
4	659	1704.068347513425	2
4	661	1704.544076971741	3
4	666	1711.975374516738	4
4	669	1714.173127754168	5
4	670	1715.983685585213	5
4	672	1718.559366824822	5
4	674	1722.573206414053	6
4	675	1723.487782748347	6
4	676	1723.51689168652	5
4	678	1724.64832324279	5
4	685	1737.669908772976	5
4	689	1738.617628260856	5
4	691	1742.033841130302	5
4	696	1752.532885940149	5
4	701	1757.074418285213	6
4	702	1757.388311350181	6
4	706	1760.341531827062	5
4	707	1761.057079878265	4
4	715	1775.650069026053	4
4	716	1779.316920040477	4
4	717	1781.198772481959	3
4	719	1783.216712739424	3
4	720	1784.703508289556	3
4	724	1791.646316524924	3
4	726	1796.018681398212	4
4	734	1811.394057054295	5
4	740	1818.623402905251	6
4	743	1820.470659874128	7
4	746	1823.504701725267	8
4	748	1824.776611398249	9
4	751	1843.864454562918	10
4	755	1852.511928142379	10
4	757	1853.020426018164	10
4	762	1862.781928549067	11
4	764	1862.910194214946	12
4	766	1866.541002019037	13
4	767	1866.758380210461	13
4	769	1868.111340479915	13
4	770	1870.606082566232	13
4	772	1883.049181367715	13
4	774	1884.18179652135	14
4	778	1900.900161039914	14
4	782	1906.77245399804	14
4	787	1913.148113594738	15
4	789	1926.21703354573	15
4	791	1926.519640148576	15
4	793	1930.890122130338	16
4	794	1945.781572429656	16
4	795	1948.598250978651	15
4	797	1950.238507299322	15
4	805	1965.645265703979	16
4	806	1979.208837039271	16
4	808	1982.800215019916	16
4	809	1992.550598212888	16
4	810	1993.221722433381	15
4	814	1996.19633914071	14
4	815	1998.94335897496	13
4	816	2002.335461987674	12
4	817	2003.758353415799	11
4	821	2013.535855516251	11
4	829	2033.577040077019	12
4	837	2042.019035780318	13
4	839	2046.833801616255	14
4	841	2048.471088520238	15
4	843	2052.581089233212	15
4	845	2057.923317528761	15
4	846	2058.538240997898	15
4	847	2059.45076273926	14
4	849	2063.518800961812	14
4	851	2068.888887785074	15
4	858	2078.614210537188	15
4	862	2085.693150333721	14
4	863	2090.630601738948	13
4	865	2093.375820763635	13
4	867	2096.148318178671	14
4	868	2096.169812761911	14
4	872	2109.010871727616	13
4	876	2114.817081930503	12
4	880	2126.611538650229	12
4	882	2127.243610642487	13
4	884	2131.285105288694	14
4	886	2132.666080272673	14
4	887	2132.869255755982	13
4	888	2134.227006126113	12
4	889	2137.045507590159	11
4	890	2137.652230371973	10
4	891	2140.518776023394	9
4	893	2148.296038955969	9
4	898	2155.411754794041	10
4	899	2159.283166590682	10
4	901	2160.25086735818	10
4	902	2160.385407908051	10
4	903	2162.266559526043	9
4	908	2171.715046139006	9
4	909	2177.872432211239	9
4	916	2210.271698978259	9
4	919	2215.909237306194	10
4	920	2216.146479033657	10
4	921	2218.106808894088	9
4	925	2220.719843061578	9
4	928	2224.656285819337	10
4	929	2234.127204896104	10
4	931	2234.602854882523	10
4	932	2234.63928354408	10
4	936	2240.116578245454	9
4	938	2256.889795796327	9
4	939	2259.628467166643	9
4	941	2262.748014258532	9
4	942	2263.64079736444	9
4	944	2264.790023649927	9
4	946	2265.048559352724	10
4	948	2269.762694224587	11
4	949	2269.954053585052	11
4	950	2271.106886823242	10
4	954	2272.418185729447	10
4	957	2276.902444097247	11
4	959	2292.009618507136	12
4	963	2294.720392956889	13
4	965	2296.583318064366	14
4	967	2297.701144502198	15
4	970	2303.055250043694	16
4	975	2305.874375309216	17
4	976	2312.535289946417	17
4	978	2314.908121836742	17
4	979	2314.977607248648	17
4	980	2315.533862025394	16
4	981	2323.97456258738	15
4	983	2340.920934181234	15
4	984	2342.69543775974	15
4	985	2347.534319632699	14
4	986	2350.712743900467	13
4	987	2353.274909988675	12
4	988	2358.462478883844	11
4	989	2361.74933274984	10
4	991	2365.097535760258	10
4	993	2369.544204619743	11
4	994	2370.243145295428	11
4	996	2376.604331874898	11
4	998	2393.123895236844	12
4	1000	2398.897702729902	13
4	1001	2401.843751801922	13
4	1002	2401.87197356198	12
4	1009	2411.913131361185	12
4	1011	2412.241381802257	13
4	1013	2417.602347651453	13
4	1014	2421.491934544744	12
4	1024	2437.405041906015	12
4	1026	2439.998051360079	13
4	1028	2441.045245959878	13
4	1029	2444.978978884921	12
4	1034	2452.886610574733	12
4	1035	2453.14047797898	12
4	1037	2454.890705118865	12
4	1041	2460.669768232303	12
4	1042	2464.496923427204	11
4	1043	2465.071245009222	10
4	1044	2465.978820515199	9
4	1046	2466.209201325361	9
4	1047	2467.774288841965	9
4	1049	2468.987260939911	9
4	1050	2474.515837990312	9
4	1052	2476.660273799729	9
4	1056	2493.147946012401	9
4	1058	2493.238974334309	9
4	1059	2498.319783719986	9
5	125	367.589287047365	13
5	141	420.658607393874	14
5	142	421.04970029511	15
5	161	451.248593528469	16
5	164	454.168418867891	17
5	171	464.174918570116	18
5	174	468.969389225553	19
5	177	476.914789398102	20
5	180	479.704567634542	21
5	185	492.992470765119	22
5	190	501.447573540202	23
5	195	509.168393536932	24
5	200	525.205364723672	25
5	222	593.904217791738	26
5	228	624.566381278828	27
5	229	625.371858012532	28
5	252	677.553682720984	29
5	259	699.394016927253	30
5	262	700.582162259116	31
5	273	727.225976336811	32
5	274	730.480775759075	33
5	275	731.237101902422	34
5	305	814.073535847207	35
5	311	828.883948141734	36
5	317	834.819782900459	37
5	324	838.847582414567	38
5	330	855.395139894492	39
5	341	883.007174196405	40
5	347	901.308043137203	41
5	377	976.800976198524	42
5	389	1004.836104051638	43
5	390	1010.137372633974	44
5	393	1029.817800558209	45
5	398	1035.025672401204	46
5	403	1044.643218998603	47
5	404	1046.110457952669	48
5	420	1089.731785627706	49
5	429	1109.495559126735	50
5	430	1111.22251704199	51
5	451	1164.009867477781	52
5	458	1179.745702273995	53
5	477	1243.191918911777	54
5	489	1272.646000573017	55
5	527	1367.71867987731	56
5	528	1368.839108243929	57
5	536	1394.068559903232	58
5	539	1398.023282471421	59
5	542	1410.902703795888	60
5	550	1448.745111480544	61
5	555	1454.192738376458	62
5	561	1463.536861059004	63
5	570	1485.042355344717	64
5	576	1499.128653192378	65
5	581	1504.611472014621	66
5	588	1518.109282446874	67
5	608	1587.307159902028	68
5	611	1591.787059512136	69
5	641	1676.36398412631	70
5	652	1693.906973964452	71
5	655	1700.7701803878	72
5	662	1705.839895836118	73
5	667	1713.031966377001	74
5	681	1726.365487812563	75
5	684	1731.5392351812	76
5	690	1738.718884915744	77
5	694	1749.764230225524	78
5	699	1753.330783304303	79
5	705	1758.50894560849	80
5	712	1765.543767784462	81
5	713	1773.884266555126	82
5	729	1802.163610882805	83
5	732	1809.94067507016	84
5	741	1819.751200352741	85
5	744	1821.425120176643	86
5	749	1829.051505319629	87
5	754	1852.492695145654	88
5	760	1860.084752244669	89
5	777	1896.237408717963	90
5	785	1913.119645502485	91
5	788	1916.283321970244	92
5	800	1961.487660096095	93
5	803	1961.668750258031	94
5	813	1996.181338103857	95
5	824	2014.127875720192	96
5	825	2015.016629984039	97
5	832	2036.556442633551	98
5	833	2040.311494183836	99
5	842	2049.548299660416	100
5	854	2074.719984207785	101
5	857	2077.314086131812	102
5	861	2083.071619652825	103
5	871	2102.486001062386	104
5	875	2110.291677142049	105
5	885	2132.548603489825	106
5	896	2154.758445668627	107
5	906	2166.904153197524	108
5	912	2202.452705621187	109
5	917	2210.717876392581	110
5	926	2223.057258422176	111
5	935	2236.357805780532	112
5	955	2273.128589114952	113
5	968	2300.985685739398	114
5	973	2304.600680739736	115
5	1007	2407.987076176298	116
5	1012	2415.839036256494	117
5	1017	2427.529125225918	118
5	1020	2431.574010129656	119
5	1027	2440.484204541177	120
5	1032	2451.748555480073	121
5	1040	2457.832529986843	122
5	1055	2488.267921119391	123
6	125	367.589287047365	13.145209211233
6	141	420.658607393874	13.76050322113
6	142	421.04970029511	8.792493644466
6	161	451.248593528469	15.133963751581
6	164	454.168418867891	0.430767170879
6	171	464.174918570116	9.959632001148
6	174	468.969389225553	4.313334219812
6	177	476.914789398102	0.654378641788
6	180	479.704567634542	0.51508183256
6	185	492.992470765119	9.906593709312
6	190	501.447573540202	2.650468571174
6	195	509.168393536932	4.640274616726
6	200	525.205364723672	6.073703978288
6	222	593.904217791738	1.543381566307
6	228	624.566381278828	3.083641713866
6	229	625.371858012532	2.382059775998
6	252	677.553682720984	0.247234153174
6	259	699.394016927253	7.042606973623
6	262	700.582162259116	6.351056613256
6	273	727.225976336811	27.730098537732
6	274	730.480775759075	26.627467063461
6	275	731.237101902422	20.495149893763
6	305	814.073535847207	0.355391775722
6	311	828.883948141734	1.369104802303
6	317	834.819782900459	1.942631129557
6	324	838.847582414567	4.731610425318
6	330	855.395139894492	15.817087786367
6	341	883.007174196405	3.363865604708
6	347	901.308043137203	1.828287945314
6	377	976.800976198524	0.235361880865
6	389	1004.836104051638	1.713559084968
6	390	1010.137372633974	6.512818555924
6	393	1029.817800558209	2.876116457074
6	398	1035.025672401204	4.191851342636
6	403	1044.643218998603	13.17688571037
6	404	1046.110457952669	6.826085691476
6	420	1089.731785627706	3.886515119599
6	429	1109.495559126735	8.576775487479
6	430	1111.22251704199	3.554089414528
6	451	1164.009867477781	2.772239105046
6	458	1179.745702273995	2.286904227574
6	477	1243.191918911777	0.165343908742
6	489	1272.646000573017	20.173853644322
6	527	1367.71867987731	13.060459363133
6	528	1368.839108243929	13.641183475204
6	536	1394.068559903232	11.201415220405
6	539	1398.023282471421	1.525870624938
6	542	1410.902703795888	4.608946019839
6	550	1448.745111480544	6.449661606828
6	555	1454.192738376458	2.465391899138
6	561	1463.536861059004	2.664217855422
6	570	1485.042355344717	3.805328518695
6	576	1499.128653192378	3.403735025975
6	581	1504.611472014621	5.475159733701
6	588	1518.109282446874	6.185424343664
6	608	1587.307159902028	5.773226943031
6	611	1591.787059512136	0.492965016722
6	641	1676.36398412631	11.185544842695
6	652	1693.906973964452	1.466271595782
6	655	1700.7701803878	7.162008870334
6	662	1705.839895836118	4.065077511943
6	667	1713.031966377001	5.159415800774
6	681	1726.365487812563	0.393917332105
6	684	1731.5392351812	0.940337503543
6	690	1738.718884915744	0.520139503086
6	694	1749.764230225524	5.416436302697
6	699	1753.330783304303	0.482371069044
6	705	1758.50894560849	0.72531556741
6	712	1765.543767784462	2.143841948764
6	713	1773.884266555126	8.963108657237
6	729	1802.163610882805	13.29918756361
6	732	1809.94067507016	10.822726858021
6	741	1819.751200352741	15.866056694343
6	744	1821.425120176643	9.177881215595
6	749	1829.051505319629	10.584074166009
6	754	1852.492695145654	5.256749763409
6	760	1860.084752244669	3.484092457233
6	777	1896.237408717963	11.25049874389
6	785	1913.119645502485	11.109164172491
6	788	1916.283321970244	6.461762625619
6	800	1961.487660096095	1.801335445236
6	803	1961.668750258031	0.138306700983
6	813	1996.181338103857	0.468388584122
6	824	2014.127875720192	3.822166989703
6	825	2015.016629984039	1.147974279776
6	832	2036.556442633551	3.044614701896
6	833	2040.311494183836	6.310640552713
6	842	2049.548299660416	7.529420616967
6	854	2074.719984207785	1.990954978981
6	857	2077.314086131812	2.371894011198
6	861	2083.071619652825	1.97561233997
6	871	2102.486001062386	0.52624087908
6	875	2110.291677142049	0.040778839514
6	885	2132.548603489825	16.234339915555
6	896	2154.758445668627	4.764230217783
6	906	2166.904153197524	4.368298082232
6	912	2202.452705621187	6.968371993809
6	917	2210.717876392581	4.144200211624
6	926	2223.057258422176	2.876529188319
6	935	2236.357805780532	1.534561873052
6	955	2273.128589114952	0.978386401588
6	968	2300.985685739398	6.772203564032
6	973	2304.600680739736	1.298608371371
6	1007	2407.987076176298	4.913967720133
6	1012	2415.839036256494	11.785675157448
6	1017	2427.529125225918	4.525184079798
6	1020	2431.574010129656	2.435603722944
6	1027	2440.484204541177	3.895221247683
6	1032	2451.748555480073	2.69210574728
6	1040	2457.832529986843	0.917525616765
6	1055	2488.267921119391	7.711621854476
7	125	367.589287047365	4.810274486948
7	128	378.94232276728	0
7	131	404.417573523671	0
7	142	421.04970029511	10.104630177455
7	143	421.202232698575	6.776105460097
7	146	424.720149536488	0
7	149	426.538650611217	0
7	152	434.202318365371	0
7	161	451.248593528469	15.133963751581
7	164	454.168418867891	14.933840750469
7	171	464.174918570116	23.177548131086
7	174	468.969389225553	20.824842525196
7	177	476.914789398102	23.17713770109
7	180	479.704567634542	25.489281065574
7	185	492.992470765119	36.701641043076
7	190	501.447573540202	41.474512600602
7	191	501.447954534943	36.791899529202
7	192	503.608800635514	27.3483898792
7	195	509.168393536932	29.97890773495
7	200	525.205364723672	42.119487667865
7	203	535.19867284084	45.767119667189
7	204	536.97234393134	41.927163123915
7	207	552.403772221636	53.606667252608
7	208	553.33335016374	48.805231243534
7	211	557.737656055607	42.717917632795
7	214	561.563309220314	42.43164847493
7	219	590.011555196692	57.268164981914
7	222	593.904217791738	48.823377753712
7	223	602.789397793493	49.444204443445
7	229	625.371858012532	66.836700723472
7	230	628.395973115763	52.088856962643
7	231	632.374346835783	53.601452562711
7	234	640.041665941046	47.680829715615
7	239	649.351752755057	27.869013190095
7	240	649.451108652342	12.819747347607
7	243	655.969562975835	13.786419777549
7	246	658.948809242448	12.722326484013
7	247	666.890003562156	11.142858140039
7	248	669.690908130037	12.989571474371
7	254	687.32047340833	0
7	275	731.237101902422	38.885691948792
7	276	734.286307791183	32.101081915412
7	279	744.108648715658	31.468116083362
7	280	745.759085934439	31.500611686339
7	281	749.21647343245	11.106500747314
7	284	751.032734217623	0
7	287	752.077991711549	0
7	290	783.121513972541	0
7	295	789.287371777405	2.288509513785
7	296	800.295974768857	12.538062209228
7	299	804.658261068389	0
7	302	810.585177372074	0
7	305	814.073535847207	0.355391775722
7	308	818.989128800735	1.943215065908
7	311	828.883948141734	1.369104802303
7	324	838.847582414567	3.405729466022
7	325	839.369778970778	3.552552164705
7	330	855.395139894492	18.005061059613
7	333	861.934062645585	22.35601053746
7	334	862.184015361131	17.32408323959
7	335	868.364762067561	9.01157100936
7	338	879.526058134851	0
7	341	883.007174196405	3.363865604708
7	344	894.748798914436	0
7	347	901.308043137203	1.828287945314
7	350	907.104944598277	5.675833589914
7	353	914.107925408004	1.437096479332
7	356	921.083001103788	0
7	359	922.495206296778	0
7	364	924.896375796065	0.470129260878
7	365	931.254522662653	6.427312109614
7	368	941.643193032314	0
7	371	952.314999984398	0
7	374	976.309122619328	0
7	377	976.800976198524	0.235361880865
7	380	990.869953833979	11.66822985068
7	383	993.234354209163	0
7	404	1046.110457952669	8.292743910835
7	413	1071.27649422975	16.41272116246
7	414	1075.613304242504	13.127065365547
7	415	1076.3377818803	8.751467211795
7	420	1089.731785627706	21.53548707688
7	430	1111.22251704199	29.440598189893
7	431	1112.112627840066	26.267357331959
7	436	1119.772358337991	25.992115101996
7	437	1132.170878064726	31.25209442547
7	444	1147.395069994742	42.095163895296
7	451	1164.009867477781	48.843506195504
7	458	1179.745702273995	62.160126857481
7	459	1184.625959535917	44.428012107354
7	462	1186.245560021257	43.000232965172
7	469	1202.560681564505	57.548881611993
7	470	1214.252677700209	63.643873464612
7	471	1220.933411689958	60.898733266325
7	474	1230.696915007967	69.459286635232
7	477	1243.191918911777	72.169941465138
7	478	1243.813400921612	68.979037501239
7	479	1244.8810225227	67.422224476279
7	480	1252.290360547972	67.45481372763
7	489	1272.646000573017	73.402286124404
7	490	1274.752084205503	74.717572138983
7	491	1296.991460497343	95.257577833196
7	494	1302.014857191364	75.359022097447
7	495	1306.791150518726	63.764575515691
7	500	1324.440142920167	71.967995991472
7	501	1324.792673484324	71.560286269647
7	510	1337.432944902366	74.132614972178
7	511	1337.696700832324	67.508593224262
7	512	1337.928544648251	36.233468923569
7	515	1341.93345320986	22.326742593991
7	516	1344.607631365796	21.386238172309
7	528	1368.839108243929	43.004464368637
7	529	1375.200057134633	48.824311189087
7	536	1394.068559903232	66.563254255794
7	539	1398.023282471421	70.092562960637
7	542	1410.902703795888	71.772591752844
7	543	1430.450061938515	84.883831715178
7	544	1432.584928259968	78.367871447252
7	545	1433.378301057237	78.72008054306
7	550	1448.745111480544	83.991459309956
7	555	1454.192738376458	71.325593693631
7	558	1458.099326211529	72.483076785009
7	561	1463.536861059004	77.663139841415
7	564	1473.727217600343	77.22980575386
7	567	1481.168068439559	74.87431066351
7	570	1485.042355344717	42.746905471001
7	571	1487.218398392613	42.818451118304
7	572	1492.054515859045	40.977270686826
7	573	1492.354113255259	40.626766777939
7	576	1499.128653192378	44.831345528097
7	581	1504.611472014621	43.738828811039
7	582	1505.165471200373	38.796262105376
7	585	1508.564706732219	28.62284908354
7	588	1518.109282446874	36.872255620852
7	591	1520.28869730321	24.563779136807
7	592	1525.582957321238	26.446645040318
7	593	1529.459020452997	27.352631148256
7	598	1544.377691689287	38.920323297424
7	601	1547.358803090545	35.434944987335
7	602	1548.867643403712	29.221743240284
7	603	1560.502871749399	27.90162016131
7	608	1587.307159902028	47.367317213894
7	611	1591.787059512136	45.092762189533
7	612	1592.013999413575	12.653180775096
7	613	1597.476646163008	15.942713204011
7	616	1600.071713954882	8.777619459468
7	617	1605.060437882227	5.44886668289
7	620	1615.238231094837	0
7	623	1617.341869823892	0.333143449838
7	626	1620.249950838995	1.446283727908
7	629	1654.320999339294	0
7	634	1658.536553047321	4.006420269113
7	635	1661.736283080309	6.704940057992
7	641	1676.36398412631	8.244512134823
7	644	1680.17741353523	0
7	647	1689.308059061947	3.850205073837
7	655	1700.7701803878	8.32947801913
7	662	1705.839895836118	9.828096798318
7	667	1713.031966377001	11.257148052826
7	670	1715.983685585213	11.915338071788
7	675	1723.487782748347	18.943705776606
7	676	1723.51689168652	15.644341110293
7	681	1726.365487812563	14.390113295825
7	684	1731.5392351812	17.366107427032
7	685	1737.669908772976	19.110541948154
7	690	1738.718884915744	16.145678501691
7	691	1742.033841130302	17.385517887512
7	694	1749.764230225524	23.792659745066
7	699	1753.330783304303	22.731885626646
7	702	1757.388311350181	19.189565937523
7	705	1758.50894560849	19.891317347634
7	706	1760.341531827062	15.993737904235
7	707	1761.057079878265	8.524193938116
7	713	1773.884266555126	21.035854319867
7	716	1779.316920040477	22.242501755264
7	717	1781.198772481959	23.415142440879
7	720	1784.703508289556	21.303582453858
7	749	1829.051505319629	53.401436293576
7	754	1852.492695145654	69.27598240623
7	755	1852.511928142379	63.647504823184
7	760	1860.084752244669	68.438435719745
7	767	1866.758380210461	70.739698812249
7	770	1870.606082566232	59.212025511937
7	777	1896.237408717963	77.614005812712
7	778	1900.900161039914	80.429501165786
7	788	1916.283321970244	92.778620244977
7	789	1926.21703354573	101.44042214748
7	794	1945.781572429656	101.91711786674
7	795	1948.598250978651	101.36230559641
7	800	1961.487660096095	108.46723407793
7	803	1961.668750258031	105.06809047059
7	806	1979.208837039271	116.4269084902
7	809	1992.550598212888	129.64040399794
7	810	1993.221722433381	126.68072041434
7	813	1996.181338103857	128.06999762394
7	814	1996.19633914071	113.147157773
7	815	1998.94335897496	114.76156245361
7	816	2002.335461987674	117.3485520136
7	817	2003.758353415799	101.7478720858
7	825	2015.016629984039	108.244175986
7	833	2040.311494183836	127.1633805891
7	842	2049.548299660416	123.02865951184
7	843	2052.581089233212	121.69096710287
7	846	2058.538240997898	108.29973369858
7	847	2059.45076273926	99.764438088401
7	854	2074.719984207785	113.18954065074
7	857	2077.314086131812	111.66882042783
7	858	2078.614210537188	95.813995517272
7	861	2083.071619652825	87.35867013309
7	862	2085.693150333721	75.387441603232
7	863	2090.630601738948	77.094746222697
7	868	2096.169812761911	62.657984830256
7	871	2102.486001062386	68.908960985367
7	872	2109.010871727616	66.991992684167
7	875	2110.291677142049	68.272641361731
7	876	2114.817081930503	67.983280314248
7	885	2132.548603489825	84.077514969587
7	886	2132.666080272673	74.742762743912
7	887	2132.869255755982	69.35045479417
7	888	2134.227006126113	65.338118341039
7	889	2137.045507590159	64.316478361355
7	890	2137.652230371973	62.710038251359
7	891	2140.518776023394	59.422768710539
7	896	2154.758445668627	61.382624904992
7	899	2159.283166590682	63.134848412011
7	902	2160.385407908051	58.425647724745
7	903	2162.266559526043	52.015661223508
7	906	2166.904153197524	50.589889623254
7	909	2177.872432211239	51.26089356101
7	912	2202.452705621187	75.2090949787
7	917	2210.717876392581	79.432771103887
7	920	2216.146479033657	67.850440077688
7	921	2218.106808894088	68.112593443244
7	926	2223.057258422176	67.645503628135
7	929	2234.127204896104	73.876337537924
7	932	2234.63928354408	72.103428428788
7	935	2236.357805780532	64.642759641526
7	936	2240.116578245454	44.632244618076
7	939	2259.628467166643	53.054790985686
7	942	2263.64079736444	53.369098386181
7	949	2269.954053585052	54.044816278858
7	950	2271.106886823242	50.926157589385
7	955	2273.128589114952	52.408746053374
7	968	2300.985685739398	76.329399920061
7	973	2304.600680739736	69.997825857213
7	976	2312.535289946417	77.712046038937
7	979	2314.977607248648	58.087811452321
7	980	2315.533862025394	52.785847766862
7	981	2323.97456258738	59.184538937453
7	984	2342.69543775974	77.646878407016
7	985	2347.534319632699	77.771625408112
7	986	2350.712743900467	78.562541187103
7	987	2353.274909988675	80.856724259228
7	988	2358.462478883844	81.560034786597
7	989	2361.74933274984	69.739714242704
7	994	2370.243145295428	76.029663120062
7	1001	2401.843751801922	107.12335884503
7	1002	2401.87197356198	105.28865549761
7	1012	2415.839036256494	118.1378917543
7	1013	2417.602347651453	114.54709760776
7	1014	2421.491934544744	118.18986217638
7	1017	2427.529125225918	121.6547499167
7	1020	2431.574010129656	116.66588829291
7	1027	2440.484204541177	99.563270359943
7	1028	2441.045245959878	75.94771019962
7	1029	2444.978978884921	75.434774265178
7	1032	2451.748555480073	75.144223605175
7	1035	2453.14047797898	60.016582742136
7	1040	2457.832529986843	58.934827256941
7	1041	2460.669768232303	57.596659776138
7	1042	2464.496923427204	52.583792066019
7	1043	2465.071245009222	52.829863206965
7	1044	2465.978820515199	42.974879369079
7	1047	2467.774288841965	38.635882435253
7	1050	2474.515837990312	37.926854696818
7	1055	2488.267921119391	50.862879213376
7	1056	2493.147946012401	53.149894652322
7	1059	2498.319783719986	49.263333987193
8	126	373.24928989367	29
8	129	379.915805560296	30
8	132	406.191172579672	31
8	143	421.202232698575	32
8	144	423.220710315945	33
8	147	425.146865761337	34
8	150	433.459540697936	35
8	191	501.447954534943	36
8	192	503.608800635514	37
8	203	535.19867284084	38
8	204	536.97234393134	39
8	207	552.403772221636	40
8	208	553.33335016374	41
8	211	557.737656055607	42
8	214	561.563309220314	43
8	219	590.011555196692	44
8	223	602.789397793493	45
8	230	628.395973115763	46
8	231	632.374346835783	47
8	234	640.041665941046	48
8	239	649.351752755057	49
8	240	649.451108652342	50
8	243	655.969562975835	51
8	246	658.948809242448	52
8	247	666.890003562156	53
8	248	669.690908130037	54
8	249	673.456324751852	55
8	276	734.286307791183	56
8	279	744.108648715658	57
8	280	745.759085934439	58
8	281	749.21647343245	59
8	282	749.317422517788	60
8	285	751.861687991151	61
8	288	761.518762824314	62
8	295	789.287371777405	63
8	296	800.295974768857	64
8	297	804.203904412254	65
8	300	807.198121479875	66
8	308	818.989128800735	67
8	312	829.642101826947	68
8	325	839.369778970778	69
8	333	861.934062645585	70
8	334	862.184015361131	71
8	335	868.364762067561	72
8	336	872.415899346902	73
8	342	892.755198405211	74
8	350	907.104944598277	75
8	353	914.107925408004	76
8	354	917.458291162875	77
8	357	921.125476779757	78
8	364	924.896375796065	79
8	365	931.254522662653	80
8	366	935.151601774512	81
8	369	942.12076070411	82
8	372	967.434737392673	83
8	380	990.869953833979	84
8	381	993.074960479989	85
8	384	995.384562567839	86
8	413	1071.27649422975	87
8	414	1075.613304242504	88
8	415	1076.3377818803	89
8	431	1112.112627840066	90
8	436	1119.772358337991	91
8	437	1132.170878064726	92
8	444	1147.395069994742	93
8	459	1184.625959535917	94
8	462	1186.245560021257	95
8	469	1202.560681564505	96
8	470	1214.252677700209	97
8	471	1220.933411689958	98
8	474	1230.696915007967	99
8	478	1243.813400921612	100
8	479	1244.8810225227	101
8	480	1252.290360547972	102
8	490	1274.752084205503	103
8	491	1296.991460497343	104
8	494	1302.014857191364	105
8	495	1306.791150518726	106
8	500	1324.440142920167	107
8	501	1324.792673484324	108
8	510	1337.432944902366	109
8	511	1337.696700832324	110
8	512	1337.928544648251	111
8	515	1341.93345320986	112
8	516	1344.607631365796	113
8	529	1375.200057134633	114
8	543	1430.450061938515	115
8	544	1432.584928259968	116
8	545	1433.378301057237	117
8	558	1458.099326211529	118
8	564	1473.727217600343	119
8	567	1481.168068439559	120
8	571	1487.218398392613	121
8	572	1492.054515859045	122
8	573	1492.354113255259	123
8	582	1505.165471200373	124
8	585	1508.564706732219	125
8	591	1520.28869730321	126
8	592	1525.582957321238	127
8	593	1529.459020452997	128
8	598	1544.377691689287	129
8	601	1547.358803090545	130
8	602	1548.867643403712	131
8	603	1560.502871749399	132
8	612	1592.013999413575	133
8	613	1597.476646163008	134
8	616	1600.071713954882	135
8	617	1605.060437882227	136
8	618	1606.210457258082	137
8	623	1617.341869823892	138
8	626	1620.249950838995	139
8	627	1625.221131418934	140
8	634	1658.536553047321	141
8	635	1661.736283080309	142
8	636	1664.514611071288	143
8	642	1676.616442072426	144
8	647	1689.308059061947	145
8	670	1715.983685585213	146
8	675	1723.487782748347	147
8	676	1723.51689168652	148
8	685	1737.669908772976	149
8	691	1742.033841130302	150
8	702	1757.388311350181	151
8	706	1760.341531827062	152
8	707	1761.057079878265	153
8	716	1779.316920040477	154
8	717	1781.198772481959	155
8	720	1784.703508289556	156
8	755	1852.511928142379	157
8	767	1866.758380210461	158
8	770	1870.606082566232	159
8	778	1900.900161039914	160
8	789	1926.21703354573	161
8	794	1945.781572429656	162
8	795	1948.598250978651	163
8	806	1979.208837039271	164
8	809	1992.550598212888	165
8	810	1993.221722433381	166
8	814	1996.19633914071	167
8	815	1998.94335897496	168
8	816	2002.335461987674	169
8	817	2003.758353415799	170
8	843	2052.581089233212	171
8	846	2058.538240997898	172
8	847	2059.45076273926	173
8	858	2078.614210537188	174
8	862	2085.693150333721	175
8	863	2090.630601738948	176
8	868	2096.169812761911	177
8	872	2109.010871727616	178
8	876	2114.817081930503	179
8	886	2132.666080272673	180
8	887	2132.869255755982	181
8	888	2134.227006126113	182
8	889	2137.045507590159	183
8	890	2137.652230371973	184
8	891	2140.518776023394	185
8	899	2159.283166590682	186
8	902	2160.385407908051	187
8	903	2162.266559526043	188
8	909	2177.872432211239	189
8	920	2216.146479033657	190
8	921	2218.106808894088	191
8	929	2234.127204896104	192
8	932	2234.63928354408	193
8	936	2240.116578245454	194
8	939	2259.628467166643	195
8	942	2263.64079736444	196
8	949	2269.954053585052	197
8	950	2271.106886823242	198
8	976	2312.535289946417	199
8	979	2314.977607248648	200
8	980	2315.533862025394	201
8	981	2323.97456258738	202
8	984	2342.69543775974	203
8	985	2347.534319632699	204
8	986	2350.712743900467	205
8	987	2353.274909988675	206
8	988	2358.462478883844	207
8	989	2361.74933274984	208
8	994	2370.243145295428	209
8	1001	2401.843751801922	210
8	1002	2401.87197356198	211
8	1013	2417.602347651453	212
8	1014	2421.491934544744	213
8	1028	2441.045245959878	214
8	1029	2444.978978884921	215
8	1035	2453.14047797898	216
8	1041	2460.669768232303	217
8	1042	2464.496923427204	218
8	1043	2465.071245009222	219
8	1044	2465.978820515199	220
8	1047	2467.774288841965	221
8	1050	2474.515837990312	222
8	1056	2493.147946012401	223
8	1059	2498.319783719986	224
9	126	373.24928989367	10.470277333253
9	129	379.915805560296	0.973482793016
9	132	406.191172579672	1.773599056001
9	143	421.202232698575	10.25716258092
9	144	423.220710315945	8.794583077467
9	147	425.146865761337	0.426716224849
9	150	433.459540697936	6.920890086719
9	191	501.447954534943	41.474893595343
9	192	503.608800635514	38.952745629773
9	203	535.19867284084	52.112795785033
9	204	536.97234393134	47.540790757689
9	207	552.403772221636	57.358591414211
9	208	553.33335016374	54.536245194712
9	211	557.737656055607	53.209537135401
9	214	561.563309220314	46.543570797502
9	219	590.011555196692	70.879894451308
9	223	602.789397793493	57.708557755467
9	230	628.395973115763	69.860815826703
9	231	632.374346835783	56.067230682663
9	234	640.041665941046	61.268771667974
9	239	649.351752755057	56.990916529626
9	240	649.451108652342	27.96836908738
9	243	655.969562975835	19.3382016711
9	246	658.948809242448	16.765666044162
9	247	666.890003562156	20.663520803721
9	248	669.690908130037	13.94376270792
9	249	673.456324751852	16.754988096186
9	276	734.286307791183	41.934897837553
9	279	744.108648715658	41.923422839887
9	280	745.759085934439	33.118553302143
9	281	749.21647343245	34.95799918435
9	282	749.317422517788	11.207449832652
9	285	751.861687991151	0.828953773528
9	288	761.518762824314	9.440771112765
9	295	789.287371777405	6.165857804864
9	296	800.295974768857	13.297112505237
9	297	804.203904412254	16.445991852625
9	300	807.198121479875	2.539860411486
9	308	818.989128800735	5.27098472925
9	312	829.642101826947	2.127258487516
9	325	839.369778970778	3.927926022233
9	333	861.934062645585	24.543983810706
9	334	862.184015361131	22.605963253006
9	335	868.364762067561	23.50482994602
9	336	872.415899346902	13.062708288701
9	342	892.755198405211	13.111889813514
9	350	907.104944598277	7.625189406388
9	353	914.107925408004	12.678814399641
9	354	917.458291162875	4.787462234203
9	357	921.125476779757	0.042475675969
9	364	924.896375796065	2.401169499287
9	365	931.254522662653	6.828276127466
9	366	935.151601774512	10.324391221473
9	369	942.12076070411	0.477567671796
9	372	967.434737392673	15.119737408275
9	380	990.869953833979	14.30433951632
9	381	993.074960479989	13.87323649669
9	384	995.384562567839	2.150208358676
9	413	1071.27649422975	33.458780187916
9	414	1075.613304242504	20.749531175214
9	415	1076.3377818803	13.851543003343
9	431	1112.112627840066	30.330708987969
9	436	1119.772358337991	33.927087829884
9	437	1132.170878064726	38.390634828731
9	444	1147.395069994742	46.476286355486
9	459	1184.625959535917	67.040384119403
9	462	1186.245560021257	46.047612592694
9	469	1202.560681564505	59.31535450842
9	470	1214.252677700209	69.240877747697
9	471	1220.933411689958	70.324607454361
9	474	1230.696915007967	70.662236584334
9	478	1243.813400921612	72.791423474973
9	479	1244.8810225227	70.046659102327
9	480	1252.290360547972	74.831562501551
9	490	1274.752084205503	75.50836975689
9	491	1296.991460497343	96.956948430823
9	494	1302.014857191364	100.28097452722
9	495	1306.791150518726	80.135315424809
9	500	1324.440142920167	81.413567917132
9	501	1324.792673484324	72.320526555629
9	510	1337.432944902366	84.200557687689
9	511	1337.696700832324	74.396370902136
9	512	1337.928544648251	67.740437040189
9	515	1341.93345320986	40.238377485178
9	516	1344.607631365796	25.000920749927
9	529	1375.200057134633	49.365413259341
9	543	1430.450061938515	91.319949895471
9	544	1432.584928259968	87.018698036631
9	545	1433.378301057237	79.161244244521
9	558	1458.099326211529	75.232181528702
9	564	1473.727217600343	87.853496382754
9	567	1481.168068439559	84.670656593076
9	571	1487.218398392613	44.922948518897
9	572	1492.054515859045	47.654568584736
9	573	1492.354113255259	41.27686808304
9	582	1505.165471200373	44.292827996791
9	585	1508.564706732219	42.195497637222
9	591	1520.28869730321	39.051670477188
9	592	1525.582957321238	29.858039154835
9	593	1529.459020452997	30.322708172077
9	598	1544.377691689287	42.271302384546
9	601	1547.358803090545	41.901434698682
9	602	1548.867643403712	36.943785300502
9	603	1560.502871749399	40.856971585971
9	612	1592.013999413575	45.319702090972
9	613	1597.476646163008	18.115827524529
9	616	1600.071713954882	18.537780995885
9	617	1605.060437882227	13.766343386813
9	618	1606.210457258082	6.598886058745
9	623	1617.341869823892	2.103638729055
9	626	1620.249950838995	3.241224464941
9	627	1625.221131418934	6.417464307847
9	634	1658.536553047321	4.215553708027
9	635	1661.736283080309	7.206150302101
9	636	1664.514611071288	9.483268048971
9	642	1676.616442072426	8.496970080939
9	647	1689.308059061947	9.130645526717
9	670	1715.983685585213	14.208867261038
9	675	1723.487782748347	19.419435234922
9	676	1723.51689168652	18.972814714779
9	685	1737.669908772976	23.496781018808
9	691	1742.033841130302	19.460634716249
9	702	1757.388311350181	26.789413672524
9	706	1760.341531827062	21.723903566206
9	707	1761.057079878265	16.709285955438
9	716	1779.316920040477	26.468507805218
9	717	1781.198772481959	24.124354196746
9	720	1784.703508289556	26.919878248476
9	755	1852.511928142379	69.295215402955
9	767	1866.758380210461	75.112063685537
9	770	1870.606082566232	74.58740116802
9	778	1900.900161039914	82.276758134663
9	789	1926.21703354573	102.71233182046
9	794	1945.781572429656	121.00496103141
9	795	1948.598250978651	104.73379641573
9	806	1979.208837039271	122.60817725184
9	809	1992.550598212888	129.76866966382
9	810	1993.221722433381	130.31152821844
9	814	1996.19633914071	128.0849986608
9	815	1998.94335897496	115.89417760724
9	816	2002.335461987674	118.15366546632
9	817	2003.758353415799	118.77144344173
9	843	2052.581089233212	126.06144908464
9	846	2058.538240997898	127.64811886756
9	847	2059.45076273926	109.21225543994
9	858	2078.614210537188	112.96894483321
9	862	2085.693150333721	89.980200813986
9	863	2090.630601738948	80.324893008459
9	868	2096.169812761911	82.63395724566
9	872	2109.010871727616	75.433831650597
9	876	2114.817081930503	72.798046150185
9	886	2132.666080272673	84.194991752435
9	887	2132.869255755982	74.945938227221
9	888	2134.227006126113	70.708205164301
9	889	2137.045507590159	68.156619805085
9	890	2137.652230371973	64.923201143169
9	891	2140.518776023394	65.57658390278
9	899	2159.283166590682	65.907345827047
9	902	2160.385407908051	64.23708972938
9	903	2162.266559526043	60.306799342737
9	909	2177.872432211239	61.558168636969
9	920	2216.146479033657	84.861373744963
9	921	2218.106808894088	69.810769938119
9	929	2234.127204896104	78.715450102063
9	932	2234.63928354408	74.3884161859
9	936	2240.116578245454	68.401532106448
9	939	2259.628467166643	64.144133539265
9	942	2263.64079736444	57.067121183483
9	949	2269.954053585052	59.682354606793
9	950	2271.106886823242	55.197649517048
9	976	2312.535289946417	77.932435063894
9	979	2314.977607248648	80.154363341168
9	980	2315.533862025394	58.644066229067
9	981	2323.97456258738	61.226548328848
9	984	2342.69543775974	77.905414109813
9	985	2347.534319632699	82.485760279975
9	986	2350.712743900467	80.95004967588
9	987	2353.274909988675	81.124707275311
9	988	2358.462478883844	86.044293154397
9	989	2361.74933274984	84.846888652593
9	994	2370.243145295428	78.233526788292
9	1001	2401.843751801922	107.63026962656
9	1002	2401.87197356198	107.15158060509
9	1013	2417.602347651453	119.90120314925
9	1014	2421.491934544744	118.43668450105
9	1028	2441.045245959878	100.12431177864
9	1029	2444.978978884921	79.881443124663
9	1035	2453.14047797898	76.536146104082
9	1041	2460.669768232303	61.772065502401
9	1042	2464.496923427204	61.423814971039
9	1043	2465.071245009222	53.158113648037
9	1044	2465.978820515199	53.737438712942
9	1047	2467.774288841965	44.770347695845
9	1050	2474.515837990312	45.3774315836
9	1056	2493.147946012401	55.742904106386
9	1059	2498.319783719986	58.321732359907
10	154	436.114629776888	9
10	163	453.737651697012	10
10	166	454.215286568968	11
10	173	464.656055005741	12
10	176	476.260410756314	13
10	179	479.189485801982	14
10	182	483.085877055807	15
10	189	498.797104969028	16
10	194	504.528118920206	17
10	199	519.131660745384	18
10	221	592.360836225431	19
10	225	621.482739564962	20
10	256	692.35140995363	21
10	304	813.718144071485	22
10	310	827.514843339431	23
10	327	839.578052108125	24
10	340	879.643308591697	25
10	346	899.479755191889	26
10	376	976.565614317659	27
10	419	1085.845270508107	28
10	424	1100.918783639256	29
10	450	1161.237628372735	30
10	457	1177.458798046421	31
10	476	1243.026575003035	32
10	482	1252.472146928695	33
10	522	1354.658220514177	34
10	531	1382.867144682827	35
10	538	1396.497411846483	36
10	541	1406.293757776049	37
10	547	1442.295449873716	38
10	554	1451.72734647732	39
10	560	1460.872643203582	40
10	569	1481.237026826022	41
10	575	1495.724918166403	42
10	578	1499.13631228092	43
10	587	1511.92385810321	44
10	607	1581.533932958997	45
10	610	1591.294094495414	46
10	649	1692.44070236867	47
10	657	1701.774818324175	48
10	664	1707.872550576227	49
10	680	1725.971570480458	50
10	683	1730.598897677657	51
10	687	1738.198745412658	52
10	693	1744.347793922827	53
10	698	1752.848412235259	54
10	704	1757.78363004108	55
10	709	1763.399925835698	56
10	722	1788.864423319195	57
10	753	1847.235945382245	58
10	759	1856.600659787436	59
10	776	1884.986909974073	60
10	780	1902.010481329994	61
10	799	1959.686324650859	62
10	802	1961.530443557048	63
10	812	1995.712949519735	64
10	819	2010.305708730489	65
10	827	2033.511827931655	66
10	835	2042.018879043449	67
10	853	2072.729029228804	68
10	856	2074.942192120614	69
10	860	2081.096007312855	70
10	870	2101.959760183306	71
10	874	2110.250898302535	72
10	878	2116.31426357427	73
10	895	2149.994215450844	74
10	905	2162.535855115292	75
10	911	2195.484333627378	76
10	914	2206.573676180957	77
10	923	2220.180729233857	78
10	934	2234.82324390748	79
10	952	2272.150202713364	80
10	961	2294.213482175366	81
10	972	2303.302072368365	82
10	1004	2403.073108456165	83
10	1016	2423.00394114612	84
10	1019	2429.138406406712	85
10	1022	2436.588983293494	86
10	1031	2449.056449732793	87
10	1039	2456.915004370078	88
10	1054	2480.556299264915	89
11	1060	2500	0.0896
12	1060	2500	0.0492

