version 2
run experiments_medium_game_mode1-287-20230311-09:40:56-10115
attr configname experiments_medium_game_mode1
attr datetime 20230311-09:40:56
attr experiment experiments_medium_game_mode1
attr inifile omnetpp.ini
attr iterationvars "$0=5, $1=7, $2=100"
attr iterationvarsf 5,7,100-
attr measurement "$0=5, $1=7, $2=100"
attr network Network
attr processid 10115
attr repetition 17
attr replication #17
attr resultdir results
attr runnumber 287
attr seedset 17
param *.boss.arrival_mean 20
param *.boss.service_mean 5
param *.minion.arrival_mean 10
param *.minion.service_mean 7
param *.player.recover_rate_x 100
param **.minion.arrival_distribution 0
param **.minion.service_distribution 0
param **.boss.arrival_distribution 0
param **.boss.service_distribution 0

vector 0 Network.player boss_jobs_number_stat:vector ETV
attr source signal_boss_jobs_number
vector 1 Network.player boss_jobs_queue_number_stat:vector ETV
attr source signal_boss_jobs_queue_number
vector 2 Network.player boss_defeated_stat:vector ETV
attr source signal_boss_defeated
vector 3 Network.player boss_response_time_stat:vector ETV
attr source signal_boss_response_time
vector 4 Network.player boss_waiting_time_stat:vector ETV
attr source signal_boss_waiting_time
vector 5 Network.player minion_waiting_time_stat:vector ETV
attr source signal_minion_waiting_time
vector 6 Network.player minion_recovered_stat:vector ETV
attr source signal_minion_recovered
vector 7 Network.player minion_jobs_number_stat:vector ETV
attr source signal_minion_jobs_number
vector 8 Network.player minion_jobs_queue_number_stat:vector ETV
attr source signal_minion_jobs_queue_number
vector 9 Network.player minion_defeated_stat:vector ETV
attr source signal_minion_defeated
vector 10 Network.player minion_response_time_stat:vector ETV
attr source signal_minion_response_time
vector 11 Network.player minion_throughput:vector ETV
attr source signal_minion_throughput
vector 12 Network.player boss_throughput:vector ETV
attr source signal_boss_throughput
0	155	350.171511211393	2
0	159	359.177002320821	1
0	164	365.26094743687	1
0	166	368.098189762035	2
0	181	385.995055935859	1
0	195	401.159380145501	1
0	203	408.580972013092	1
0	205	411.98303390355	2
0	207	412.876803304027	3
0	212	422.146072715288	3
0	217	446.775027194891	1
0	223	468.45014409572	1
0	226	472.544172029421	1
0	233	487.076176212721	1
0	236	491.308263830936	1
0	243	514.420445053881	1
0	255	540.977110483324	1
0	259	551.819681983572	1
0	261	554.511948886503	2
0	271	575.952425612315	1
0	277	583.288797401775	1
0	280	588.718100361583	1
0	303	643.125925376857	1
0	306	645.586996621865	1
0	335	730.571370209296	1
0	337	734.350173070654	2
0	371	810.658340050417	1
0	385	884.907727247863	1
0	387	887.721201712711	2
0	389	888.414522886148	3
0	391	888.512631947575	4
0	394	890.614748597704	4
0	408	921.637319564409	3
0	417	933.050810641064	1
0	430	955.511706174683	1
0	448	994.890497857697	1
0	450	1003.331701847225	2
0	464	1024.71278138575	1
0	467	1033.063840915732	1
0	473	1051.810539160986	1
0	481	1065.212657206365	1
0	484	1065.754729663329	1
0	488	1080.816328212444	2
0	503	1093.090213003979	1
0	546	1190.157796246335	1
0	550	1195.018006867426	2
0	563	1254.157083332267	1
0	577	1280.882010518192	1
0	584	1313.151903889802	1
0	592	1321.444395591257	2
0	595	1325.585896946281	2
0	601	1335.422098015786	1
0	604	1338.793171785704	1
0	609	1343.945698054676	1
0	611	1344.605648280557	2
0	613	1348.23718360817	3
0	618	1354.444723385226	1
0	621	1363.78207600242	1
0	624	1372.897775342055	1
0	628	1380.740144125913	1
0	648	1449.877692855951	1
0	654	1463.860393903988	1
0	659	1472.968465229854	1
0	666	1519.198196621634	1
0	671	1532.42682870514	1
0	679	1550.165412899953	1
0	683	1554.583269324379	2
0	694	1573.502541172078	1
0	715	1622.789686438765	1
0	717	1626.079452015312	2
0	721	1630.884862694327	3
0	723	1635.526245392597	4
0	734	1672.708889509399	1
0	745	1683.53909461402	1
0	748	1684.610946595907	1
0	752	1685.324302382972	2
0	756	1690.607090687069	1
0	758	1690.716656719464	2
0	771	1722.801084257979	1
0	782	1752.565669775121	1
0	785	1757.548582860074	1
0	802	1795.945836784854	1
0	807	1803.075119845715	1
0	834	1863.031907122048	1
0	838	1873.807397067592	1
0	841	1876.768904317585	1
0	853	1890.39997952919	1
0	856	1891.62937734553	1
0	861	1895.714537944116	1
0	867	1904.656803873486	2
0	874	1907.741361857288	1
0	876	1907.770545241994	2
0	878	1910.078089205621	3
0	891	1928.628792155236	1
0	901	1940.266183214219	1
0	912	1969.677378120698	1
0	927	2005.109057834261	1
0	943	2037.716048677079	1
0	961	2096.363142973599	1
0	963	2103.40630497504	2
0	970	2118.70735399252	2
0	979	2130.419533422778	1
0	987	2149.699629152779	1
0	1000	2180.406746134353	1
0	1008	2189.056782590741	1
0	1017	2208.817946604845	1
0	1025	2249.007462530087	1
0	1034	2267.540485069693	1
0	1043	2284.914111308136	1
0	1060	2303.01610025261	1
0	1084	2370.815889430469	1
0	1086	2386.415765345996	2
0	1113	2426.057704019991	1
0	1115	2426.901955418237	2
0	1119	2436.157063888962	3
0	1134	2467.123966566147	1
0	1139	2473.867866227238	1
0	1149	2489.726720628059	1
1	155	350.171511211393	1
1	156	353.344738418983	1
1	157	355.290835608685	0
1	159	359.177002320821	0
1	162	362.789320280922	0
1	164	365.26094743687	0
1	166	368.098189762035	1
1	169	371.566415482964	1
1	170	371.832594974144	0
1	181	385.995055935859	0
1	182	386.537618898158	0
1	195	401.159380145501	0
1	196	401.910088266849	0
1	203	408.580972013092	0
1	205	411.98303390355	1
1	207	412.876803304027	2
1	208	413.163559285727	2
1	212	422.146072715288	2
1	213	427.189917497707	2
1	214	427.922357441697	1
1	215	435.680222571414	0
1	217	446.775027194891	0
1	218	458.250785452565	0
1	223	468.45014409572	0
1	224	468.869554149841	0
1	226	472.544172029421	0
1	227	473.956035000615	0
1	233	487.076176212721	0
1	234	489.345794061866	0
1	236	491.308263830936	0
1	241	506.660182670723	0
1	243	514.420445053881	0
1	244	520.577502646217	0
1	255	540.977110483324	0
1	256	548.73981259588	0
1	259	551.819681983572	0
1	261	554.511948886503	1
1	262	557.378756655542	1
1	263	560.225395712413	0
1	271	575.952425612315	0
1	272	577.9018900646	0
1	277	583.288797401775	0
1	278	584.758140273916	0
1	280	588.718100361583	0
1	281	589.162810097485	0
1	303	643.125925376857	0
1	304	645.449045145658	0
1	306	645.586996621865	0
1	307	647.69619737293	0
1	335	730.571370209296	0
1	337	734.350173070654	1
1	338	734.78433097299	1
1	349	759.20056697042	0
1	371	810.658340050417	0
1	372	812.353647148666	0
1	385	884.907727247863	0
1	387	887.721201712711	1
1	389	888.414522886148	2
1	391	888.512631947575	3
1	392	890.393903172406	3
1	394	890.614748597704	3
1	399	900.20419523379	3
1	404	909.257044634215	2
1	408	921.637319564409	2
1	409	922.317788523386	2
1	410	922.692474020673	1
1	411	922.883592904869	0
1	417	933.050810641064	0
1	420	934.247753038994	0
1	430	955.511706174683	0
1	431	957.470126032248	0
1	448	994.890497857697	0
1	450	1003.331701847225	1
1	453	1004.898537500106	1
1	454	1006.959790968176	0
1	464	1024.71278138575	0
1	465	1031.475641295442	0
1	467	1033.063840915732	0
1	468	1037.996181834585	0
1	473	1051.810539160986	0
1	476	1055.837965313033	0
1	481	1065.212657206365	0
1	482	1065.605076243449	0
1	484	1065.754729663329	0
1	488	1080.816328212444	1
1	489	1084.115779879249	1
1	496	1085.400072391735	0
1	503	1093.090213003979	0
1	504	1093.657489625602	0
1	546	1190.157796246335	0
1	550	1195.018006867426	1
1	553	1202.830598561256	1
1	554	1209.393343372029	0
1	563	1254.157083332267	0
1	564	1255.620065117901	0
1	577	1280.882010518192	0
1	578	1282.710348141849	0
1	584	1313.151903889802	0
1	592	1321.444395591257	1
1	593	1323.626969401313	1
1	595	1325.585896946281	1
1	598	1327.882677775781	1
1	599	1329.60097826366	0
1	601	1335.422098015786	0
1	602	1335.868657271501	0
1	604	1338.793171785704	0
1	605	1340.140585036792	0
1	609	1343.945698054676	0
1	611	1344.605648280557	1
1	613	1348.23718360817	2
1	614	1348.822357874246	2
1	615	1349.844675503416	1
1	616	1349.879942636139	0
1	618	1354.444723385226	0
1	619	1355.182682924241	0
1	621	1363.78207600242	0
1	622	1368.099233449117	0
1	624	1372.897775342055	0
1	625	1376.197251490721	0
1	628	1380.740144125913	0
1	633	1391.59031065529	0
1	648	1449.877692855951	0
1	649	1456.437199779314	0
1	654	1463.860393903988	0
1	655	1466.283210225794	0
1	659	1472.968465229854	0
1	660	1480.279280130568	0
1	666	1519.198196621634	0
1	669	1531.110978975295	0
1	671	1532.42682870514	0
1	674	1534.280663548479	0
1	679	1550.165412899953	0
1	683	1554.583269324379	1
1	684	1559.659255987225	1
1	687	1565.59643086944	0
1	694	1573.502541172078	0
1	695	1580.142015066642	0
1	715	1622.789686438765	0
1	717	1626.079452015312	1
1	721	1630.884862694327	2
1	723	1635.526245392597	3
1	724	1637.763289228829	3
1	725	1640.928038108808	2
1	726	1644.70065534236	1
1	727	1647.684248392643	0
1	734	1672.708889509399	0
1	735	1675.427130759024	0
1	745	1683.53909461402	0
1	746	1684.299056010146	0
1	748	1684.610946595907	0
1	752	1685.324302382972	1
1	753	1688.771185030923	1
1	754	1689.535111039352	0
1	756	1690.607090687069	0
1	758	1690.716656719464	1
1	763	1697.993057681977	1
1	764	1698.878974035239	0
1	771	1722.801084257979	0
1	772	1725.657941760231	0
1	782	1752.565669775121	0
1	783	1753.294540704619	0
1	785	1757.548582860074	0
1	786	1763.765410385782	0
1	802	1795.945836784854	0
1	803	1800.449538887007	0
1	807	1803.075119845715	0
1	808	1809.077104748967	0
1	834	1863.031907122048	0
1	835	1863.541081402984	0
1	838	1873.807397067592	0
1	839	1874.675104411321	0
1	841	1876.768904317585	0
1	844	1877.533323963329	0
1	853	1890.39997952919	0
1	854	1890.469340332851	0
1	856	1891.62937734553	0
1	857	1892.772000140238	0
1	861	1895.714537944116	0
1	867	1904.656803873486	1
1	868	1905.44681050785	1
1	869	1905.800655244359	0
1	874	1907.741361857288	0
1	876	1907.770545241994	1
1	878	1910.078089205621	2
1	881	1911.739543350279	2
1	882	1915.457132355576	1
1	883	1915.870127010538	0
1	891	1928.628792155236	0
1	892	1930.678453148245	0
1	901	1940.266183214219	0
1	902	1944.131927185789	0
1	912	1969.677378120698	0
1	915	1974.215624465632	0
1	927	2005.109057834261	0
1	928	2006.568552960579	0
1	943	2037.716048677079	0
1	950	2061.783316158289	0
1	961	2096.363142973599	0
1	963	2103.40630497504	1
1	968	2114.928378491931	1
1	970	2118.70735399252	1
1	971	2121.853437901312	1
1	972	2123.403910190268	0
1	979	2130.419533422778	0
1	980	2132.512908520402	0
1	987	2149.699629152779	0
1	990	2154.454457085293	0
1	1000	2180.406746134353	0
1	1005	2183.416353855055	0
1	1008	2189.056782590741	0
1	1009	2190.315529352579	0
1	1017	2208.817946604845	0
1	1018	2210.724878136214	0
1	1025	2249.007462530087	0
1	1026	2249.80504130774	0
1	1034	2267.540485069693	0
1	1037	2268.444214661687	0
1	1043	2284.914111308136	0
1	1044	2287.897985810345	0
1	1060	2303.01610025261	0
1	1061	2304.446702641795	0
1	1084	2370.815889430469	0
1	1086	2386.415765345996	1
1	1087	2388.635265031394	1
1	1088	2388.641189533844	0
1	1113	2426.057704019991	0
1	1115	2426.901955418237	1
1	1119	2436.157063888962	2
1	1124	2442.761979467421	2
1	1125	2445.206971110931	1
1	1126	2445.861730741563	0
1	1134	2467.123966566147	0
1	1137	2468.214657451065	0
1	1139	2473.867866227238	0
1	1140	2476.138244020592	0
1	1149	2489.726720628059	0
1	1150	2492.138571458029	0
2	156	353.344738418983	20
2	157	355.290835608685	21
2	162	362.789320280922	22
2	169	371.566415482964	23
2	170	371.832594974144	24
2	182	386.537618898158	25
2	196	401.910088266849	26
2	208	413.163559285727	27
2	213	427.189917497707	28
2	214	427.922357441697	29
2	215	435.680222571414	30
2	218	458.250785452565	31
2	224	468.869554149841	32
2	227	473.956035000615	33
2	234	489.345794061866	34
2	241	506.660182670723	35
2	244	520.577502646217	36
2	256	548.73981259588	37
2	262	557.378756655542	38
2	263	560.225395712413	39
2	272	577.9018900646	40
2	278	584.758140273916	41
2	281	589.162810097485	42
2	304	645.449045145658	43
2	307	647.69619737293	44
2	338	734.78433097299	45
2	349	759.20056697042	46
2	372	812.353647148666	47
2	392	890.393903172406	48
2	399	900.20419523379	49
2	404	909.257044634215	50
2	409	922.317788523386	51
2	410	922.692474020673	52
2	411	922.883592904869	53
2	420	934.247753038994	54
2	431	957.470126032248	55
2	453	1004.898537500106	56
2	454	1006.959790968176	57
2	465	1031.475641295442	58
2	468	1037.996181834585	59
2	476	1055.837965313033	60
2	482	1065.605076243449	61
2	489	1084.115779879249	62
2	496	1085.400072391735	63
2	504	1093.657489625602	64
2	553	1202.830598561256	65
2	554	1209.393343372029	66
2	564	1255.620065117901	67
2	578	1282.710348141849	68
2	593	1323.626969401313	69
2	598	1327.882677775781	70
2	599	1329.60097826366	71
2	602	1335.868657271501	72
2	605	1340.140585036792	73
2	614	1348.822357874246	74
2	615	1349.844675503416	75
2	616	1349.879942636139	76
2	619	1355.182682924241	77
2	622	1368.099233449117	78
2	625	1376.197251490721	79
2	633	1391.59031065529	80
2	649	1456.437199779314	81
2	655	1466.283210225794	82
2	660	1480.279280130568	83
2	669	1531.110978975295	84
2	674	1534.280663548479	85
2	684	1559.659255987225	86
2	687	1565.59643086944	87
2	695	1580.142015066642	88
2	724	1637.763289228829	89
2	725	1640.928038108808	90
2	726	1644.70065534236	91
2	727	1647.684248392643	92
2	735	1675.427130759024	93
2	746	1684.299056010146	94
2	753	1688.771185030923	95
2	754	1689.535111039352	96
2	763	1697.993057681977	97
2	764	1698.878974035239	98
2	772	1725.657941760231	99
2	783	1753.294540704619	100
2	786	1763.765410385782	101
2	803	1800.449538887007	102
2	808	1809.077104748967	103
2	835	1863.541081402984	104
2	839	1874.675104411321	105
2	844	1877.533323963329	106
2	854	1890.469340332851	107
2	857	1892.772000140238	108
2	868	1905.44681050785	109
2	869	1905.800655244359	110
2	881	1911.739543350279	111
2	882	1915.457132355576	112
2	883	1915.870127010538	113
2	892	1930.678453148245	114
2	902	1944.131927185789	115
2	915	1974.215624465632	116
2	928	2006.568552960579	117
2	950	2061.783316158289	118
2	968	2114.928378491931	119
2	971	2121.853437901312	120
2	972	2123.403910190268	121
2	980	2132.512908520402	122
2	990	2154.454457085293	123
2	1005	2183.416353855055	124
2	1009	2190.315529352579	125
2	1018	2210.724878136214	126
2	1026	2249.80504130774	127
2	1037	2268.444214661687	128
2	1044	2287.897985810345	129
2	1061	2304.446702641795	130
2	1087	2388.635265031394	131
2	1088	2388.641189533844	132
2	1124	2442.761979467421	133
2	1125	2445.206971110931	134
2	1126	2445.861730741563	135
2	1137	2468.214657451065	136
2	1140	2476.138244020592	137
2	1150	2492.138571458029	138
3	156	353.344738418983	12.197796663528
3	157	355.290835608685	5.119324397292
3	162	362.789320280922	3.612317960101
3	169	371.566415482964	6.305468046094
3	170	371.832594974144	3.734405212109
3	182	386.537618898158	0.542562962299
3	196	401.910088266849	0.750708121348
3	208	413.163559285727	4.582587272635
3	213	427.189917497707	15.206883594157
3	214	427.922357441697	15.04555413767
3	215	435.680222571414	13.534149856126
3	218	458.250785452565	11.475758257674
3	224	468.869554149841	0.419410054121
3	227	473.956035000615	1.411862971194
3	234	489.345794061866	2.269617849145
3	241	506.660182670723	15.351918839787
3	244	520.577502646217	6.157057592336
3	256	548.73981259588	7.762702112556
3	262	557.378756655542	5.55907467197
3	263	560.225395712413	5.71344682591
3	272	577.9018900646	1.949464452285
3	278	584.758140273916	1.469342872141
3	281	589.162810097485	0.444709735902
3	304	645.449045145658	2.323119768801
3	307	647.69619737293	2.109200751065
3	338	734.78433097299	4.212960763694
3	349	759.20056697042	24.850393899766
3	372	812.353647148666	1.695307098249
3	392	890.393903172406	5.486175924543
3	399	900.20419523379	12.482993521079
3	404	909.257044634215	20.842521748067
3	409	922.317788523386	33.805156575811
3	410	922.692474020673	32.077725422969
3	411	922.883592904869	1.24627334046
3	420	934.247753038994	1.19694239793
3	431	957.470126032248	1.958419857565
3	453	1004.898537500106	10.008039642409
3	454	1006.959790968176	3.628089120951
3	465	1031.475641295442	6.762859909692
3	468	1037.996181834585	4.932340918853
3	476	1055.837965313033	4.027426152047
3	482	1065.605076243449	0.392419037084
3	489	1084.115779879249	18.36105021592
3	496	1085.400072391735	4.583744179291
3	504	1093.657489625602	0.567276621623
3	553	1202.830598561256	12.672802314921
3	554	1209.393343372029	14.375336504603
3	564	1255.620065117901	1.462981785634
3	578	1282.710348141849	1.828337623657
3	593	1323.626969401313	10.475065511511
3	598	1327.882677775781	6.438282184524
3	599	1329.60097826366	4.015081317379
3	602	1335.868657271501	0.446559255715
3	605	1340.140585036792	1.347413251088
3	614	1348.822357874246	4.87665981957
3	615	1349.844675503416	5.239027222859
3	616	1349.879942636139	1.642759027969
3	619	1355.182682924241	0.737959539015
3	622	1368.099233449117	4.317157446697
3	625	1376.197251490721	3.299476148666
3	633	1391.59031065529	10.850166529377
3	649	1456.437199779314	6.559506923363
3	655	1466.283210225794	2.422816321806
3	660	1480.279280130568	7.310814900714
3	669	1531.110978975295	11.912782353661
3	674	1534.280663548479	1.853834843339
3	684	1559.659255987225	9.493843087272
3	687	1565.59643086944	11.013161545061
3	695	1580.142015066642	6.639473894564
3	724	1637.763289228829	14.973602790064
3	725	1640.928038108808	14.848586093496
3	726	1644.70065534236	13.815792648033
3	727	1647.684248392643	12.158003000046
3	735	1675.427130759024	2.718241249625
3	746	1684.299056010146	0.759961396126
3	753	1688.771185030923	4.160238435016
3	754	1689.535111039352	4.21080865638
3	763	1697.993057681977	7.385966994908
3	764	1698.878974035239	8.162317315775
3	772	1725.657941760231	2.856857502252
3	783	1753.294540704619	0.728870929498
3	786	1763.765410385782	6.216827525708
3	803	1800.449538887007	4.503702102153
3	808	1809.077104748967	6.001984903252
3	835	1863.541081402984	0.509174280936
3	839	1874.675104411321	0.867707343729
3	844	1877.533323963329	0.764419645744
3	854	1890.469340332851	0.069360803661
3	857	1892.772000140238	1.142622794708
3	868	1905.44681050785	9.732272563734
3	869	1905.800655244359	1.143851370873
3	881	1911.739543350279	3.998181492991
3	882	1915.457132355576	7.686587113582
3	883	1915.870127010538	5.792037804917
3	892	1930.678453148245	2.049660993009
3	902	1944.131927185789	3.86574397157
3	915	1974.215624465632	4.538246344934
3	928	2006.568552960579	1.459495126318
3	950	2061.783316158289	24.06726748121
3	968	2114.928378491931	18.565235518332
3	971	2121.853437901312	18.447132926272
3	972	2123.403910190268	4.696556197748
3	980	2132.512908520402	2.093375097624
3	990	2154.454457085293	4.754827932514
3	1005	2183.416353855055	3.009607720702
3	1009	2190.315529352579	1.258746761838
3	1018	2210.724878136214	1.906931531369
3	1026	2249.80504130774	0.797578777653
3	1037	2268.444214661687	0.903729591994
3	1044	2287.897985810345	2.983874502209
3	1061	2304.446702641795	1.430602389185
3	1087	2388.635265031394	17.819375600925
3	1088	2388.641189533844	2.225424187848
3	1124	2442.761979467421	16.70427544743
3	1125	2445.206971110931	18.305015692694
3	1126	2445.861730741563	9.704666852601
3	1137	2468.214657451065	1.090690884918
3	1140	2476.138244020592	2.270377793354
3	1150	2492.138571458029	2.41185082997
4	156	353.344738418983	3.17322720759
4	159	359.177002320821	0
4	164	365.26094743687	0
4	169	371.566415482964	3.468225720929
4	181	385.995055935859	0
4	195	401.159380145501	0
4	203	408.580972013092	0
4	208	413.163559285727	1.180525382177
4	213	427.189917497707	14.31311419368
4	214	427.922357441697	5.776284726409
4	217	446.775027194891	0
4	223	468.45014409572	0
4	226	472.544172029421	0
4	233	487.076176212721	0
4	236	491.308263830936	0
4	243	514.420445053881	0
4	255	540.977110483324	0
4	259	551.819681983572	0
4	262	557.378756655542	2.866807769039
4	271	575.952425612315	0
4	277	583.288797401775	0
4	280	588.718100361583	0
4	303	643.125925376857	0
4	306	645.586996621865	0
4	335	730.571370209296	0
4	338	734.78433097299	0.434157902336
4	371	810.658340050417	0
4	385	884.907727247863	0
4	392	890.393903172406	2.672701459695
4	399	900.20419523379	11.789672347642
4	404	909.257044634215	20.74441268664
4	409	922.317788523386	31.703039925682
4	410	922.692474020673	1.055154456264
4	417	933.050810641064	0
4	430	955.511706174683	0
4	448	994.890497857697	0
4	453	1004.898537500106	1.566835652881
4	464	1024.71278138575	0
4	467	1033.063840915732	0
4	473	1051.810539160986	0
4	481	1065.212657206365	0
4	484	1065.754729663329	0
4	489	1084.115779879249	3.299451666805
4	503	1093.090213003979	0
4	546	1190.157796246335	0
4	553	1202.830598561256	7.81259169383
4	563	1254.157083332267	0
4	577	1280.882010518192	0
4	584	1313.151903889802	0
4	593	1323.626969401313	2.182573810056
4	598	1327.882677775781	2.2967808295
4	601	1335.422098015786	0
4	604	1338.793171785704	0
4	609	1343.945698054676	0
4	614	1348.822357874246	4.216709593689
4	615	1349.844675503416	1.607491895246
4	618	1354.444723385226	0
4	621	1363.78207600242	0
4	624	1372.897775342055	0
4	628	1380.740144125913	0
4	648	1449.877692855951	0
4	654	1463.860393903988	0
4	659	1472.968465229854	0
4	666	1519.198196621634	0
4	671	1532.42682870514	0
4	679	1550.165412899953	0
4	684	1559.659255987225	5.075986662846
4	694	1573.502541172078	0
4	715	1622.789686438765	0
4	724	1637.763289228829	11.683837213517
4	725	1640.928038108808	10.043175414481
4	726	1644.70065534236	9.174409949763
4	734	1672.708889509399	0
4	745	1683.53909461402	0
4	748	1684.610946595907	0
4	753	1688.771185030923	3.446882647951
4	756	1690.607090687069	0
4	763	1697.993057681977	7.276400962513
4	771	1722.801084257979	0
4	782	1752.565669775121	0
4	785	1757.548582860074	0
4	802	1795.945836784854	0
4	807	1803.075119845715	0
4	834	1863.031907122048	0
4	838	1873.807397067592	0
4	841	1876.768904317585	0
4	853	1890.39997952919	0
4	856	1891.62937734553	0
4	861	1895.714537944116	0
4	868	1905.44681050785	0.790006634364
4	874	1907.741361857288	0
4	881	1911.739543350279	3.968998108285
4	882	1915.457132355576	5.379043149955
4	891	1928.628792155236	0
4	901	1940.266183214219	0
4	912	1969.677378120698	0
4	927	2005.109057834261	0
4	943	2037.716048677079	0
4	961	2096.363142973599	0
4	968	2114.928378491931	11.522073516891
4	971	2121.853437901312	3.146083908792
4	979	2130.419533422778	0
4	987	2149.699629152779	0
4	1000	2180.406746134353	0
4	1008	2189.056782590741	0
4	1017	2208.817946604845	0
4	1025	2249.007462530087	0
4	1034	2267.540485069693	0
4	1043	2284.914111308136	0
4	1060	2303.01610025261	0
4	1084	2370.815889430469	0
4	1087	2388.635265031394	2.219499685398
4	1113	2426.057704019991	0
4	1124	2442.761979467421	15.860024049184
4	1125	2445.206971110931	9.049907221969
4	1134	2467.123966566147	0
4	1139	2473.867866227238	0
4	1149	2489.726720628059	0
5	157	355.290835608685	57.325688753071
5	162	362.789320280922	41.345812454128
5	170	371.832594974144	46.972345142681
5	171	372.577793782494	32.76997960768
5	172	377.023863451976	35.876921696521
5	177	384.352016955093	25.175014634272
5	182	386.537618898158	24.949804431207
5	189	398.365575545997	33.104628109127
5	190	398.961757179778	28.444394562214
5	193	400.360188199421	19.209868807141
5	196	401.910088266849	18.909981501226
5	199	404.645893578643	19.440161719054
5	215	435.680222571414	49.685166635555
5	218	458.250785452565	71.019111625607
5	219	462.49836660848	71.030721587828
5	224	468.869554149841	77.079226492085
5	227	473.956035000615	73.71576032415
5	228	478.366317325502	77.206937180001
5	231	484.817069794748	81.968037802072
5	234	489.345794061866	81.068255375505
5	241	506.660182670723	98.079210657631
5	244	520.577502646217	104.75162358952
5	245	522.847684491569	76.072657296678
5	246	526.838938116835	58.835589448377
5	247	527.279083553716	58.828939457996
5	252	531.753449662468	59.209277633047
5	253	534.47558936226	54.698426861958
5	256	548.73981259588	61.663636383159
5	257	549.064684690116	57.75642085918
5	263	560.225395712413	62.582362841316
5	266	565.919927506738	64.852454084178
5	267	567.78099442228	53.360549368399
5	268	572.147274924592	42.426934193904
5	269	575.461116613634	44.796572868235
5	272	577.9018900646	36.924779581276
5	273	580.511147112577	28.691465129005
5	274	582.085408793145	17.454547113968
5	275	582.093770311812	6.141344699497
5	278	584.758140273916	1.469342872141
5	281	589.162810097485	0.444709735902
5	284	607.060157196228	0
5	287	611.023693093282	2.206593091059
5	290	623.652681534036	0
5	293	627.086026591012	0.817811179755
5	296	634.226339513972	0
5	299	641.269760757948	0
5	304	645.449045145658	2.456403632561
5	307	647.69619737293	4.570271996073
5	310	656.25264379136	10.665647169495
5	311	661.28849915379	12.037238889251
5	314	665.927314405801	2.795373687449
5	321	696.709354163894	26.335749536251
5	324	699.566732610292	21.755151313838
5	325	704.86552222319	23.540374375035
5	328	712.761253552045	15.047298690754
5	331	720.746841056669	15.076251827994
5	332	721.701763513725	3.423430977731
5	349	759.20056697042	19.829774672438
5	350	761.099152039555	21.568139007483
5	351	761.966645216343	20.080831922122
5	354	771.338586204309	22.254062376979
5	357	779.937059799082	24.229758708847
5	358	781.295970240258	14.408598524694
5	361	785.032434224112	13.322501547832
5	362	789.557244789031	6.310035830031
5	365	793.81931211787	0.255695577916
5	368	800.22497064418	0
5	374	814.985995901723	0
5	377	876.737061601873	0
5	380	880.263351200228	0
5	383	884.715060646702	0
5	411	922.883592904869	37.975865657006
5	414	927.158694596222	34.10069887553
5	415	927.238117068892	29.616551235466
5	420	934.247753038994	29.560485358559
5	423	938.367928229649	32.219738787523
5	424	939.873367804835	20.411943031641
5	427	948.952331966411	25.48340746057
5	428	953.331124429949	20.280313788885
5	431	957.470126032248	24.098090635486
5	432	963.373362929185	28.134232378148
5	433	964.856343828568	17.495166362547
5	446	992.562583186673	37.05087701199
5	454	1006.959790968176	41.24639606617
5	457	1007.512196974041	38.367895478564
5	458	1014.705414883072	36.259147470958
5	459	1014.932988371267	35.64203853377
5	460	1015.368473103367	30.001224471401
5	461	1016.526357036399	24.609977533764
5	462	1021.353896533332	26.463398675635
5	465	1031.475641295442	27.439331902948
5	468	1037.996181834585	30.682886979694
5	469	1044.268190302983	19.555408917233
5	470	1050.009184834139	16.945343918407
5	476	1055.837965313033	0.584742476422
5	479	1064.332896723178	0
5	482	1065.605076243449	0.392419037084
5	496	1085.400072391735	19.645342728406
5	499	1089.84749890314	15.388764741071
5	504	1093.657489625602	8.922398861712
5	505	1095.293916445934	10.373905831713
5	506	1100.831180425406	15.487003698829
5	507	1101.284139099256	14.43683652045
5	524	1125.225951638204	34.232679103168
5	525	1128.56786977372	35.477656769741
5	528	1146.333759444882	44.974640557571
5	531	1162.265942786931	59.539071096738
5	532	1163.829471934744	61.05561228388
5	533	1167.301608227996	64.49290516033
5	538	1177.864859129669	74.306166552668
5	543	1181.197233319782	75.698705676242
5	544	1188.818338799003	74.919762657064
5	554	1209.393343372029	91.175170469632
5	555	1215.987610539118	86.701367103109
5	556	1229.566748930534	80.236081418157
5	557	1234.42399787891	66.291058551521
5	558	1238.520974439781	61.263401613966
5	559	1241.324471666733	61.123711797862
5	560	1246.651488168683	66.28795521444
5	561	1250.950609641725	60.79281339539
5	564	1255.620065117901	61.923632702116
5	567	1256.864895721846	58.82853281235
5	574	1271.902527742047	17.74544440978
5	575	1277.599198559498	20.795997255258
5	578	1282.710348141849	20.138854154109
5	579	1285.942456345161	23.124623449248
5	580	1286.891471864873	22.447678107561
5	581	1290.973999898469	10.091989380277
5	599	1329.60097826366	12.773109065072
5	602	1335.868657271501	19.031690446329
5	605	1340.140585036792	22.248939823067
5	616	1349.879942636139	23.915190878936
5	619	1355.182682924241	19.760584908455
5	622	1368.099233449117	29.306061663413
5	625	1376.197251490721	34.300931786699
5	626	1378.708452310371	34.762754255695
5	633	1391.59031065529	37.145587270064
5	634	1394.955628633223	31.173552630803
5	635	1409.744556472326	36.846781130271
5	636	1412.924349164156	32.184205038243
5	645	1440.62965950317	49.915993578571
5	646	1447.864658368305	56.373512392132
5	649	1456.437199779314	24.327600412533
5	650	1459.709255101986	24.28475659821
5	651	1462.326511733262	26.875057968807
5	652	1462.530270698542	26.182869134692
5	655	1466.283210225794	16.405517369843
5	660	1480.279280130568	16.41888622658
5	663	1506.986254041577	36.449100957862
5	664	1516.22062077897	43.252155549116
5	669	1531.110978975295	36.572733706899
5	674	1534.280663548479	15.082466926845
5	677	1537.985764270205	17.563188555185
5	687	1565.59643086944	33.1696021643
5	690	1567.159484191895	33.918916044799
5	695	1580.142015066642	42.749338215708
5	698	1592.538910154924	42.373497254971
5	701	1596.603005043409	43.857207421733
5	704	1600.575687805571	35.666267188585
5	705	1605.901329555925	39.203874824108
5	706	1609.531904336832	38.392329422045
5	707	1611.634752331148	38.13221115907
5	708	1614.346016803785	23.0730482883
5	711	1620.435516214805	25.252971934203
5	727	1647.684248392643	50.907107474076
5	728	1653.952482366804	36.041866795093
5	729	1659.363709931194	36.934161966262
5	730	1659.78332153946	36.993635100695
5	731	1670.034349787976	40.594682574947
5	737	1676.568257126997	0
5	740	1680.391489674472	0.124572661222
5	743	1682.799409052323	1.164040975785
5	746	1684.299056010146	0.759961396126
5	754	1689.535111039352	4.924164443445
5	764	1698.878974035239	13.636913348639
5	767	1707.798780259271	17.191689572202
5	768	1715.886860231409	22.672774364258
5	769	1716.040447175713	22.190108590166
5	772	1725.657941760231	20.292035184754
5	775	1733.952531084935	11.151446826956
5	778	1740.674722749861	12.936128326829
5	779	1743.285949466938	5.762371223065
5	788	1776.48107159176	0
5	791	1781.898375840307	0
5	796	1787.016308355552	3.764927839288
5	803	1800.449538887007	17.040974179831
5	808	1809.077104748967	21.200822575795
5	809	1810.156687289298	17.589770120318
5	812	1813.323383008858	17.377546224004
5	813	1818.055259863183	15.965671813064
5	818	1822.951038100006	19.875918254291
5	821	1827.260180985919	14.851776289448
5	822	1830.864275327418	10.850246597837
5	823	1835.72118942029	15.124346597771
5	824	1836.203297273805	12.166289527031
5	827	1843.87114111351	0
5	830	1853.396838359014	0
5	835	1863.541081402984	5.065568103732
5	836	1863.548140522681	0.516233400633
5	839	1874.675104411321	0.867707343729
5	844	1877.533323963329	0.764419645744
5	845	1878.896880537269	2.0099376434
5	854	1890.469340332851	4.405720922116
5	857	1892.772000140238	4.127562541265
5	869	1905.800655244359	16.950059160542
5	870	1906.647476125859	16.247496596669
5	883	1915.870127010538	24.240749665008
5	884	1916.503260203109	22.851399363549
5	885	1917.576667903122	21.862129959006
5	892	1930.678453148245	28.47654294719
5	897	1934.579246931768	29.984395933605
5	902	1944.131927185789	36.94550675108
5	903	1954.133358107592	46.391996250304
5	908	1961.741068427003	50.460563536846
5	915	1974.215624465632	55.760003091975
5	918	1983.097224878132	60.466488155747
5	919	1983.149242604492	54.520450449256
5	928	2006.568552960579	75.561420295377
5	933	2013.298351462773	80.564746241432
5	934	2015.220164698691	75.338180093196
5	935	2017.379445123184	77.113261908965
5	940	2032.849671888708	78.512196817584
5	941	2035.452094048884	74.047957743836
5	950	2061.783316158289	93.956443900563
5	955	2069.245353699106	99.567975578408
5	956	2070.9329157902	96.955146144681
5	957	2072.401401654944	91.602600792924
5	958	2073.412737487927	84.766678177093
5	959	2082.430816709413	92.141296730532
5	972	2123.403910190268	124.52128615552
5	977	2130.130894577262	125.021836743
5	980	2132.512908520402	122.26589409343
5	983	2145.047391281441	134.44079673209
5	990	2154.454457085293	126.04679962051
5	991	2154.884379266702	124.26529435765
5	994	2163.102109852043	125.38606117496
5	997	2170.313207171049	123.42867141587
5	998	2175.0285477635	125.09379189575
5	1005	2183.416353855055	130.34248365023
5	1006	2186.996689830874	123.4604494592
5	1009	2190.315529352579	122.1361375479
5	1012	2205.682425753821	109.31928278022
5	1013	2207.15586732442	100.91118842166
5	1018	2210.724878136214	99.052865676734
5	1019	2213.735403281035	89.45882636256
5	1020	2216.300590935436	90.294304236156
5	1023	2226.158098665791	95.738565243013
5	1026	2249.80504130774	112.07755276434
5	1029	2263.543543446395	118.44764876495
5	1030	2265.567949227446	115.86832007467
5	1037	2268.444214661687	116.85689337087
5	1038	2268.930758047295	111.34286786289
5	1041	2276.874409709232	109.11289456575
5	1044	2287.897985810345	107.49123967599
5	1045	2288.022965595629	106.18429770738
5	1046	2288.205572859005	105.20664207978
5	1047	2294.045066789464	104.98828419872
5	1052	2299.499110766891	108.11995829091
5	1061	2304.446702641795	96.928194968487
5	1062	2306.26000456523	97.442057960385
5	1063	2312.321489953045	93.948149535412
5	1068	2330.866124383988	81.858661853901
5	1069	2334.307028742206	71.618194822558
5	1076	2349.791147688043	83.019869727489
5	1077	2350.765642524615	83.225157454922
5	1078	2352.742031750172	84.600799779612
5	1079	2358.790759326161	84.560777408035
5	1082	2365.885806120701	80.971694812565
5	1088	2388.641189533844	92.71317961899
5	1089	2389.132510167364	89.764909931949
5	1090	2389.588110847598	89.084956512091
5	1101	2401.903275263981	100.17851567691
5	1104	2405.247974597136	103.29481753078
5	1109	2421.165448244954	118.14934799234
5	1110	2421.340293674979	106.83789929311
5	1111	2422.922430333028	107.23884164468
5	1126	2445.861730741563	106.01911085019
5	1129	2456.840264624906	114.18276731783
5	1130	2462.462386914113	117.63851851341
5	1137	2468.214657451065	104.109559532
5	1140	2476.138244020592	105.32235459012
5	1143	2481.291823830376	89.52000769061
5	1150	2492.138571458029	100.26024043198
6	159	359.177002320821	8
6	164	365.26094743687	9
6	181	385.995055935859	10
6	195	401.159380145501	11
6	203	408.580972013092	12
6	217	446.775027194891	13
6	223	468.45014409572	14
6	226	472.544172029421	15
6	233	487.076176212721	16
6	236	491.308263830936	17
6	243	514.420445053881	18
6	255	540.977110483324	19
6	259	551.819681983572	20
6	271	575.952425612315	21
6	277	583.288797401775	22
6	280	588.718100361583	23
6	303	643.125925376857	24
6	306	645.586996621865	25
6	385	884.907727247863	26
6	417	933.050810641064	27
6	430	955.511706174683	28
6	448	994.890497857697	29
6	464	1024.71278138575	30
6	467	1033.063840915732	31
6	481	1065.212657206365	32
6	484	1065.754729663329	33
6	503	1093.090213003979	34
6	546	1190.157796246335	35
6	563	1254.157083332267	36
6	577	1280.882010518192	37
6	601	1335.422098015786	38
6	604	1338.793171785704	39
6	609	1343.945698054676	40
6	618	1354.444723385226	41
6	621	1363.78207600242	42
6	624	1372.897775342055	43
6	628	1380.740144125913	44
6	648	1449.877692855951	45
6	654	1463.860393903988	46
6	659	1472.968465229854	47
6	666	1519.198196621634	48
6	671	1532.42682870514	49
6	679	1550.165412899953	50
6	694	1573.502541172078	51
6	715	1622.789686438765	52
6	745	1683.53909461402	53
6	748	1684.610946595907	54
6	756	1690.607090687069	55
6	771	1722.801084257979	56
6	802	1795.945836784854	57
6	807	1803.075119845715	58
6	834	1863.031907122048	59
6	838	1873.807397067592	60
6	841	1876.768904317585	61
6	853	1890.39997952919	62
6	856	1891.62937734553	63
6	861	1895.714537944116	64
6	874	1907.741361857288	65
6	891	1928.628792155236	66
6	901	1940.266183214219	67
6	912	1969.677378120698	68
6	927	2005.109057834261	69
6	943	2037.716048677079	70
6	961	2096.363142973599	71
6	979	2130.419533422778	72
6	987	2149.699629152779	73
6	1000	2180.406746134353	74
6	1008	2189.056782590741	75
6	1017	2208.817946604845	76
6	1025	2249.007462530087	77
6	1034	2267.540485069693	78
6	1043	2284.914111308136	79
6	1060	2303.01610025261	80
6	1084	2370.815889430469	81
6	1113	2426.057704019991	82
6	1134	2467.123966566147	83
6	1139	2473.867866227238	84
6	1149	2489.726720628059	85
7	161	361.587814466951	6
7	168	370.517362617564	7
7	174	381.15031939228	6
7	176	383.000106765623	7
7	179	385.205731859589	7
7	184	387.231673826958	8
7	186	391.467645020652	9
7	188	391.790327657756	10
7	192	400.240274676465	9
7	198	402.849031992676	9
7	201	408.277538686361	9
7	210	415.825879056699	10
7	221	468.003348668458	10
7	230	479.777162500302	10
7	238	497.643032871097	10
7	240	501.06747342256	11
7	249	529.720340730688	9
7	251	530.664543745399	10
7	265	564.630861679177	8
7	284	607.060157196228	1
7	286	608.817100002223	2
7	290	623.652681534036	1
7	292	626.268215411257	2
7	296	634.226339513972	1
7	299	641.269760757948	1
7	301	642.992641513097	2
7	309	649.251260264539	3
7	313	663.131940718352	2
7	316	670.373604627643	2
7	318	677.811581296454	3
7	320	681.325147848155	4
7	323	697.713954861291	4
7	327	705.670589228675	3
7	330	718.278332535994	3
7	340	739.370792297982	1
7	342	739.531013032072	2
7	344	741.885813294221	3
7	346	749.08452382733	4
7	348	755.707301090235	5
7	353	766.887371715564	4
7	356	771.70993267628	4
7	360	783.247208959	3
7	364	793.563616539954	2
7	368	800.22497064418	1
7	374	814.985995901723	1
7	377	876.737061601873	1
7	380	880.263351200228	1
7	383	884.715060646702	1
7	396	893.057995720692	2
7	398	897.621565833426	3
7	401	904.687267680435	4
7	403	906.148189442126	5
7	406	919.461424773194	6
7	413	923.468924505841	7
7	419	933.372035396762	6
7	422	935.239130551037	7
7	426	947.361177466021	6
7	435	965.713394902006	3
7	437	969.144301495477	4
7	439	978.446267412114	5
7	441	979.290949837497	6
7	443	985.367248631966	7
7	445	991.916379502635	8
7	452	1004.036309392494	8
7	456	1007.313294854891	9
7	475	1055.253222836611	1
7	479	1064.332896723178	1
7	486	1074.458734162069	2
7	491	1084.73509076389	3
7	493	1084.920010614221	4
7	495	1085.344176726577	5
7	498	1086.847302578806	6
7	501	1090.993272535036	6
7	509	1101.359118887311	4
7	511	1102.726871690193	5
7	513	1102.773859650864	6
7	515	1102.808703067666	7
7	517	1103.558692577001	8
7	519	1105.49852764354	9
7	521	1113.898576141939	10
7	523	1118.218172902397	11
7	527	1129.286243436009	10
7	530	1149.330667512377	10
7	535	1168.132939327389	8
7	537	1177.257572825815	9
7	540	1180.200759868871	9
7	542	1180.363532954243	10
7	548	1193.696432415785	9
7	552	1198.036362909496	10
7	566	1256.80320130424	4
7	569	1262.57149398774	4
7	571	1262.817832895913	5
7	573	1264.443793757312	6
7	586	1316.827869198588	1
7	588	1316.836966825172	2
7	590	1317.891645213725	3
7	597	1325.964751757203	4
7	607	1341.896319704022	5
7	630	1390.713665924599	5
7	632	1391.491145976173	6
7	638	1432.109599366781	4
7	640	1435.424498503776	5
7	642	1435.451453764455	6
7	644	1436.34740156385	7
7	657	1470.537153083715	3
7	662	1494.538245268396	4
7	668	1520.42257571502	3
7	673	1533.240568147096	4
7	676	1537.392676850934	5
7	681	1552.745797621676	5
7	686	1564.909420616986	6
7	689	1566.697454731817	7
7	692	1571.139574914787	7
7	697	1591.272968515485	8
7	700	1595.182544280602	8
7	703	1596.777140918567	8
7	710	1617.910615571711	4
7	713	1622.429547964932	4
7	719	1629.439667213029	5
7	737	1676.568257126997	1
7	739	1680.26691701325	2
7	742	1681.635368076538	2
7	750	1685.2420606866	2
7	760	1693.214085867151	3
7	762	1693.850338585547	4
7	766	1705.365906575477	5
7	774	1727.738594423032	3
7	777	1737.523578243873	3
7	788	1776.48107159176	1
7	791	1781.898375840307	1
7	793	1783.251380516264	2
7	795	1783.408564707176	3
7	798	1787.876282173172	3
7	800	1792.56691716898	4
7	805	1802.089588050119	5
7	811	1812.408404696471	5
7	815	1820.014028729581	4
7	817	1820.596842822519	5
7	820	1824.037007746774	5
7	827	1843.87114111351	1
7	830	1853.396838359014	1
7	832	1858.475513299252	2
7	843	1876.886942893869	2
7	847	1886.063619410735	2
7	849	1888.644437598973	3
7	851	1888.850596083817	4
7	859	1893.65186083956	5
7	863	1902.201910201055	6
7	865	1904.594850998163	7
7	872	1907.186420434709	7
7	880	1911.280504890157	8
7	887	1918.455621373657	7
7	889	1922.630736722385	8
7	894	1931.007132665202	9
7	896	1932.733605221341	10
7	899	1939.881984605495	10
7	905	1954.337475071124	10
7	907	1961.404136305048	11
7	910	1967.826872257726	11
7	914	1973.977769645519	12
7	917	1980.79880086202	13
7	921	1988.646059310834	12
7	923	1990.289519978881	13
7	925	1998.882624034751	14
7	930	2010.24701442697	15
7	932	2010.606594549351	16
7	937	2028.407657464782	14
7	939	2030.619084909051	15
7	945	2046.884535755182	14
7	947	2049.934755867752	15
7	949	2053.073870204826	16
7	952	2063.536240371679	17
7	954	2068.179391804684	18
7	965	2106.24467890276	14
7	967	2111.67201245948	15
7	974	2124.276576918475	16
7	976	2126.00628669928	17
7	982	2137.727488543402	17
7	985	2145.095894681443	17
7	989	2151.587321290818	18
7	993	2157.587890184407	18
7	996	2167.761515143486	18
7	1002	2181.83866788825	17
7	1004	2182.998930779226	18
7	1011	2191.379152475978	18
7	1015	2207.518507673308	17
7	1022	2218.373340417633	16
7	1028	2262.688833919648	16
7	1032	2266.771277960554	15
7	1036	2268.14123197056	16
7	1040	2274.229981918126	16
7	1049	2295.928009914854	13
7	1051	2299.367600235415	14
7	1054	2300.503154335507	14
7	1056	2301.724759587071	15
7	1058	2301.953157066354	16
7	1065	2314.502394381873	15
7	1067	2315.683588688348	16
7	1071	2339.842619891371	15
7	1073	2342.657497307074	16
7	1075	2344.823868400702	17
7	1081	2364.105097919066	14
7	1092	2391.771816139766	12
7	1094	2391.87833102605	13
7	1096	2397.644739807356	14
7	1098	2398.975566228828	15
7	1100	2399.368096068654	16
7	1103	2402.805214477881	16
7	1106	2409.673769388734	16
7	1108	2417.435661793298	17
7	1117	2436.107939185418	15
7	1121	2437.320281692505	16
7	1123	2440.299984748182	17
7	1128	2455.702516081559	18
7	1132	2465.779298357275	17
7	1136	2468.035048194316	18
7	1142	2480.2962639258	19
7	1145	2486.133993132066	19
7	1147	2488.977018924844	20
8	161	361.587814466951	5
8	168	370.517362617564	6
8	171	372.577793782494	6
8	172	377.023863451976	5
8	174	381.15031939228	5
8	176	383.000106765623	6
8	177	384.352016955093	6
8	179	385.205731859589	6
8	184	387.231673826958	7
8	186	391.467645020652	8
8	188	391.790327657756	9
8	189	398.365575545997	9
8	190	398.961757179778	8
8	192	400.240274676465	8
8	193	400.360188199421	8
8	198	402.849031992676	8
8	199	404.645893578643	8
8	201	408.277538686361	8
8	210	415.825879056699	9
8	219	462.49836660848	9
8	221	468.003348668458	9
8	228	478.366317325502	9
8	230	479.777162500302	9
8	231	484.817069794748	9
8	238	497.643032871097	9
8	240	501.06747342256	10
8	245	522.847684491569	10
8	246	526.838938116835	9
8	247	527.279083553716	8
8	249	529.720340730688	8
8	251	530.664543745399	9
8	252	531.753449662468	9
8	253	534.47558936226	8
8	257	549.064684690116	7
8	265	564.630861679177	7
8	266	565.919927506738	7
8	267	567.78099442228	6
8	268	572.147274924592	5
8	269	575.461116613634	4
8	273	580.511147112577	3
8	274	582.085408793145	2
8	275	582.093770311812	1
8	282	594.832181497579	0
8	284	607.060157196228	0
8	286	608.817100002223	1
8	287	611.023693093282	1
8	288	616.834243052297	0
8	290	623.652681534036	0
8	292	626.268215411257	1
8	293	627.086026591012	1
8	294	627.303380130882	0
8	296	634.226339513972	0
8	297	637.086815638652	0
8	299	641.269760757948	0
8	301	642.992641513097	1
8	309	649.251260264539	2
8	310	656.25264379136	2
8	311	661.28849915379	1
8	313	663.131940718352	1
8	314	665.927314405801	1
8	316	670.373604627643	1
8	318	677.811581296454	2
8	320	681.325147848155	3
8	321	696.709354163894	3
8	323	697.713954861291	3
8	324	699.566732610292	3
8	325	704.86552222319	2
8	327	705.670589228675	2
8	328	712.761253552045	2
8	330	718.278332535994	2
8	331	720.746841056669	2
8	332	721.701763513725	1
8	333	725.174871414949	0
8	340	739.370792297982	0
8	342	739.531013032072	1
8	344	741.885813294221	2
8	346	749.08452382733	3
8	348	755.707301090235	4
8	350	761.099152039555	4
8	351	761.966645216343	3
8	353	766.887371715564	3
8	354	771.338586204309	3
8	356	771.70993267628	3
8	357	779.937059799082	3
8	358	781.295970240258	2
8	360	783.247208959	2
8	361	785.032434224112	2
8	362	789.557244789031	1
8	364	793.563616539954	1
8	365	793.81931211787	1
8	366	798.110698990047	0
8	368	800.22497064418	0
8	369	803.048743052134	0
8	374	814.985995901723	0
8	375	816.199556959891	0
8	377	876.737061601873	0
8	378	877.425873679744	0
8	380	880.263351200228	0
8	381	880.526366750534	0
8	383	884.715060646702	0
8	396	893.057995720692	1
8	398	897.621565833426	2
8	401	904.687267680435	3
8	403	906.148189442126	4
8	406	919.461424773194	5
8	413	923.468924505841	6
8	414	927.158694596222	6
8	415	927.238117068892	5
8	419	933.372035396762	5
8	422	935.239130551037	6
8	423	938.367928229649	6
8	424	939.873367804835	5
8	426	947.361177466021	5
8	427	948.952331966411	5
8	428	953.331124429949	4
8	432	963.373362929185	3
8	433	964.856343828568	2
8	435	965.713394902006	2
8	437	969.144301495477	3
8	439	978.446267412114	4
8	441	979.290949837497	5
8	443	985.367248631966	6
8	445	991.916379502635	7
8	446	992.562583186673	7
8	452	1004.036309392494	7
8	456	1007.313294854891	8
8	457	1007.512196974041	8
8	458	1014.705414883072	7
8	459	1014.932988371267	6
8	460	1015.368473103367	5
8	461	1016.526357036399	4
8	462	1021.353896533332	3
8	469	1044.268190302983	2
8	470	1050.009184834139	1
8	471	1050.876948876371	0
8	475	1055.253222836611	0
8	477	1056.341248175375	0
8	479	1064.332896723178	0
8	486	1074.458734162069	1
8	491	1084.73509076389	2
8	493	1084.920010614221	3
8	495	1085.344176726577	4
8	498	1086.847302578806	5
8	499	1089.84749890314	5
8	501	1090.993272535036	5
8	505	1095.293916445934	5
8	506	1100.831180425406	4
8	507	1101.284139099256	3
8	509	1101.359118887311	3
8	511	1102.726871690193	4
8	513	1102.773859650864	5
8	515	1102.808703067666	6
8	517	1103.558692577001	7
8	519	1105.49852764354	8
8	521	1113.898576141939	9
8	523	1118.218172902397	10
8	524	1125.225951638204	10
8	525	1128.56786977372	9
8	527	1129.286243436009	9
8	528	1146.333759444882	9
8	530	1149.330667512377	9
8	531	1162.265942786931	9
8	532	1163.829471934744	8
8	533	1167.301608227996	7
8	535	1168.132939327389	7
8	537	1177.257572825815	8
8	538	1177.864859129669	8
8	540	1180.200759868871	8
8	542	1180.363532954243	9
8	543	1181.197233319782	9
8	544	1188.818338799003	8
8	548	1193.696432415785	8
8	552	1198.036362909496	9
8	555	1215.987610539118	9
8	556	1229.566748930534	8
8	557	1234.42399787891	7
8	558	1238.520974439781	6
8	559	1241.324471666733	5
8	560	1246.651488168683	4
8	561	1250.950609641725	3
8	566	1256.80320130424	3
8	567	1256.864895721846	3
8	569	1262.57149398774	3
8	571	1262.817832895913	4
8	573	1264.443793757312	5
8	574	1271.902527742047	5
8	575	1277.599198559498	4
8	579	1285.942456345161	3
8	580	1286.891471864873	2
8	581	1290.973999898469	1
8	582	1294.743669638235	0
8	586	1316.827869198588	0
8	588	1316.836966825172	1
8	590	1317.891645213725	2
8	597	1325.964751757203	3
8	607	1341.896319704022	4
8	626	1378.708452310371	4
8	630	1390.713665924599	4
8	632	1391.491145976173	5
8	634	1394.955628633223	5
8	635	1409.744556472326	4
8	636	1412.924349164156	3
8	638	1432.109599366781	3
8	640	1435.424498503776	4
8	642	1435.451453764455	5
8	644	1436.34740156385	6
8	645	1440.62965950317	6
8	646	1447.864658368305	5
8	650	1459.709255101986	4
8	651	1462.326511733262	3
8	652	1462.530270698542	2
8	657	1470.537153083715	2
8	662	1494.538245268396	3
8	663	1506.986254041577	3
8	664	1516.22062077897	2
8	668	1520.42257571502	2
8	673	1533.240568147096	3
8	676	1537.392676850934	4
8	677	1537.985764270205	4
8	681	1552.745797621676	4
8	686	1564.909420616986	5
8	689	1566.697454731817	6
8	690	1567.159484191895	6
8	692	1571.139574914787	6
8	697	1591.272968515485	7
8	698	1592.538910154924	7
8	700	1595.182544280602	7
8	701	1596.603005043409	7
8	703	1596.777140918567	7
8	704	1600.575687805571	7
8	705	1605.901329555925	6
8	706	1609.531904336832	5
8	707	1611.634752331148	4
8	708	1614.346016803785	3
8	710	1617.910615571711	3
8	711	1620.435516214805	3
8	713	1622.429547964932	3
8	719	1629.439667213029	4
8	728	1653.952482366804	4
8	729	1659.363709931194	3
8	730	1659.78332153946	2
8	731	1670.034349787976	1
8	732	1670.653392438845	0
8	737	1676.568257126997	0
8	739	1680.26691701325	1
8	740	1680.391489674472	1
8	742	1681.635368076538	1
8	743	1682.799409052323	1
8	750	1685.2420606866	1
8	760	1693.214085867151	2
8	762	1693.850338585547	3
8	766	1705.365906575477	4
8	767	1707.798780259271	4
8	768	1715.886860231409	3
8	769	1716.040447175713	2
8	774	1727.738594423032	2
8	775	1733.952531084935	2
8	777	1737.523578243873	2
8	778	1740.674722749861	2
8	779	1743.285949466938	1
8	780	1745.388815055389	0
8	788	1776.48107159176	0
8	789	1780.720578449142	0
8	791	1781.898375840307	0
8	793	1783.251380516264	1
8	795	1783.408564707176	2
8	796	1787.016308355552	2
8	798	1787.876282173172	2
8	800	1792.56691716898	3
8	805	1802.089588050119	4
8	809	1810.156687289298	4
8	811	1812.408404696471	4
8	812	1813.323383008858	4
8	813	1818.055259863183	3
8	815	1820.014028729581	3
8	817	1820.596842822519	4
8	818	1822.951038100006	4
8	820	1824.037007746774	4
8	821	1827.260180985919	4
8	822	1830.864275327418	3
8	823	1835.72118942029	2
8	824	1836.203297273805	1
8	825	1836.428108695357	0
8	827	1843.87114111351	0
8	828	1845.692597385793	0
8	830	1853.396838359014	0
8	832	1858.475513299252	1
8	836	1863.548140522681	1
8	843	1876.886942893869	1
8	845	1878.896880537269	1
8	847	1886.063619410735	1
8	849	1888.644437598973	2
8	851	1888.850596083817	3
8	859	1893.65186083956	4
8	863	1902.201910201055	5
8	865	1904.594850998163	6
8	870	1906.647476125859	6
8	872	1907.186420434709	6
8	880	1911.280504890157	7
8	884	1916.503260203109	7
8	885	1917.576667903122	6
8	887	1918.455621373657	6
8	889	1922.630736722385	7
8	894	1931.007132665202	8
8	896	1932.733605221341	9
8	897	1934.579246931768	9
8	899	1939.881984605495	9
8	903	1954.133358107592	9
8	905	1954.337475071124	9
8	907	1961.404136305048	10
8	908	1961.741068427003	10
8	910	1967.826872257726	10
8	914	1973.977769645519	11
8	917	1980.79880086202	12
8	918	1983.097224878132	12
8	919	1983.149242604492	11
8	921	1988.646059310834	11
8	923	1990.289519978881	12
8	925	1998.882624034751	13
8	930	2010.24701442697	14
8	932	2010.606594549351	15
8	933	2013.298351462773	15
8	934	2015.220164698691	14
8	935	2017.379445123184	13
8	937	2028.407657464782	13
8	939	2030.619084909051	14
8	940	2032.849671888708	14
8	941	2035.452094048884	13
8	945	2046.884535755182	13
8	947	2049.934755867752	14
8	949	2053.073870204826	15
8	952	2063.536240371679	16
8	954	2068.179391804684	17
8	955	2069.245353699106	17
8	956	2070.9329157902	16
8	957	2072.401401654944	15
8	958	2073.412737487927	14
8	959	2082.430816709413	13
8	965	2106.24467890276	13
8	967	2111.67201245948	14
8	974	2124.276576918475	15
8	976	2126.00628669928	16
8	977	2130.130894577262	16
8	982	2137.727488543402	16
8	983	2145.047391281441	16
8	985	2145.095894681443	16
8	989	2151.587321290818	17
8	991	2154.884379266702	17
8	993	2157.587890184407	17
8	994	2163.102109852043	17
8	996	2167.761515143486	17
8	997	2170.313207171049	17
8	998	2175.0285477635	16
8	1002	2181.83866788825	16
8	1004	2182.998930779226	17
8	1006	2186.996689830874	17
8	1011	2191.379152475978	17
8	1012	2205.682425753821	17
8	1013	2207.15586732442	16
8	1015	2207.518507673308	16
8	1019	2213.735403281035	16
8	1020	2216.300590935436	15
8	1022	2218.373340417633	15
8	1023	2226.158098665791	15
8	1028	2262.688833919648	15
8	1029	2263.543543446395	15
8	1030	2265.567949227446	14
8	1032	2266.771277960554	14
8	1036	2268.14123197056	15
8	1038	2268.930758047295	15
8	1040	2274.229981918126	15
8	1041	2276.874409709232	15
8	1045	2288.022965595629	14
8	1046	2288.205572859005	13
8	1047	2294.045066789464	12
8	1049	2295.928009914854	12
8	1051	2299.367600235415	13
8	1052	2299.499110766891	13
8	1054	2300.503154335507	13
8	1056	2301.724759587071	14
8	1058	2301.953157066354	15
8	1062	2306.26000456523	15
8	1063	2312.321489953045	14
8	1065	2314.502394381873	14
8	1067	2315.683588688348	15
8	1068	2330.866124383988	15
8	1069	2334.307028742206	14
8	1071	2339.842619891371	14
8	1073	2342.657497307074	15
8	1075	2344.823868400702	16
8	1076	2349.791147688043	16
8	1077	2350.765642524615	15
8	1078	2352.742031750172	14
8	1079	2358.790759326161	13
8	1081	2364.105097919066	13
8	1082	2365.885806120701	13
8	1089	2389.132510167364	12
8	1090	2389.588110847598	11
8	1092	2391.771816139766	11
8	1094	2391.87833102605	12
8	1096	2397.644739807356	13
8	1098	2398.975566228828	14
8	1100	2399.368096068654	15
8	1101	2401.903275263981	15
8	1103	2402.805214477881	15
8	1104	2405.247974597136	15
8	1106	2409.673769388734	15
8	1108	2417.435661793298	16
8	1109	2421.165448244954	16
8	1110	2421.340293674979	15
8	1111	2422.922430333028	14
8	1117	2436.107939185418	14
8	1121	2437.320281692505	15
8	1123	2440.299984748182	16
8	1128	2455.702516081559	17
8	1129	2456.840264624906	17
8	1130	2462.462386914113	16
8	1132	2465.779298357275	16
8	1136	2468.035048194316	17
8	1142	2480.2962639258	18
8	1143	2481.291823830376	18
8	1145	2486.133993132066	18
8	1147	2488.977018924844	19
9	171	372.577793782494	29
9	172	377.023863451976	30
9	177	384.352016955093	31
9	189	398.365575545997	32
9	190	398.961757179778	33
9	193	400.360188199421	34
9	199	404.645893578643	35
9	219	462.49836660848	36
9	228	478.366317325502	37
9	231	484.817069794748	38
9	245	522.847684491569	39
9	246	526.838938116835	40
9	247	527.279083553716	41
9	252	531.753449662468	42
9	253	534.47558936226	43
9	257	549.064684690116	44
9	266	565.919927506738	45
9	267	567.78099442228	46
9	268	572.147274924592	47
9	269	575.461116613634	48
9	273	580.511147112577	49
9	274	582.085408793145	50
9	275	582.093770311812	51
9	282	594.832181497579	52
9	287	611.023693093282	53
9	288	616.834243052297	54
9	293	627.086026591012	55
9	294	627.303380130882	56
9	297	637.086815638652	57
9	310	656.25264379136	58
9	311	661.28849915379	59
9	314	665.927314405801	60
9	321	696.709354163894	61
9	324	699.566732610292	62
9	325	704.86552222319	63
9	328	712.761253552045	64
9	331	720.746841056669	65
9	332	721.701763513725	66
9	333	725.174871414949	67
9	350	761.099152039555	68
9	351	761.966645216343	69
9	354	771.338586204309	70
9	357	779.937059799082	71
9	358	781.295970240258	72
9	361	785.032434224112	73
9	362	789.557244789031	74
9	365	793.81931211787	75
9	366	798.110698990047	76
9	369	803.048743052134	77
9	375	816.199556959891	78
9	378	877.425873679744	79
9	381	880.526366750534	80
9	414	927.158694596222	81
9	415	927.238117068892	82
9	423	938.367928229649	83
9	424	939.873367804835	84
9	427	948.952331966411	85
9	428	953.331124429949	86
9	432	963.373362929185	87
9	433	964.856343828568	88
9	446	992.562583186673	89
9	457	1007.512196974041	90
9	458	1014.705414883072	91
9	459	1014.932988371267	92
9	460	1015.368473103367	93
9	461	1016.526357036399	94
9	462	1021.353896533332	95
9	469	1044.268190302983	96
9	470	1050.009184834139	97
9	471	1050.876948876371	98
9	477	1056.341248175375	99
9	499	1089.84749890314	100
9	505	1095.293916445934	101
9	506	1100.831180425406	102
9	507	1101.284139099256	103
9	524	1125.225951638204	104
9	525	1128.56786977372	105
9	528	1146.333759444882	106
9	531	1162.265942786931	107
9	532	1163.829471934744	108
9	533	1167.301608227996	109
9	538	1177.864859129669	110
9	543	1181.197233319782	111
9	544	1188.818338799003	112
9	555	1215.987610539118	113
9	556	1229.566748930534	114
9	557	1234.42399787891	115
9	558	1238.520974439781	116
9	559	1241.324471666733	117
9	560	1246.651488168683	118
9	561	1250.950609641725	119
9	567	1256.864895721846	120
9	574	1271.902527742047	121
9	575	1277.599198559498	122
9	579	1285.942456345161	123
9	580	1286.891471864873	124
9	581	1290.973999898469	125
9	582	1294.743669638235	126
9	626	1378.708452310371	127
9	634	1394.955628633223	128
9	635	1409.744556472326	129
9	636	1412.924349164156	130
9	645	1440.62965950317	131
9	646	1447.864658368305	132
9	650	1459.709255101986	133
9	651	1462.326511733262	134
9	652	1462.530270698542	135
9	663	1506.986254041577	136
9	664	1516.22062077897	137
9	677	1537.985764270205	138
9	690	1567.159484191895	139
9	698	1592.538910154924	140
9	701	1596.603005043409	141
9	704	1600.575687805571	142
9	705	1605.901329555925	143
9	706	1609.531904336832	144
9	707	1611.634752331148	145
9	708	1614.346016803785	146
9	711	1620.435516214805	147
9	728	1653.952482366804	148
9	729	1659.363709931194	149
9	730	1659.78332153946	150
9	731	1670.034349787976	151
9	732	1670.653392438845	152
9	740	1680.391489674472	153
9	743	1682.799409052323	154
9	767	1707.798780259271	155
9	768	1715.886860231409	156
9	769	1716.040447175713	157
9	775	1733.952531084935	158
9	778	1740.674722749861	159
9	779	1743.285949466938	160
9	780	1745.388815055389	161
9	789	1780.720578449142	162
9	796	1787.016308355552	163
9	809	1810.156687289298	164
9	812	1813.323383008858	165
9	813	1818.055259863183	166
9	818	1822.951038100006	167
9	821	1827.260180985919	168
9	822	1830.864275327418	169
9	823	1835.72118942029	170
9	824	1836.203297273805	171
9	825	1836.428108695357	172
9	828	1845.692597385793	173
9	836	1863.548140522681	174
9	845	1878.896880537269	175
9	870	1906.647476125859	176
9	884	1916.503260203109	177
9	885	1917.576667903122	178
9	897	1934.579246931768	179
9	903	1954.133358107592	180
9	908	1961.741068427003	181
9	918	1983.097224878132	182
9	919	1983.149242604492	183
9	933	2013.298351462773	184
9	934	2015.220164698691	185
9	935	2017.379445123184	186
9	940	2032.849671888708	187
9	941	2035.452094048884	188
9	955	2069.245353699106	189
9	956	2070.9329157902	190
9	957	2072.401401654944	191
9	958	2073.412737487927	192
9	959	2082.430816709413	193
9	977	2130.130894577262	194
9	983	2145.047391281441	195
9	991	2154.884379266702	196
9	994	2163.102109852043	197
9	997	2170.313207171049	198
9	998	2175.0285477635	199
9	1006	2186.996689830874	200
9	1012	2205.682425753821	201
9	1013	2207.15586732442	202
9	1019	2213.735403281035	203
9	1020	2216.300590935436	204
9	1023	2226.158098665791	205
9	1029	2263.543543446395	206
9	1030	2265.567949227446	207
9	1038	2268.930758047295	208
9	1041	2276.874409709232	209
9	1045	2288.022965595629	210
9	1046	2288.205572859005	211
9	1047	2294.045066789464	212
9	1052	2299.499110766891	213
9	1062	2306.26000456523	214
9	1063	2312.321489953045	215
9	1068	2330.866124383988	216
9	1069	2334.307028742206	217
9	1076	2349.791147688043	218
9	1077	2350.765642524615	219
9	1078	2352.742031750172	220
9	1079	2358.790759326161	221
9	1082	2365.885806120701	222
9	1089	2389.132510167364	223
9	1090	2389.588110847598	224
9	1101	2401.903275263981	225
9	1104	2405.247974597136	226
9	1109	2421.165448244954	227
9	1110	2421.340293674979	228
9	1111	2422.922430333028	229
9	1129	2456.840264624906	230
9	1130	2462.462386914113	231
9	1143	2481.291823830376	232
10	171	372.577793782494	47.717543951031
10	172	377.023863451976	37.216049277162
10	177	384.352016955093	43.205075199638
10	189	398.365575545997	36.777761079046
10	190	398.961757179778	33.700809742908
10	193	400.360188199421	29.842825581857
10	199	404.645893578643	21.64578681302
10	219	462.49836660848	75.266692781522
10	228	478.366317325502	78.126042649037
10	231	484.817069794748	83.657689649247
10	245	522.847684491569	107.02180543487
10	246	526.838938116835	80.063910921944
10	247	527.279083553716	59.275734885258
10	252	531.753449662468	63.303305566748
10	253	534.47558936226	61.931417332839
10	257	549.064684690116	61.988508477395
10	266	565.919927506738	68.276894635641
10	267	567.78099442228	66.71352099972
10	268	572.147274924592	57.726829870711
10	269	575.461116613634	45.740775882946
10	273	580.511147112577	39.534036629253
10	274	582.085408793145	30.265726809573
10	275	582.093770311812	17.462908632635
10	282	594.832181497579	6.114081135996
10	287	611.023693093282	3.963535897054
10	288	616.834243052297	8.017143050074
10	293	627.086026591012	3.433345056976
10	294	627.303380130882	1.035164719625
10	297	637.086815638652	2.86047612468
10	310	656.25264379136	13.126718414503
10	311	661.28849915379	15.701502531925
10	314	665.927314405801	16.676054141262
10	321	696.709354163894	33.577413445542
10	324	699.566732610292	29.193127982649
10	325	704.86552222319	27.053940926736
10	328	712.761253552045	31.43610570389
10	331	720.746841056669	23.032886195378
10	332	721.701763513725	16.03117428505
10	333	725.174871414949	6.896538878955
10	350	761.099152039555	21.728359741573
10	351	761.966645216343	22.435632184271
10	354	771.338586204309	29.452772910088
10	357	779.937059799082	30.852535971752
10	358	781.295970240258	25.588669150023
10	361	785.032434224112	18.145062508548
10	362	789.557244789031	17.847312112751
10	365	793.81931211787	10.57210315887
10	366	798.110698990047	4.547082450093
10	369	803.048743052134	2.823772407954
10	375	816.199556959891	1.213561058168
10	378	877.425873679744	0.688812077871
10	381	880.526366750534	0.263015550306
10	414	927.158694596222	42.250967348359
10	415	927.238117068892	34.1801213482
10	423	938.367928229649	33.680660549214
10	424	939.873367804835	33.725178362709
10	427	948.952331966411	29.490907193217
10	428	953.331124429949	29.862199924108
10	432	963.373362929185	30.001327532423
10	433	964.856343828568	29.617213277531
10	446	992.562583186673	45.201405720652
10	457	1007.512196974041	41.798802072035
10	458	1014.705414883072	45.561113387595
10	459	1014.932988371267	36.486720959153
10	460	1015.368473103367	36.07752326587
10	461	1016.526357036399	31.159108404433
10	462	1021.353896533332	29.437517030697
10	469	1044.268190302983	36.954895448092
10	470	1050.009184834139	25.296403448389
10	471	1050.876948876371	17.813107960639
10	477	1056.341248175375	1.088025338764
10	499	1089.84749890314	24.092769239811
10	505	1095.293916445934	10.558825682044
10	506	1100.831180425406	15.911169811185
10	507	1101.284139099256	15.939962372679
10	524	1125.225951638204	38.378649059398
10	525	1128.56786977372	37.574597238684
10	528	1146.333759444882	53.243546440903
10	531	1162.265942786931	60.90682389962
10	532	1163.829471934744	61.102600244551
10	533	1167.301608227996	64.527748577132
10	538	1177.864859129669	75.056156062003
10	543	1181.197233319782	77.638540742781
10	544	1188.818338799003	83.319811155463
10	555	1215.987610539118	97.769437636721
10	556	1229.566748930534	100.28050549453
10	557	1234.42399787891	85.093330366533
10	558	1238.520974439781	70.388035112392
10	559	1241.324471666733	64.066898840918
10	560	1246.651488168683	66.450728299812
10	561	1250.950609641725	70.587076687482
10	567	1256.864895721846	63.168463306061
10	574	1271.902527742047	73.866164832551
10	575	1277.599198559498	23.442115227231
10	579	1285.942456345161	23.370962357421
10	580	1286.891471864873	24.07363896896
10	581	1290.973999898469	26.530206141157
10	582	1294.743669638235	13.861659120043
10	626	1378.708452310371	36.812132606349
10	634	1394.955628633223	40.510905247997
10	635	1409.744556472326	45.962480469906
10	636	1412.924349164156	40.026573822101
10	645	1440.62965950317	59.889515377257
10	646	1447.864658368305	57.150992443706
10	650	1459.709255101986	27.599655735205
10	651	1462.326511733262	26.902013229486
10	652	1462.530270698542	27.078816934087
10	663	1506.986254041577	43.125860137589
10	664	1516.22062077897	45.683467695255
10	677	1537.985764270205	18.787567648571
10	690	1567.159484191895	34.732655486755
10	698	1592.538910154924	55.14623330399
10	701	1596.603005043409	46.437592143456
10	704	1600.575687805571	47.829890183895
10	705	1605.901329555925	40.991908938939
10	706	1609.531904336832	42.834449605015
10	707	1611.634752331148	40.495177416361
10	708	1614.346016803785	40.843475631707
10	711	1620.435516214805	29.16254769932
10	728	1653.952482366804	57.175341448237
10	729	1659.363709931194	41.453094359483
10	730	1659.78332153946	37.353773574528
10	731	1670.034349787976	47.244663349211
10	732	1670.653392438845	41.213725225816
10	740	1680.391489674472	3.823232547475
10	743	1682.799409052323	2.532492039073
10	767	1707.798780259271	22.556719572671
10	768	1715.886860231409	25.27976954434
10	769	1716.040447175713	22.826361308562
10	775	1733.952531084935	28.586624509458
10	778	1740.674722749861	17.873638491882
10	779	1743.285949466938	15.547355043906
10	780	1745.388815055389	7.865236811516
10	789	1780.720578449142	4.239506857382
10	796	1787.016308355552	5.117932515245
10	809	1810.156687289298	22.280405116126
10	812	1813.323383008858	20.756465839878
10	813	1818.055259863183	22.109423078329
10	818	1822.951038100006	20.861450049887
10	821	1827.260180985919	24.185061140204
10	822	1830.864275327418	18.455870630947
10	823	1835.72118942029	15.707160690709
10	824	1836.203297273805	15.606454451286
10	825	1836.428108695357	12.391100948583
10	828	1845.692597385793	1.821456272283
10	836	1863.548140522681	5.072627223429
10	845	1878.896880537269	2.127976219684
10	870	1906.647476125859	17.796880042042
10	884	1916.503260203109	24.873882857579
10	885	1917.576667903122	23.924807063562
10	897	1934.579246931768	32.377336730713
10	903	1954.133358107592	46.946937672883
10	908	1961.741068427003	53.999706569715
10	918	1983.097224878132	64.641603504475
10	919	1983.149242604492	60.518505882107
10	933	2013.298351462773	82.291218797571
10	934	2015.220164698691	82.48655947735
10	935	2017.379445123184	77.497460517689
10	940	2032.849671888708	92.583488674489
10	941	2035.452094048884	81.11461897776
10	955	2069.245353699106	101.41848144138
10	956	2070.9329157902	101.2555376695
10	957	2072.401401654944	98.423632009425
10	958	2073.412737487927	92.613936625907
10	959	2082.430816709413	93.784757398579
10	977	2130.130894577262	131.24827054251
10	983	2145.047391281441	134.80037685447
10	991	2154.884379266702	126.47672180192
10	994	2163.102109852043	132.48302494299
10	997	2170.313207171049	132.59715849397
10	998	2175.0285477635	128.14401200832
10	1006	2186.996689830874	133.92281962605
10	1012	2205.682425753821	137.50303394914
10	1013	2207.15586732442	110.79272435082
10	1019	2213.735403281035	102.06339082156
10	1020	2216.300590935436	92.024014016961
10	1023	2226.158098665791	100.15181196651
10	1029	2263.543543446395	125.81605490299
10	1030	2265.567949227446	120.472054546
10	1038	2268.930758047295	117.34343675648
10	1041	2276.874409709232	119.28651952482
10	1045	2288.022965595629	107.61621946128
10	1046	2288.205572859005	106.36690497076
10	1047	2294.045066789464	111.04613601024
10	1052	2299.499110766891	110.44232817615
10	1062	2306.26000456523	98.741496891922
10	1063	2312.321489953045	103.5035433482
10	1068	2330.866124383988	112.49278396635
10	1069	2334.307028742206	85.299566212119
10	1076	2349.791147688043	87.102313768395
10	1077	2350.765642524615	83.994364564061
10	1078	2352.742031750172	85.201546680479
10	1079	2358.790759326161	90.649527355601
10	1082	2365.885806120701	91.655824202575
10	1089	2389.132510167364	93.20450025251
10	1090	2389.588110847598	90.220510612183
10	1101	2401.903275263981	101.40012092847
10	1104	2405.247974597136	103.52321501007
10	1109	2421.165448244954	119.2122911786
10	1110	2421.340293674979	118.32419342237
10	1111	2422.922430333028	108.42003595116
10	1129	2456.840264624906	116.99764473353
10	1130	2462.462386914113	119.80488960704
10	1143	2481.291823830376	110.47593439991
11	1151	2500	0.0928
12	1151	2500	0.0552

