version 2
run experiments_medium_game_mode1-1007-20230311-09:43:28-13726
attr configname experiments_medium_game_mode1
attr datetime 20230311-09:43:28
attr experiment experiments_medium_game_mode1
attr inifile omnetpp.ini
attr iterationvars "$0=6.5, $1=4, $2=100"
attr iterationvarsf 6.5,4,100-
attr measurement "$0=6.5, $1=4, $2=100"
attr network Network
attr processid 13726
attr repetition 17
attr replication #17
attr resultdir results
attr runnumber 1007
attr seedset 17
param *.boss.arrival_mean 20
param *.boss.service_mean 6.5
param *.minion.arrival_mean 10
param *.minion.service_mean 4
param *.player.recover_rate_x 100
param **.minion.arrival_distribution 0
param **.minion.service_distribution 0
param **.boss.arrival_distribution 0
param **.boss.service_distribution 0

vector 0 Network.player boss_jobs_number_stat:vector ETV
attr source signal_boss_jobs_number
vector 1 Network.player boss_jobs_queue_number_stat:vector ETV
attr source signal_boss_jobs_queue_number
vector 2 Network.player boss_defeated_stat:vector ETV
attr source signal_boss_defeated
vector 3 Network.player boss_response_time_stat:vector ETV
attr source signal_boss_response_time
vector 4 Network.player boss_waiting_time_stat:vector ETV
attr source signal_boss_waiting_time
vector 5 Network.player minion_jobs_number_stat:vector ETV
attr source signal_minion_jobs_number
vector 6 Network.player minion_jobs_queue_number_stat:vector ETV
attr source signal_minion_jobs_queue_number
vector 7 Network.player minion_waiting_time_stat:vector ETV
attr source signal_minion_waiting_time
vector 8 Network.player minion_recovered_stat:vector ETV
attr source signal_minion_recovered
vector 9 Network.player minion_defeated_stat:vector ETV
attr source signal_minion_defeated
vector 10 Network.player minion_response_time_stat:vector ETV
attr source signal_minion_response_time
vector 11 Network.player minion_throughput:vector ETV
attr source signal_minion_throughput
vector 12 Network.player boss_throughput:vector ETV
attr source signal_boss_throughput
0	153	350.171511211393	4
0	157	359.177002320821	3
0	161	365.26094743687	4
0	163	368.098189762035	5
0	178	385.995055935859	1
0	193	401.159380145501	1
0	203	408.580972013092	1
0	205	411.98303390355	2
0	207	412.876803304027	3
0	212	422.146072715288	3
0	217	446.775027194891	1
0	223	468.45014409572	1
0	227	472.544172029421	1
0	236	487.076176212721	1
0	241	491.308263830936	1
0	249	514.420445053881	1
0	263	540.977110483324	1
0	266	551.819681983572	1
0	268	554.511948886503	2
0	275	575.952425612315	1
0	278	583.288797401775	1
0	281	588.718100361583	1
0	303	643.125925376857	1
0	305	645.586996621865	2
0	335	730.571370209296	1
0	337	734.350173070654	2
0	371	810.658340050417	1
0	385	884.907727247863	1
0	387	887.721201712711	2
0	389	888.414522886148	3
0	391	888.512631947575	4
0	393	890.614748597704	5
0	408	921.637319564409	3
0	412	933.050810641064	4
0	430	955.511706174683	1
0	455	994.890497857697	1
0	457	1003.331701847225	2
0	467	1024.71278138575	1
0	469	1033.063840915732	2
0	473	1051.810539160986	1
0	481	1065.212657206365	1
0	484	1065.754729663329	1
0	488	1080.816328212444	2
0	502	1093.090213003979	1
0	554	1190.157796246335	1
0	558	1195.018006867426	2
0	566	1254.157083332267	1
0	581	1280.882010518192	1
0	584	1313.151903889802	1
0	592	1321.444395591257	2
0	594	1325.585896946281	3
0	601	1335.422098015786	1
0	604	1338.793171785704	1
0	609	1343.945698054676	1
0	611	1344.605648280557	2
0	613	1348.23718360817	3
0	618	1354.444723385226	1
0	621	1363.78207600242	1
0	625	1372.897775342055	1
0	628	1380.740144125913	1
0	652	1449.877692855951	1
0	656	1463.860393903988	1
0	661	1472.968465229854	1
0	668	1519.198196621634	1
0	672	1532.42682870514	2
0	682	1550.165412899953	1
0	686	1554.583269324379	2
0	696	1573.502541172078	1
0	719	1622.789686438765	1
0	721	1626.079452015312	2
0	725	1630.884862694327	3
0	727	1635.526245392597	4
0	734	1672.708889509399	1
0	745	1683.53909461402	1
0	748	1684.610946595907	1
0	752	1685.324302382972	2
0	755	1690.607090687069	2
0	757	1690.716656719464	3
0	773	1722.801084257979	1
0	782	1752.565669775121	1
0	785	1757.548582860074	1
0	805	1795.945836784854	1
0	810	1803.075119845715	1
0	834	1863.031907122048	1
0	839	1873.807397067592	1
0	842	1876.768904317585	1
0	855	1890.39997952919	1
0	859	1891.62937734553	1
0	864	1895.714537944116	1
0	870	1904.656803873486	2
0	874	1907.741361857288	3
0	876	1907.770545241994	4
0	880	1910.078089205621	3
0	892	1928.628792155236	1
0	902	1940.266183214219	1
0	915	1969.677378120698	1
0	935	2005.109057834261	1
0	951	2037.716048677079	1
0	972	2096.363142973599	1
0	974	2103.40630497504	2
0	980	2118.70735399252	3
0	988	2130.419533422778	2
0	1000	2149.699629152779	1
0	1015	2180.406746134353	1
0	1022	2189.056782590741	1
0	1034	2208.817946604845	1
0	1040	2249.007462530087	1
0	1047	2267.540485069693	1
0	1058	2284.914111308136	1
0	1073	2303.01610025261	1
0	1097	2370.815889430469	1
0	1099	2386.415765345996	2
0	1121	2426.057704019991	1
0	1123	2426.901955418237	2
0	1127	2436.157063888962	3
0	1145	2467.123966566147	1
0	1150	2473.867866227238	1
0	1163	2489.726720628059	1
1	153	350.171511211393	3
1	154	350.7890135168	3
1	155	352.519419087497	2
1	157	359.177002320821	2
1	161	365.26094743687	3
1	163	368.098189762035	4
1	164	368.376554750083	4
1	167	370.906481096696	3
1	168	375.602494444828	2
1	173	383.79960290475	1
1	174	384.145636243284	0
1	178	385.995055935859	0
1	179	386.700387786848	0
1	193	401.159380145501	0
1	194	402.135300703254	0
1	203	408.580972013092	0
1	205	411.98303390355	1
1	207	412.876803304027	2
1	208	414.538335467517	2
1	212	422.146072715288	2
1	213	432.772601143092	2
1	214	433.724773070279	1
1	215	443.809997738911	0
1	217	446.775027194891	0
1	218	461.693512929868	0
1	223	468.45014409572	0
1	224	468.995377166077	0
1	227	472.544172029421	0
1	228	474.379593891973	0
1	236	487.076176212721	0
1	237	490.026679416609	0
1	241	491.308263830936	0
1	246	511.265758322659	0
1	249	514.420445053881	0
1	250	522.424619923917	0
1	263	540.977110483324	0
1	264	551.068623229647	0
1	266	551.819681983572	0
1	268	554.511948886503	1
1	269	559.046479057133	1
1	270	562.747109831065	0
1	275	575.952425612315	0
1	276	578.486729400286	0
1	278	583.288797401775	0
1	279	585.198943135558	0
1	281	588.718100361583	0
1	282	589.296223018255	0
1	303	643.125925376857	0
1	305	645.586996621865	1
1	306	646.145981076298	1
1	307	648.887942052682	0
1	335	730.571370209296	0
1	337	734.350173070654	1
1	338	736.048219202098	1
1	351	767.789325998757	0
1	371	810.658340050417	0
1	372	812.862239278141	0
1	385	884.907727247863	0
1	387	887.721201712711	1
1	389	888.414522886148	2
1	391	888.512631947575	3
1	393	890.614748597704	4
1	394	892.039755949769	4
1	401	904.793135629568	3
1	404	916.561839850121	2
1	408	921.637319564409	2
1	412	933.050810641064	3
1	415	933.540806906043	3
1	416	934.027898052516	2
1	417	934.276352601971	1
1	420	935.832377719279	0
1	430	955.511706174683	0
1	431	958.057651989517	0
1	455	994.890497857697	0
1	457	1003.331701847225	1
1	462	1007.900949392829	1
1	463	1010.58057890132	0
1	467	1024.71278138575	0
1	469	1033.063840915732	1
1	470	1033.504499268349	1
1	471	1039.916542462858	0
1	473	1051.810539160986	0
1	476	1057.046193158647	0
1	481	1065.212657206365	0
1	482	1065.722801954575	0
1	484	1065.754729663329	0
1	488	1080.816328212444	1
1	497	1089.624094944026	1
1	500	1091.293675210258	0
1	502	1093.090213003979	0
1	503	1093.827672612088	0
1	554	1190.157796246335	0
1	558	1195.018006867426	1
1	561	1206.632439255732	1
1	562	1215.164007509737	0
1	566	1254.157083332267	0
1	567	1256.058959653591	0
1	581	1280.882010518192	0
1	582	1283.258849428946	0
1	584	1313.151903889802	0
1	592	1321.444395591257	1
1	594	1325.585896946281	2
1	597	1326.769489054766	2
1	598	1332.301909941574	1
1	599	1334.535700575817	0
1	601	1335.422098015786	0
1	602	1336.002625048215	0
1	604	1338.793171785704	0
1	605	1340.544809012119	0
1	609	1343.945698054676	0
1	611	1344.605648280557	1
1	613	1348.23718360817	2
1	614	1350.285355820117	2
1	615	1351.614368738038	1
1	616	1351.660216010578	0
1	618	1354.444723385226	0
1	619	1355.404070785946	0
1	621	1363.78207600242	0
1	622	1369.394380683126	0
1	625	1372.897775342055	0
1	626	1377.187094335321	0
1	628	1380.740144125913	0
1	633	1394.845360614103	0
1	652	1449.877692855951	0
1	653	1458.405051856323	0
1	656	1463.860393903988	0
1	657	1467.010055122336	0
1	661	1472.968465229854	0
1	662	1482.472524600783	0
1	668	1519.198196621634	0
1	672	1532.42682870514	1
1	675	1534.684813681393	1
1	676	1537.094798977733	0
1	682	1550.165412899953	0
1	686	1554.583269324379	1
1	687	1562.507408913406	1
1	692	1570.225736260285	0
1	696	1573.502541172078	0
1	697	1582.133857235011	0
1	719	1622.789686438765	0
1	721	1626.079452015312	1
1	725	1630.884862694327	2
1	727	1635.526245392597	3
1	728	1642.255370065848	3
1	729	1646.36954360982	2
1	730	1651.273946013438	1
1	731	1655.152616978806	0
1	734	1672.708889509399	0
1	735	1676.242603133911	0
1	745	1683.53909461402	0
1	746	1684.527044428984	0
1	748	1684.610946595907	0
1	752	1685.324302382972	1
1	753	1690.019256561428	1
1	755	1690.607090687069	1
1	757	1690.716656719464	2
1	758	1691.012360372385	2
1	763	1700.614117465765	1
1	764	1701.765808725006	0
1	773	1722.801084257979	0
1	774	1726.514999010906	0
1	782	1752.565669775121	0
1	783	1753.513201983468	0
1	785	1757.548582860074	0
1	786	1765.630458643494	0
1	805	1795.945836784854	0
1	806	1801.800649517653	0
1	810	1803.075119845715	0
1	811	1810.877700219942	0
1	834	1863.031907122048	0
1	835	1863.693833687265	0
1	839	1873.807397067592	0
1	840	1874.935416614439	0
1	842	1876.768904317585	0
1	845	1877.762649857053	0
1	855	1890.39997952919	0
1	856	1890.49014857395	0
1	859	1891.62937734553	0
1	860	1893.11478697865	0
1	864	1895.714537944116	0
1	870	1904.656803873486	1
1	874	1907.741361857288	2
1	876	1907.770545241994	3
1	877	1908.366492276971	3
1	878	1908.826490434432	2
1	880	1910.078089205621	2
1	883	1914.02412637532	2
1	886	1918.856992082207	1
1	887	1919.393885133657	0
1	892	1928.628792155236	0
1	895	1931.293351446147	0
1	902	1940.266183214219	0
1	903	1945.29165037726	0
1	915	1969.677378120698	0
1	918	1975.577098369112	0
1	935	2005.109057834261	0
1	936	2007.006401498475	0
1	951	2037.716048677079	0
1	962	2069.003496402652	0
1	972	2096.363142973599	0
1	974	2103.40630497504	1
1	980	2118.70735399252	2
1	981	2120.49794914743	2
1	986	2129.500526379625	1
1	988	2130.419533422778	1
1	989	2131.516140355267	1
1	990	2134.237527982179	0
1	1000	2149.699629152779	0
1	1003	2155.880905465048	0
1	1015	2180.406746134353	0
1	1020	2184.319236171265	0
1	1022	2189.056782590741	0
1	1023	2190.69315338113	0
1	1034	2208.817946604845	0
1	1035	2211.296957595625	0
1	1040	2249.007462530087	0
1	1041	2250.044314941036	0
1	1047	2267.540485069693	0
1	1050	2268.715333539285	0
1	1058	2284.914111308136	0
1	1059	2288.793148161008	0
1	1073	2303.01610025261	0
1	1074	2304.87588335855	0
1	1097	2370.815889430469	0
1	1099	2386.415765345996	1
1	1104	2393.981077711672	1
1	1105	2393.988779564857	0
1	1121	2426.057704019991	0
1	1123	2426.901955418237	1
1	1127	2436.157063888962	2
1	1132	2447.77326210165	2
1	1133	2450.951751238213	1
1	1134	2451.802938758035	0
1	1145	2467.123966566147	0
1	1148	2468.541864716541	0
1	1150	2473.867866227238	0
1	1151	2476.819357358599	0
1	1163	2489.726720628059	0
1	1164	2492.86212670702	0
2	154	350.7890135168	18
2	155	352.519419087497	19
2	164	368.376554750083	20
2	167	370.906481096696	21
2	168	375.602494444828	22
2	173	383.79960290475	23
2	174	384.145636243284	24
2	179	386.700387786848	25
2	194	402.135300703254	26
2	208	414.538335467517	27
2	213	432.772601143092	28
2	214	433.724773070279	29
2	215	443.809997738911	30
2	218	461.693512929868	31
2	224	468.995377166077	32
2	228	474.379593891973	33
2	237	490.026679416609	34
2	246	511.265758322659	35
2	250	522.424619923917	36
2	264	551.068623229647	37
2	269	559.046479057133	38
2	270	562.747109831065	39
2	276	578.486729400286	40
2	279	585.198943135558	41
2	282	589.296223018255	42
2	306	646.145981076298	43
2	307	648.887942052682	44
2	338	736.048219202098	45
2	351	767.789325998757	46
2	372	812.862239278141	47
2	394	892.039755949769	48
2	401	904.793135629568	49
2	404	916.561839850121	50
2	415	933.540806906043	51
2	416	934.027898052516	52
2	417	934.276352601971	53
2	420	935.832377719279	54
2	431	958.057651989517	55
2	462	1007.900949392829	56
2	463	1010.58057890132	57
2	470	1033.504499268349	58
2	471	1039.916542462858	59
2	476	1057.046193158647	60
2	482	1065.722801954575	61
2	497	1089.624094944026	62
2	500	1091.293675210258	63
2	503	1093.827672612088	64
2	561	1206.632439255732	65
2	562	1215.164007509737	66
2	567	1256.058959653591	67
2	582	1283.258849428946	68
2	597	1326.769489054766	69
2	598	1332.301909941574	70
2	599	1334.535700575817	71
2	602	1336.002625048215	72
2	605	1340.544809012119	73
2	614	1350.285355820117	74
2	615	1351.614368738038	75
2	616	1351.660216010578	76
2	619	1355.404070785946	77
2	622	1369.394380683126	78
2	626	1377.187094335321	79
2	633	1394.845360614103	80
2	653	1458.405051856323	81
2	657	1467.010055122336	82
2	662	1482.472524600783	83
2	675	1534.684813681393	84
2	676	1537.094798977733	85
2	687	1562.507408913406	86
2	692	1570.225736260285	87
2	697	1582.133857235011	88
2	728	1642.255370065848	89
2	729	1646.36954360982	90
2	730	1651.273946013438	91
2	731	1655.152616978806	92
2	735	1676.242603133911	93
2	746	1684.527044428984	94
2	753	1690.019256561428	95
2	758	1691.012360372385	96
2	763	1700.614117465765	97
2	764	1701.765808725006	98
2	774	1726.514999010906	99
2	783	1753.513201983468	100
2	786	1765.630458643494	101
2	806	1801.800649517653	102
2	811	1810.877700219942	103
2	835	1863.693833687265	104
2	840	1874.935416614439	105
2	845	1877.762649857053	106
2	856	1890.49014857395	107
2	860	1893.11478697865	108
2	877	1908.366492276971	109
2	878	1908.826490434432	110
2	883	1914.02412637532	111
2	886	1918.856992082207	112
2	887	1919.393885133657	113
2	895	1931.293351446147	114
2	903	1945.29165037726	115
2	918	1975.577098369112	116
2	936	2007.006401498475	117
2	962	2069.003496402652	118
2	981	2120.49794914743	119
2	986	2129.500526379625	120
2	989	2131.516140355267	121
2	990	2134.237527982179	122
2	1003	2155.880905465048	123
2	1020	2184.319236171265	124
2	1023	2190.69315338113	125
2	1035	2211.296957595625	126
2	1041	2250.044314941036	127
2	1050	2268.715333539285	128
2	1059	2288.793148161008	129
2	1074	2304.87588335855	130
2	1104	2393.981077711672	131
2	1105	2393.988779564857	132
2	1132	2447.77326210165	133
2	1133	2450.951751238213	134
2	1134	2451.802938758035	135
2	1148	2468.541864716541	136
2	1151	2476.819357358599	137
2	1164	2492.86212670702	138
3	154	350.7890135168	26.65652465472
3	155	352.519419087497	16.336746955465
3	164	368.376554750083	27.229612994628
3	167	370.906481096696	20.734969885303
3	168	375.602494444828	16.425492124007
3	173	383.79960290475	18.53865546788
3	174	384.145636243284	16.047446481249
3	179	386.700387786848	0.705331850989
3	194	402.135300703254	0.975920557753
3	208	414.538335467517	5.957363454425
3	213	432.772601143092	20.789567239542
3	214	433.724773070279	20.847969766252
3	215	443.809997738911	21.663925023623
3	218	461.693512929868	14.918485734977
3	224	468.995377166077	0.545233070357
3	228	474.379593891973	1.835421862552
3	237	490.026679416609	2.950503203888
3	246	511.265758322659	19.957494491723
3	250	522.424619923917	8.004174870036
3	264	551.068623229647	10.091512746323
3	269	559.046479057133	7.226797073561
3	270	562.747109831065	8.235160944562
3	276	578.486729400286	2.534303787971
3	279	585.198943135558	1.910145733783
3	282	589.296223018255	0.578122656672
3	306	646.145981076298	3.020055699441
3	307	648.887942052682	3.300945430817
3	338	736.048219202098	5.476848992802
3	351	767.789325998757	33.439152928103
3	372	812.862239278141	2.203899227724
3	394	892.039755949769	7.132028701906
3	401	904.793135629568	17.071933916857
3	404	916.561839850121	28.147316963973
3	415	933.540806906043	45.028174958468
3	416	934.027898052516	43.413149454812
3	417	934.276352601971	12.639033037562
3	420	935.832377719279	2.781567078215
3	431	958.057651989517	2.545945814834
3	462	1007.900949392829	13.010451535132
3	463	1010.58057890132	7.248877054095
3	470	1033.504499268349	8.791717882599
3	471	1039.916542462858	6.852701547126
3	476	1057.046193158647	5.235653997661
3	482	1065.722801954575	0.51014474821
3	497	1089.624094944026	23.869365280697
3	500	1091.293675210258	10.477346997814
3	503	1093.827672612088	0.737459608109
3	561	1206.632439255732	16.474643009397
3	562	1215.164007509737	20.146000642311
3	567	1256.058959653591	1.901876321324
3	582	1283.258849428946	2.376838910754
3	597	1326.769489054766	13.617585164964
3	598	1332.301909941574	10.857514350317
3	599	1334.535700575817	8.949803629536
3	602	1336.002625048215	0.580527032429
3	605	1340.544809012119	1.751637226415
3	614	1350.285355820117	6.339657765441
3	615	1351.614368738038	7.008720457481
3	616	1351.660216010578	3.423032402408
3	619	1355.404070785946	0.95934740072
3	622	1369.394380683126	5.612304680706
3	626	1377.187094335321	4.289318993266
3	633	1394.845360614103	14.10521648819
3	653	1458.405051856323	8.527359000372
3	657	1467.010055122336	3.149661218348
3	662	1482.472524600783	9.504059370929
3	675	1534.684813681393	15.486617059759
3	676	1537.094798977733	4.667970272593
3	687	1562.507408913406	12.341996013453
3	692	1570.225736260285	15.642466935906
3	697	1582.133857235011	8.631316062933
3	728	1642.255370065848	19.465683627083
3	729	1646.36954360982	20.290091594508
3	730	1651.273946013438	20.389083319111
3	731	1655.152616978806	19.626371586209
3	735	1676.242603133911	3.533713624512
3	746	1684.527044428984	0.987949814964
3	753	1690.019256561428	5.408309965521
3	758	1691.012360372385	5.688057989413
3	763	1700.614117465765	10.007026778696
3	764	1701.765808725006	11.049152005542
3	774	1726.514999010906	3.713914752927
3	783	1753.513201983468	0.947532208347
3	786	1765.630458643494	8.08187578342
3	806	1801.800649517653	5.854812732799
3	811	1810.877700219942	7.802580374227
3	835	1863.693833687265	0.661926565217
3	840	1874.935416614439	1.128019546847
3	845	1877.762649857053	0.993745539468
3	856	1890.49014857395	0.09016904476
3	860	1893.11478697865	1.48540963312
3	877	1908.366492276971	12.651954332855
3	878	1908.826490434432	4.169686560946
3	883	1914.02412637532	6.282764518032
3	886	1918.856992082207	11.086446840213
3	887	1919.393885133657	9.315795928036
3	895	1931.293351446147	2.664559290911
3	903	1945.29165037726	5.025467163041
3	918	1975.577098369112	5.899720248414
3	936	2007.006401498475	1.897343664214
3	962	2069.003496402652	31.287447725573
3	981	2120.49794914743	24.134806173831
3	986	2129.500526379625	26.094221404585
3	989	2131.516140355267	12.808786362747
3	990	2134.237527982179	3.817994559401
3	1003	2155.880905465048	6.181276312269
3	1020	2184.319236171265	3.912490036912
3	1023	2190.69315338113	1.636370790389
3	1035	2211.296957595625	2.47901099078
3	1041	2250.044314941036	1.036852410949
3	1050	2268.715333539285	1.174848469592
3	1059	2288.793148161008	3.879036852872
3	1074	2304.87588335855	1.85978310594
3	1104	2393.981077711672	23.165188281203
3	1105	2393.988779564857	7.573014218861
3	1132	2447.77326210165	21.715558081659
3	1133	2450.951751238213	24.049795819976
3	1134	2451.802938758035	15.645874869073
3	1148	2468.541864716541	1.417898150394
3	1151	2476.819357358599	2.951491131361
3	1164	2492.86212670702	3.135406078961
4	154	350.7890135168	14.606341384768
4	155	352.519419087497	11.372477332042
4	164	368.376554750083	18.20504353869
4	167	370.906481096696	11.729478775875
4	168	375.602494444828	10.341547007958
4	173	383.79960290475	15.701413142715
4	178	385.995055935859	0
4	193	401.159380145501	0
4	203	408.580972013092	0
4	208	414.538335467517	2.555301563967
4	213	432.772601143092	19.895797839065
4	214	433.724773070279	11.578700354991
4	217	446.775027194891	0
4	223	468.45014409572	0
4	227	472.544172029421	0
4	236	487.076176212721	0
4	241	491.308263830936	0
4	249	514.420445053881	0
4	263	540.977110483324	0
4	266	551.819681983572	0
4	269	559.046479057133	4.53453017063
4	275	575.952425612315	0
4	278	583.288797401775	0
4	281	588.718100361583	0
4	303	643.125925376857	0
4	306	646.145981076298	0.558984454433
4	335	730.571370209296	0
4	338	736.048219202098	1.698046131444
4	371	810.658340050417	0
4	385	884.907727247863	0
4	394	892.039755949769	4.318554237058
4	401	904.793135629568	16.37861274342
4	404	916.561839850121	28.049207902546
4	415	933.540806906043	42.926058308339
4	416	934.027898052516	12.390578488107
4	417	934.276352601971	1.225541960907
4	430	955.511706174683	0
4	455	994.890497857697	0
4	462	1007.900949392829	4.569247545604
4	467	1024.71278138575	0
4	470	1033.504499268349	0.440658352617
4	473	1051.810539160986	0
4	481	1065.212657206365	0
4	484	1065.754729663329	0
4	497	1089.624094944026	8.807766731582
4	502	1093.090213003979	0
4	554	1190.157796246335	0
4	561	1206.632439255732	11.614432388306
4	566	1254.157083332267	0
4	581	1280.882010518192	0
4	584	1313.151903889802	0
4	597	1326.769489054766	5.325093463509
4	598	1332.301909941574	6.716012995293
4	601	1335.422098015786	0
4	604	1338.793171785704	0
4	609	1343.945698054676	0
4	614	1350.285355820117	5.67970753956
4	615	1351.614368738038	3.377185129868
4	618	1354.444723385226	0
4	621	1363.78207600242	0
4	625	1372.897775342055	0
4	628	1380.740144125913	0
4	652	1449.877692855951	0
4	656	1463.860393903988	0
4	661	1472.968465229854	0
4	668	1519.198196621634	0
4	675	1534.684813681393	2.257984976253
4	682	1550.165412899953	0
4	687	1562.507408913406	7.924139589027
4	696	1573.502541172078	0
4	719	1622.789686438765	0
4	728	1642.255370065848	16.175918050536
4	729	1646.36954360982	15.484680915493
4	730	1651.273946013438	15.747700620841
4	734	1672.708889509399	0
4	745	1683.53909461402	0
4	748	1684.610946595907	0
4	753	1690.019256561428	4.694954178456
4	758	1691.012360372385	0.405269685316
4	763	1700.614117465765	9.897460746301
4	773	1722.801084257979	0
4	782	1752.565669775121	0
4	785	1757.548582860074	0
4	805	1795.945836784854	0
4	810	1803.075119845715	0
4	834	1863.031907122048	0
4	839	1873.807397067592	0
4	842	1876.768904317585	0
4	855	1890.39997952919	0
4	859	1891.62937734553	0
4	864	1895.714537944116	0
4	877	1908.366492276971	3.709688403485
4	878	1908.826490434432	1.085128577144
4	883	1914.02412637532	6.253581133326
4	886	1918.856992082207	8.778902876586
4	892	1928.628792155236	0
4	902	1940.266183214219	0
4	915	1969.677378120698	0
4	935	2005.109057834261	0
4	951	2037.716048677079	0
4	972	2096.363142973599	0
4	981	2120.49794914743	17.09164417239
4	986	2129.500526379625	10.793172387105
4	989	2131.516140355267	1.096606932489
4	1000	2149.699629152779	0
4	1015	2180.406746134353	0
4	1022	2189.056782590741	0
4	1034	2208.817946604845	0
4	1040	2249.007462530087	0
4	1047	2267.540485069693	0
4	1058	2284.914111308136	0
4	1073	2303.01610025261	0
4	1097	2370.815889430469	0
4	1104	2393.981077711672	7.565312365676
4	1121	2426.057704019991	0
4	1132	2447.77326210165	20.871306683413
4	1133	2450.951751238213	14.794687349251
4	1145	2467.123966566147	0
4	1150	2473.867866227238	0
4	1163	2489.726720628059	0
5	159	361.587814466951	6
5	166	370.517362617564	7
5	170	381.15031939228	8
5	172	383.000106765623	9
5	176	385.205731859589	10
5	181	387.231673826958	11
5	184	391.467645020652	11
5	186	391.790327657756	12
5	191	400.240274676465	10
5	196	402.849031992676	11
5	201	408.277538686361	9
5	210	415.825879056699	10
5	221	468.003348668458	10
5	232	479.777162500302	8
5	243	497.643032871097	5
5	245	501.06747342256	6
5	256	529.720340730688	2
5	258	530.664543745399	3
5	272	564.630861679177	1
5	284	607.060157196228	1
5	286	608.817100002223	2
5	290	623.652681534036	1
5	293	626.268215411257	1
5	296	634.226339513972	1
5	299	641.269760757948	1
5	301	642.992641513097	2
5	309	649.251260264539	3
5	314	663.131940718352	1
5	316	670.373604627643	2
5	318	677.811581296454	3
5	321	681.325147848155	3
5	326	697.713954861291	1
5	329	705.670589228675	1
5	332	718.278332535994	1
5	340	739.370792297982	1
5	342	739.531013032072	2
5	344	741.885813294221	3
5	346	749.08452382733	4
5	348	755.707301090235	5
5	350	766.887371715564	6
5	355	771.70993267628	5
5	361	783.247208959	2
5	365	793.563616539954	1
5	368	800.22497064418	1
5	374	814.985995901723	1
5	377	876.737061601873	1
5	380	880.263351200228	1
5	383	884.715060646702	1
5	396	893.057995720692	2
5	398	897.621565833426	3
5	400	904.687267680435	4
5	403	906.148189442126	5
5	406	919.461424773194	6
5	410	923.468924505841	7
5	414	933.372035396762	8
5	419	935.239130551037	9
5	426	947.361177466021	6
5	435	965.713394902006	3
5	437	969.144301495477	4
5	440	978.446267412114	4
5	444	979.290949837497	3
5	449	985.367248631966	1
5	452	991.916379502635	1
5	459	1004.036309392494	1
5	461	1007.313294854891	2
5	475	1055.253222836611	1
5	479	1064.332896723178	1
5	486	1074.458734162069	2
5	490	1084.73509076389	3
5	492	1084.920010614221	4
5	494	1085.344176726577	5
5	496	1086.847302578806	6
5	499	1090.993272535036	7
5	505	1101.359118887311	8
5	507	1102.726871690193	9
5	509	1102.773859650864	10
5	511	1102.808703067666	11
5	513	1103.558692577001	12
5	517	1105.49852764354	11
5	521	1113.898576141939	10
5	523	1118.218172902397	11
5	528	1129.286243436009	9
5	535	1149.330667512377	5
5	542	1168.132939327389	1
5	545	1177.257572825815	1
5	548	1180.200759868871	1
5	550	1180.363532954243	2
5	556	1193.696432415785	1
5	560	1198.036362909496	2
5	569	1256.80320130424	1
5	572	1262.57149398774	1
5	574	1262.817832895913	2
5	577	1264.443793757312	2
5	586	1316.827869198588	1
5	588	1316.836966825172	2
5	590	1317.891645213725	3
5	596	1325.964751757203	4
5	607	1341.896319704022	5
5	630	1390.713665924599	5
5	632	1391.491145976173	6
5	641	1432.109599366781	1
5	644	1435.424498503776	1
5	646	1435.451453764455	2
5	648	1436.34740156385	3
5	659	1470.537153083715	1
5	665	1494.538245268396	1
5	670	1520.42257571502	1
5	674	1533.240568147096	2
5	678	1537.392676850934	3
5	684	1552.745797621676	2
5	689	1564.909420616986	3
5	691	1566.697454731817	4
5	694	1571.139574914787	5
5	703	1591.272968515485	2
5	705	1595.182544280602	3
5	708	1596.777140918567	3
5	713	1617.910615571711	1
5	716	1622.429547964932	1
5	723	1629.439667213029	1
5	737	1676.568257126997	1
5	740	1680.26691701325	1
5	742	1681.635368076538	2
5	750	1685.2420606866	2
5	760	1693.214085867151	3
5	762	1693.850338585547	4
5	766	1705.365906575477	5
5	776	1727.738594423032	1
5	779	1737.523578243873	1
5	788	1776.48107159176	1
5	791	1781.898375840307	1
5	793	1783.251380516264	2
5	795	1783.408564707176	3
5	798	1787.876282173172	3
5	801	1792.56691716898	3
5	808	1802.089588050119	2
5	813	1812.408404696471	3
5	818	1820.014028729581	1
5	820	1820.596842822519	2
5	824	1824.037007746774	1
5	827	1843.87114111351	1
5	830	1853.396838359014	1
5	832	1858.475513299252	2
5	844	1876.886942893869	1
5	847	1886.063619410735	2
5	851	1888.644437598973	1
5	853	1888.850596083817	2
5	862	1893.65186083956	2
5	866	1902.201910201055	3
5	868	1904.594850998163	4
5	872	1907.186420434709	5
5	882	1911.280504890157	6
5	885	1918.455621373657	7
5	890	1922.630736722385	7
5	894	1931.007132665202	8
5	897	1932.733605221341	9
5	900	1939.881984605495	9
5	906	1954.337475071124	9
5	911	1961.404136305048	7
5	913	1967.826872257726	8
5	917	1973.977769645519	9
5	922	1980.79880086202	8
5	927	1988.646059310834	6
5	929	1990.289519978881	7
5	933	1998.882624034751	6
5	940	2010.24701442697	5
5	942	2010.606594549351	6
5	947	2028.407657464782	4
5	949	2030.619084909051	5
5	953	2046.884535755182	6
5	955	2049.934755867752	7
5	957	2053.073870204826	8
5	959	2063.536240371679	9
5	961	2068.179391804684	10
5	976	2106.24467890276	3
5	978	2111.67201245948	4
5	983	2124.276576918475	5
5	985	2126.00628669928	6
5	992	2137.727488543402	7
5	996	2145.095894681443	6
5	1002	2151.587321290818	5
5	1005	2157.587890184407	6
5	1008	2167.761515143486	6
5	1017	2181.83866788825	2
5	1019	2182.998930779226	3
5	1026	2191.379152475978	3
5	1031	2207.518507673308	1
5	1037	2218.373340417633	1
5	1043	2262.688833919648	1
5	1045	2266.771277960554	2
5	1049	2268.14123197056	3
5	1053	2274.229981918126	3
5	1061	2295.928009914854	1
5	1064	2299.367600235415	1
5	1067	2300.503154335507	1
5	1069	2301.724759587071	2
5	1071	2301.953157066354	3
5	1077	2314.502394381873	3
5	1079	2315.683588688348	4
5	1085	2339.842619891371	1
5	1087	2342.657497307074	2
5	1089	2344.823868400702	3
5	1094	2364.105097919066	1
5	1101	2391.771816139766	1
5	1103	2391.87833102605	2
5	1107	2397.644739807356	3
5	1109	2398.975566228828	4
5	1111	2399.368096068654	5
5	1113	2402.805214477881	6
5	1115	2409.673769388734	7
5	1118	2417.435661793298	7
5	1125	2436.107939185418	7
5	1129	2437.320281692505	8
5	1131	2440.299984748182	9
5	1136	2455.702516081559	10
5	1143	2465.779298357275	6
5	1147	2468.035048194316	7
5	1153	2480.2962639258	8
5	1156	2486.133993132066	8
5	1159	2488.977018924844	8
6	159	361.587814466951	5
6	166	370.517362617564	6
6	170	381.15031939228	7
6	172	383.000106765623	8
6	176	385.205731859589	9
6	181	387.231673826958	10
6	182	390.614556826663	10
6	184	391.467645020652	10
6	186	391.790327657756	11
6	187	392.207487519482	11
6	188	392.633315409967	10
6	189	395.173926649671	9
6	191	400.240274676465	9
6	196	402.849031992676	10
6	197	402.93440414305	10
6	198	406.676284463724	9
6	199	408.239601784749	8
6	201	408.277538686361	8
6	210	415.825879056699	9
6	219	464.120702161819	9
6	221	468.003348668458	9
6	225	472.012324201437	9
6	229	475.837857822399	8
6	230	477.224929101742	7
6	232	479.777162500302	7
6	233	479.800300334399	7
6	234	486.400780222562	6
6	238	491.022656551638	5
6	239	491.274168229855	4
6	243	497.643032871097	4
6	245	501.06747342256	5
6	247	513.673679966768	5
6	251	523.370229861122	4
6	252	524.464722253014	3
6	253	527.718740421199	2
6	254	528.78220723008	1
6	256	529.720340730688	1
6	258	530.664543745399	2
6	259	533.193948836577	2
6	260	535.087572658887	1
6	261	539.61114828977	0
6	272	564.630861679177	0
6	273	564.635639689844	0
6	284	607.060157196228	0
6	286	608.817100002223	1
6	287	609.325034851688	1
6	288	612.645349113982	0
6	290	623.652681534036	0
6	291	625.614592995165	0
6	293	626.268215411257	0
6	294	626.39241743404	0
6	296	634.226339513972	0
6	297	635.860897299504	0
6	299	641.269760757948	0
6	301	642.992641513097	1
6	309	649.251260264539	2
6	310	651.767731511612	2
6	311	656.203014243465	1
6	312	658.853765816043	0
6	314	663.131940718352	0
6	316	670.373604627643	1
6	318	677.811581296454	2
6	319	680.721677722977	2
6	321	681.325147848155	2
6	322	682.354465406633	2
6	323	685.382345185432	1
6	324	689.894191659063	0
6	326	697.713954861291	0
6	327	702.277147721076	0
6	329	705.670589228675	0
6	330	706.216259204136	0
6	332	718.278332535994	0
6	333	720.262965622408	0
6	340	739.370792297982	0
6	342	739.531013032072	1
6	344	741.885813294221	2
6	346	749.08452382733	3
6	348	755.707301090235	4
6	350	766.887371715564	5
6	352	768.874231752549	5
6	353	769.369942139285	4
6	355	771.70993267628	4
6	356	774.725336989552	4
6	357	779.63875047228	3
6	358	780.415270724381	2
6	359	782.550393000869	1
6	361	783.247208959	1
6	362	785.135999037965	1
6	363	787.571466083016	0
6	365	793.563616539954	0
6	366	796.015837609769	0
6	368	800.22497064418	0
6	369	801.838554877297	0
6	374	814.985995901723	0
6	375	815.679459363533	0
6	377	876.737061601873	0
6	378	877.130668503514	0
6	380	880.263351200228	0
6	381	880.413645800403	0
6	383	884.715060646702	0
6	396	893.057995720692	1
6	398	897.621565833426	2
6	400	904.687267680435	3
6	403	906.148189442126	4
6	406	919.461424773194	5
6	410	923.468924505841	6
6	414	933.372035396762	7
6	419	935.239130551037	8
6	421	938.265080216004	8
6	422	938.310464486101	7
6	423	944.865785352012	6
6	424	947.220171175243	5
6	426	947.361177466021	5
6	427	948.080422361063	5
6	428	953.268401881964	4
6	432	961.430930216338	3
6	433	962.278347873128	2
6	435	965.713394902006	2
6	437	969.144301495477	3
6	438	978.110484649188	3
6	440	978.446267412114	3
6	441	978.601429536913	3
6	442	978.917090111693	2
6	444	979.290949837497	2
6	445	983.027500345425	2
6	446	983.157542338679	1
6	447	983.406390757022	0
6	449	985.367248631966	0
6	450	986.028896593699	0
6	452	991.916379502635	0
6	453	994.674973500882	0
6	459	1004.036309392494	0
6	461	1007.313294854891	1
6	464	1011.769311256114	1
6	465	1015.353316095199	0
6	475	1055.253222836611	0
6	477	1057.3337833657	0
6	479	1064.332896723178	0
6	486	1074.458734162069	1
6	490	1084.73509076389	2
6	492	1084.920010614221	3
6	494	1085.344176726577	4
6	496	1086.847302578806	5
6	499	1090.993272535036	6
6	505	1101.359118887311	7
6	507	1102.726871690193	8
6	509	1102.773859650864	9
6	511	1102.808703067666	10
6	513	1103.558692577001	11
6	514	1104.307249972577	11
6	515	1105.242351012767	10
6	517	1105.49852764354	10
6	518	1108.40650185818	10
6	519	1108.665335386095	9
6	521	1113.898576141939	9
6	523	1118.218172902397	10
6	524	1122.346371122637	10
6	525	1124.256038628646	9
6	526	1125.226878803464	8
6	528	1129.286243436009	8
6	529	1134.330983570349	8
6	530	1135.224428797671	7
6	531	1137.208506679529	6
6	532	1143.244650051914	5
6	533	1145.148863874836	4
6	535	1149.330667512377	4
6	536	1149.503781291534	4
6	537	1153.721103523545	3
6	538	1157.489256190453	2
6	539	1165.248763842691	1
6	540	1168.024334670334	0
6	542	1168.132939327389	0
6	543	1170.474068790744	0
6	545	1177.257572825815	0
6	546	1178.859571241216	0
6	548	1180.200759868871	0
6	550	1180.363532954243	1
6	551	1183.244769298557	1
6	552	1185.701410140295	0
6	556	1193.696432415785	0
6	560	1198.036362909496	1
6	563	1215.87533928342	1
6	564	1224.468271866392	0
6	569	1256.80320130424	0
6	570	1260.043350889132	0
6	572	1262.57149398774	0
6	574	1262.817832895913	1
6	575	1264.418412961061	1
6	577	1264.443793757312	1
6	578	1264.960707543753	1
6	579	1267.293580705808	0
6	586	1316.827869198588	0
6	588	1316.836966825172	1
6	590	1317.891645213725	2
6	596	1325.964751757203	3
6	607	1341.896319704022	4
6	623	1372.063553824558	4
6	630	1390.713665924599	4
6	632	1391.491145976173	5
6	634	1396.514629566188	5
6	635	1402.045584402207	4
6	636	1402.995581268088	3
6	637	1417.675207041193	2
6	638	1421.809492106984	1
6	639	1427.681689430341	0
6	641	1432.109599366781	0
6	642	1433.979345265451	0
6	644	1435.424498503776	0
6	646	1435.451453764455	1
6	648	1436.34740156385	2
6	649	1436.920073721648	2
6	650	1437.036507416094	1
6	654	1462.925639557262	0
6	659	1470.537153083715	0
6	663	1486.629062255799	0
6	665	1494.538245268396	0
6	666	1495.859368671614	0
6	670	1520.42257571502	0
6	674	1533.240568147096	1
6	678	1537.392676850934	2
6	679	1545.311967871324	2
6	680	1549.793073016164	1
6	684	1552.745797621676	1
6	689	1564.909420616986	2
6	691	1566.697454731817	3
6	694	1571.139574914787	4
6	698	1584.403961670532	4
6	699	1587.447185527877	3
6	700	1589.521799688395	2
6	701	1590.723427113719	1
6	703	1591.272968515485	1
6	705	1595.182544280602	2
6	706	1596.26785192592	2
6	708	1596.777140918567	2
6	709	1599.747565875074	2
6	710	1605.899461098556	1
6	711	1609.481309083791	0
6	713	1617.910615571711	0
6	714	1621.002745608505	0
6	716	1622.429547964932	0
6	717	1622.669326026799	0
6	723	1629.439667213029	0
6	732	1655.506355636446	0
6	737	1676.568257126997	0
6	738	1678.75296143984	0
6	740	1680.26691701325	0
6	742	1681.635368076538	1
6	743	1681.642870943451	1
6	750	1685.2420606866	1
6	760	1693.214085867151	2
6	762	1693.850338585547	3
6	766	1705.365906575477	4
6	767	1705.752376803684	4
6	768	1710.849408931702	3
6	769	1710.937172899876	2
6	770	1717.172110497675	1
6	771	1721.911875826078	0
6	776	1727.738594423032	0
6	777	1729.230723975648	0
6	779	1737.523578243873	0
6	780	1738.725215722988	0
6	788	1776.48107159176	0
6	789	1778.903646938835	0
6	791	1781.898375840307	0
6	793	1783.251380516264	1
6	795	1783.408564707176	2
6	796	1784.822908706161	2
6	798	1787.876282173172	2
6	799	1791.453529584756	2
6	801	1792.56691716898	2
6	802	1794.625540228726	2
6	803	1795.242444537486	1
6	808	1802.089588050119	1
6	813	1812.408404696471	2
6	814	1813.675287783841	2
6	815	1814.154024257893	1
6	816	1816.21350673875	0
6	818	1820.014028729581	0
6	820	1820.596842822519	1
6	821	1822.789408211222	1
6	822	1823.06489841323	0
6	824	1824.037007746774	0
6	825	1824.165471416233	0
6	827	1843.87114111351	0
6	828	1844.9119732691	0
6	830	1853.396838359014	0
6	832	1858.475513299252	1
6	836	1863.697867469949	1
6	837	1864.080496033067	0
6	844	1876.886942893869	0
6	847	1886.063619410735	1
6	848	1886.91754941706	1
6	849	1887.785562293285	0
6	851	1888.644437598973	0
6	853	1888.850596083817	1
6	857	1890.974046220521	1
6	862	1893.65186083956	1
6	866	1902.201910201055	2
6	868	1904.594850998163	3
6	872	1907.186420434709	4
6	882	1911.280504890157	5
6	885	1918.455621373657	6
6	888	1920.007260962236	6
6	890	1922.630736722385	6
6	894	1931.007132665202	7
6	897	1932.733605221341	8
6	898	1933.522376465303	8
6	900	1939.881984605495	8
6	904	1951.006753761147	8
6	906	1954.337475071124	8
6	907	1956.04950787555	8
6	908	1961.124708111264	7
6	909	1961.154432526327	6
6	911	1961.404136305048	6
6	913	1967.826872257726	7
6	917	1973.977769645519	8
6	919	1979.422697513223	8
6	920	1980.520876505176	7
6	922	1980.79880086202	7
6	923	1981.754751033457	7
6	924	1987.069954839169	6
6	925	1988.557053216412	5
6	927	1988.646059310834	5
6	929	1990.289519978881	6
6	930	1993.050167872617	6
6	931	1997.314189324513	5
6	933	1998.882624034751	5
6	937	2007.845536278329	5
6	938	2008.423442468605	4
6	940	2010.24701442697	4
6	942	2010.606594549351	5
6	943	2013.576630595169	5
6	944	2021.970065912132	4
6	945	2025.814056990414	3
6	947	2028.407657464782	3
6	949	2030.619084909051	4
6	953	2046.884535755182	5
6	955	2049.934755867752	6
6	957	2053.073870204826	7
6	959	2063.536240371679	8
6	961	2068.179391804684	9
6	963	2076.166057980388	9
6	964	2079.889480493612	8
6	965	2080.13515031156	7
6	966	2084.830996360327	6
6	967	2085.086437662672	5
6	968	2087.780918001216	4
6	969	2090.890090166835	3
6	970	2092.935996438732	2
6	976	2106.24467890276	2
6	978	2111.67201245948	3
6	983	2124.276576918475	4
6	985	2126.00628669928	5
6	992	2137.727488543402	6
6	993	2143.018611640032	6
6	994	2143.184835672734	5
6	996	2145.095894681443	5
6	997	2146.891874196305	5
6	998	2148.61217427906	4
6	1002	2151.587321290818	4
6	1005	2157.587890184407	5
6	1006	2161.513767025251	5
6	1008	2167.761515143486	5
6	1009	2169.364339675911	5
6	1010	2170.521142979369	4
6	1011	2171.180209997814	3
6	1012	2171.45823478959	2
6	1013	2175.997464310697	1
6	1017	2181.83866788825	1
6	1019	2182.998930779226	2
6	1024	2190.797500388774	2
6	1026	2191.379152475978	2
6	1027	2194.134354063322	2
6	1028	2194.403183201365	1
6	1029	2196.463468102765	0
6	1031	2207.518507673308	0
6	1032	2208.554680200985	0
6	1037	2218.373340417633	0
6	1038	2228.970274378172	0
6	1043	2262.688833919648	0
6	1045	2266.771277960554	1
6	1049	2268.14123197056	2
6	1051	2269.272187731612	2
6	1053	2274.229981918126	2
6	1054	2275.459955286595	2
6	1055	2278.916371044303	1
6	1056	2282.970683498326	0
6	1061	2295.928009914854	0
6	1062	2296.20876456258	0
6	1064	2299.367600235415	0
6	1065	2299.627943481263	0
6	1067	2300.503154335507	0
6	1069	2301.724759587071	1
6	1071	2301.953157066354	2
6	1075	2306.787140120353	2
6	1077	2314.502394381873	2
6	1079	2315.683588688348	3
6	1080	2315.882839347677	3
6	1081	2322.022721505845	2
6	1082	2322.926799596159	1
6	1083	2325.106865220331	0
6	1085	2339.842619891371	0
6	1087	2342.657497307074	1
6	1089	2344.823868400702	2
6	1090	2346.11606782471	2
6	1091	2349.328709132828	1
6	1092	2352.560464662603	0
6	1094	2364.105097919066	0
6	1095	2367.989943967439	0
6	1101	2391.771816139766	0
6	1103	2391.87833102605	1
6	1107	2397.644739807356	2
6	1109	2398.975566228828	3
6	1111	2399.368096068654	4
6	1113	2402.805214477881	5
6	1115	2409.673769388734	6
6	1116	2411.775481366276	6
6	1118	2417.435661793298	6
6	1119	2425.592323487779	6
6	1125	2436.107939185418	6
6	1129	2437.320281692505	7
6	1131	2440.299984748182	8
6	1136	2455.702516081559	9
6	1137	2456.184619909298	9
6	1138	2458.675292176174	8
6	1139	2461.043916270467	7
6	1140	2464.614606252273	6
6	1141	2465.631352938593	5
6	1143	2465.779298357275	5
6	1147	2468.035048194316	6
6	1153	2480.2962639258	7
6	1154	2485.494312839779	7
6	1156	2486.133993132066	7
6	1157	2487.941340455693	7
6	1159	2488.977018924844	7
6	1160	2489.156777662629	7
6	1161	2489.289069059279	6
6	1165	2493.241562680134	5
6	1166	2494.168455552622	4
6	1167	2496.222650430836	3
7	174	384.145636243284	93.675539592407
7	179	386.700387786848	88.735240931234
7	182	390.614556826663	69.171048999869
7	187	392.207487519482	67.347237688019
7	188	392.633315409967	52.825501235153
7	189	395.173926649671	33.58611218272
7	194	402.135300703254	31.61793808569
7	197	402.93440414305	21.78408475077
7	198	406.676284463724	23.676177698101
7	199	408.239601784749	23.03386992516
7	215	443.809997738911	57.814941803052
7	218	461.693512929868	74.46183910291
7	219	464.120702161819	72.653057141167
7	224	468.995377166077	77.205049508321
7	225	472.012324201437	71.772049524972
7	228	474.379593891973	73.220213746472
7	229	475.837857822399	72.988825829723
7	230	477.224929101742	68.947390415381
7	233	479.800300334399	71.219328321307
7	234	486.400780222562	70.574901165863
7	237	490.026679416609	43.251652221718
7	238	491.022656551638	23.01930788318
7	239	491.274168229855	22.824024134135
7	246	511.265758322659	38.721586293238
7	247	513.673679966768	33.896517466466
7	250	522.424619923917	35.348443711196
7	251	523.370229861122	32.061966030186
7	252	524.464722253014	26.821689381917
7	253	527.718740421199	26.651266998639
7	254	528.78220723008	14.361762176199
7	259	533.193948836577	3.473608105889
7	260	535.087572658887	4.423028913488
7	272	564.630861679177	0
7	284	607.060157196228	0
7	287	609.325034851688	0.507934849465
7	290	623.652681534036	0
7	293	626.268215411257	0
7	296	634.226339513972	0
7	299	641.269760757948	0
7	307	648.887942052682	5.895300539585
7	310	651.767731511612	8.641806134755
7	311	656.203014243465	6.951753978926
7	314	663.131940718352	0
7	319	680.721677722977	10.348073095334
7	322	682.354465406633	4.542884110179
7	323	685.382345185432	4.057197337277
7	326	697.713954861291	0
7	329	705.670589228675	0
7	332	718.278332535994	0
7	351	767.789325998757	28.418533700775
7	352	768.874231752549	29.343218720477
7	353	769.369942139285	27.484128845064
7	356	774.725336989552	25.640813162222
7	357	779.63875047228	23.931449382045
7	358	780.415270724381	13.527899008817
7	359	782.550393000869	10.840460324589
7	362	785.135999037965	1.888790078965
7	365	793.563616539954	0
7	368	800.22497064418	0
7	374	814.985995901723	0
7	377	876.737061601873	0
7	380	880.263351200228	0
7	383	884.715060646702	0
7	420	935.832377719279	50.924650471416
7	421	938.265080216004	45.207084495312
7	422	938.310464486101	40.688898652675
7	423	944.865785352012	40.178517671577
7	424	947.220171175243	41.071981733117
7	427	948.080422361063	28.618997587869
7	428	953.268401881964	29.799477376123
7	431	958.057651989517	24.685616592755
7	432	961.430930216338	26.191799665301
7	433	962.278347873128	14.917170407107
7	438	978.110484649188	22.598778474505
7	441	978.601429536913	12.888034634907
7	442	978.917090111693	9.772788616216
7	445	983.027500345425	4.581232933311
7	446	983.157542338679	3.866592501182
7	449	985.367248631966	0
7	452	991.916379502635	0
7	463	1010.58057890132	6.544269508826
7	464	1011.769311256114	4.456016401223
7	476	1057.046193158647	1.792970322036
7	479	1064.332896723178	0
7	482	1065.722801954575	0.51014474821
7	500	1091.293675210258	25.538945546929
7	503	1093.827672612088	19.368938450019
7	514	1104.307249972577	19.572159208687
7	515	1105.242351012767	20.322340398546
7	518	1108.40650185818	23.062325131603
7	519	1108.665335386095	21.818032807289
7	524	1122.346371122637	31.353098587601
7	525	1124.256038628646	31.165825624667
7	526	1125.226878803464	23.867759916153
7	529	1134.330983570349	31.604111880156
7	530	1135.224428797671	32.450569146807
7	531	1137.208506679529	34.399803611863
7	532	1143.244650051914	39.685957474913
7	533	1145.148863874836	39.650336231296
7	536	1149.503781291534	35.605205149595
7	537	1153.721103523545	35.502930621148
7	538	1157.489256190453	28.203012754444
7	539	1165.248763842691	15.918096330314
7	542	1168.132939327389	0
7	545	1177.257572825815	0
7	548	1180.200759868871	0
7	551	1183.244769298557	2.881236344314
7	562	1215.164007509737	21.467575093952
7	563	1215.87533928342	17.838976373924
7	569	1256.80320130424	0
7	572	1262.57149398774	0
7	575	1264.418412961061	1.600580065148
7	578	1264.960707543753	0.516913786441
7	599	1334.535700575817	17.707831377229
7	602	1336.002625048215	19.165658223043
7	605	1340.544809012119	22.653163798394
7	616	1351.660216010578	25.695464253375
7	619	1355.404070785946	19.98197277016
7	622	1369.394380683126	30.601208897422
7	623	1372.063553824558	30.167234120536
7	626	1377.187094335321	33.241396280645
7	633	1394.845360614103	40.400637228877
7	634	1396.514629566188	32.732553563768
7	635	1402.045584402207	29.147809060152
7	636	1402.995581268088	22.255437142175
7	637	1417.675207041193	26.961541116594
7	638	1421.809492106984	30.318346130811
7	641	1432.109599366781	0
7	644	1435.424498503776	0
7	649	1436.920073721648	1.468619957193
7	650	1437.036507416094	0.689105852244
7	653	1458.405051856323	8.527359000372
7	659	1470.537153083715	0
7	662	1482.472524600783	9.504059370929
7	665	1494.538245268396	0
7	676	1537.094798977733	16.672223262713
7	679	1545.311967871324	12.071399724228
7	680	1549.793073016164	12.40039616523
7	692	1570.225736260285	20.060323360332
7	697	1582.133857235011	29.388059613335
7	698	1584.403961670532	19.494541053546
7	699	1587.447185527877	20.74973079606
7	700	1589.521799688395	18.382224773608
7	701	1590.723427113719	17.220885941641
7	706	1596.26785192592	4.994883410435
7	709	1599.747565875074	4.565021594472
7	710	1605.899461098556	9.122320179989
7	713	1617.910615571711	0
7	716	1622.429547964932	0
7	731	1655.152616978806	25.712949765777
7	737	1676.568257126997	0
7	740	1680.26691701325	0
7	743	1681.642870943451	0.007502866913
7	746	1684.527044428984	0.987949814964
7	764	1701.765808725006	17.154862129099
7	767	1705.752376803684	20.510316117084
7	768	1710.849408931702	17.635323064551
7	769	1710.937172899876	17.086834314329
7	770	1717.172110497675	11.806203922198
7	776	1727.738594423032	0
7	779	1737.523578243873	0
7	788	1776.48107159176	0
7	791	1781.898375840307	0
7	796	1784.822908706161	1.571528189897
7	799	1791.453529584756	8.04496487758
7	802	1794.625540228726	6.749258055554
7	803	1795.242444537486	2.675527368506
7	806	1801.800649517653	5.854812732799
7	811	1810.877700219942	8.788112169823
7	814	1813.675287783841	10.600167938126
7	815	1814.154024257893	1.745619561422
7	818	1820.014028729581	0
7	821	1822.789408211222	2.192565388703
7	824	1824.037007746774	0
7	827	1843.87114111351	0
7	830	1853.396838359014	0
7	835	1863.693833687265	5.218320388013
7	836	1863.697867469949	0.665960347901
7	845	1877.762649857053	0.875706963184
7	848	1886.91754941706	0.853930006325
7	851	1888.644437598973	0
7	856	1890.49014857395	1.639552490133
7	857	1890.974046220521	0.574066691331
7	860	1893.11478697865	1.48540963312
7	887	1919.393885133657	25.742024294097
7	888	1920.007260962236	24.29272301812
7	895	1931.293351446147	29.091441245092
7	898	1933.522376465303	28.92752546714
7	903	1945.29165037726	38.105229942551
7	904	1951.006753761147	39.72624887099
7	907	1956.04950787555	37.593886501893
7	908	1961.124708111264	38.493971388879
7	909	1961.154432526327	32.525640371091
7	918	1975.577098369112	44.56996570391
7	919	1979.422697513223	46.689092291882
7	920	1980.520876505176	40.638891899681
7	923	1981.754751033457	41.488567819238
7	924	1987.069954839169	32.732479768045
7	925	1988.557053216412	27.152916911364
7	930	1993.050167872617	25.223295614891
7	931	1997.314189324513	27.636811203815
7	936	2007.006401498475	33.028631852956
7	937	2007.845536278329	27.046735416309
7	938	2008.423442468605	19.777383157771
7	943	2013.576630595169	23.287110616288
7	944	2021.970065912132	23.087441877381
7	945	2025.814056990414	20.704999156153
7	962	2069.003496402652	58.756481975682
7	963	2076.166057980388	65.559463431037
7	964	2079.889480493612	51.48182302883
7	965	2080.13515031156	49.516065402509
7	966	2084.830996360327	47.114947683248
7	967	2085.086437662672	38.20190190749
7	968	2087.780918001216	37.846162133464
7	969	2090.890090166835	37.816219962009
7	970	2092.935996438732	29.399756067053
7	990	2134.237527982179	66.058136177495
7	993	2143.018611640032	46.655468666433
7	994	2143.184835672734	36.940156769974
7	997	2146.891874196305	35.219861736825
7	998	2148.61217427906	24.335597360585
7	1003	2155.880905465048	29.874618765768
7	1006	2161.513767025251	23.786278481849
7	1009	2169.364339675911	24.268444994468
7	1010	2170.521142979369	20.82151382659
7	1011	2171.180209997814	19.592888706996
7	1012	2171.45823478959	13.870344605183
7	1013	2175.997464310697	8.235949167211
7	1020	2184.319236171265	3.912490036912
7	1023	2190.69315338113	8.85448549288
7	1024	2190.797500388774	7.798569609548
7	1027	2194.134354063322	5.077571472581
7	1028	2194.403183201365	3.024030725387
7	1031	2207.518507673308	0
7	1037	2218.373340417633	0
7	1043	2262.688833919648	0
7	1050	2268.715333539285	1.944055578731
7	1051	2269.272187731612	1.731702661919
7	1054	2275.459955286595	7.318723316035
7	1055	2278.916371044303	4.686389126177
7	1061	2295.928009914854	0
7	1064	2299.367600235415	0
7	1067	2300.503154335507	0
7	1074	2304.87588335855	3.151123771479
7	1075	2306.787140120353	4.833983053999
7	1080	2315.882839347677	12.866739095067
7	1081	2322.022721505845	7.520327123972
7	1082	2322.926799596159	7.243210907811
7	1085	2339.842619891371	0
7	1090	2346.11606782471	3.458570517636
7	1091	2349.328709132828	4.504840732126
7	1094	2364.105097919066	0
7	1105	2393.988779564857	2.216963425091
7	1116	2411.775481366276	19.897150340226
7	1119	2425.592323487779	27.947583680423
7	1134	2451.802938758035	52.827372529207
7	1137	2456.184619909298	56.816523840644
7	1138	2458.675292176174	55.870077698293
7	1139	2461.043916270467	51.370146881733
7	1140	2464.614606252273	47.178944458975
7	1141	2465.631352938593	39.573648918602
7	1148	2468.541864716541	32.433925531123
7	1151	2476.819357358599	39.499075666094
7	1154	2485.494312839779	45.194328091597
7	1157	2487.941340455693	32.238824374134
7	1160	2489.156777662629	23.377479305354
7	1161	2489.289069059279	22.165102493132
7	1164	2492.86212670702	24.827078512704
7	1165	2493.241562680134	19.373696452896
7	1166	2494.168455552622	13.872191626822
7	1167	2496.222650430836	10.08865729877
8	178	385.995055935859	6
8	193	401.159380145501	7
8	203	408.580972013092	8
8	217	446.775027194891	9
8	223	468.45014409572	10
8	227	472.544172029421	11
8	236	487.076176212721	12
8	241	491.308263830936	13
8	249	514.420445053881	14
8	303	643.125925376857	15
8	385	884.907727247863	16
8	430	955.511706174683	17
8	481	1065.212657206365	18
8	484	1065.754729663329	19
8	502	1093.090213003979	20
8	601	1335.422098015786	21
8	604	1338.793171785704	22
8	609	1343.945698054676	23
8	618	1354.444723385226	24
8	621	1363.78207600242	25
8	625	1372.897775342055	26
8	628	1380.740144125913	27
8	652	1449.877692855951	28
8	661	1472.968465229854	29
8	682	1550.165412899953	30
8	696	1573.502541172078	31
8	745	1683.53909461402	32
8	748	1684.610946595907	33
8	805	1795.945836784854	34
8	810	1803.075119845715	35
8	834	1863.031907122048	36
8	855	1890.39997952919	37
8	859	1891.62937734553	38
8	864	1895.714537944116	39
8	892	1928.628792155236	40
8	902	1940.266183214219	41
8	915	1969.677378120698	42
8	935	2005.109057834261	43
8	951	2037.716048677079	44
8	972	2096.363142973599	45
8	1000	2149.699629152779	46
8	1015	2180.406746134353	47
8	1022	2189.056782590741	48
8	1047	2267.540485069693	49
8	1073	2303.01610025261	50
8	1121	2426.057704019991	51
8	1145	2467.123966566147	52
8	1150	2473.867866227238	53
8	1163	2489.726720628059	54
9	182	390.614556826663	29
9	187	392.207487519482	30
9	188	392.633315409967	31
9	189	395.173926649671	32
9	197	402.93440414305	33
9	198	406.676284463724	34
9	199	408.239601784749	35
9	219	464.120702161819	36
9	225	472.012324201437	37
9	229	475.837857822399	38
9	230	477.224929101742	39
9	233	479.800300334399	40
9	234	486.400780222562	41
9	238	491.022656551638	42
9	239	491.274168229855	43
9	247	513.673679966768	44
9	251	523.370229861122	45
9	252	524.464722253014	46
9	253	527.718740421199	47
9	254	528.78220723008	48
9	259	533.193948836577	49
9	260	535.087572658887	50
9	261	539.61114828977	51
9	273	564.635639689844	52
9	287	609.325034851688	53
9	288	612.645349113982	54
9	291	625.614592995165	55
9	294	626.39241743404	56
9	297	635.860897299504	57
9	310	651.767731511612	58
9	311	656.203014243465	59
9	312	658.853765816043	60
9	319	680.721677722977	61
9	322	682.354465406633	62
9	323	685.382345185432	63
9	324	689.894191659063	64
9	327	702.277147721076	65
9	330	706.216259204136	66
9	333	720.262965622408	67
9	352	768.874231752549	68
9	353	769.369942139285	69
9	356	774.725336989552	70
9	357	779.63875047228	71
9	358	780.415270724381	72
9	359	782.550393000869	73
9	362	785.135999037965	74
9	363	787.571466083016	75
9	366	796.015837609769	76
9	369	801.838554877297	77
9	375	815.679459363533	78
9	378	877.130668503514	79
9	381	880.413645800403	80
9	421	938.265080216004	81
9	422	938.310464486101	82
9	423	944.865785352012	83
9	424	947.220171175243	84
9	427	948.080422361063	85
9	428	953.268401881964	86
9	432	961.430930216338	87
9	433	962.278347873128	88
9	438	978.110484649188	89
9	441	978.601429536913	90
9	442	978.917090111693	91
9	445	983.027500345425	92
9	446	983.157542338679	93
9	447	983.406390757022	94
9	450	986.028896593699	95
9	453	994.674973500882	96
9	464	1011.769311256114	97
9	465	1015.353316095199	98
9	477	1057.3337833657	99
9	514	1104.307249972577	100
9	515	1105.242351012767	101
9	518	1108.40650185818	102
9	519	1108.665335386095	103
9	524	1122.346371122637	104
9	525	1124.256038628646	105
9	526	1125.226878803464	106
9	529	1134.330983570349	107
9	530	1135.224428797671	108
9	531	1137.208506679529	109
9	532	1143.244650051914	110
9	533	1145.148863874836	111
9	536	1149.503781291534	112
9	537	1153.721103523545	113
9	538	1157.489256190453	114
9	539	1165.248763842691	115
9	540	1168.024334670334	116
9	543	1170.474068790744	117
9	546	1178.859571241216	118
9	551	1183.244769298557	119
9	552	1185.701410140295	120
9	563	1215.87533928342	121
9	564	1224.468271866392	122
9	570	1260.043350889132	123
9	575	1264.418412961061	124
9	578	1264.960707543753	125
9	579	1267.293580705808	126
9	623	1372.063553824558	127
9	634	1396.514629566188	128
9	635	1402.045584402207	129
9	636	1402.995581268088	130
9	637	1417.675207041193	131
9	638	1421.809492106984	132
9	639	1427.681689430341	133
9	642	1433.979345265451	134
9	649	1436.920073721648	135
9	650	1437.036507416094	136
9	654	1462.925639557262	137
9	663	1486.629062255799	138
9	666	1495.859368671614	139
9	679	1545.311967871324	140
9	680	1549.793073016164	141
9	698	1584.403961670532	142
9	699	1587.447185527877	143
9	700	1589.521799688395	144
9	701	1590.723427113719	145
9	706	1596.26785192592	146
9	709	1599.747565875074	147
9	710	1605.899461098556	148
9	711	1609.481309083791	149
9	714	1621.002745608505	150
9	717	1622.669326026799	151
9	732	1655.506355636446	152
9	738	1678.75296143984	153
9	743	1681.642870943451	154
9	767	1705.752376803684	155
9	768	1710.849408931702	156
9	769	1710.937172899876	157
9	770	1717.172110497675	158
9	771	1721.911875826078	159
9	777	1729.230723975648	160
9	780	1738.725215722988	161
9	789	1778.903646938835	162
9	796	1784.822908706161	163
9	799	1791.453529584756	164
9	802	1794.625540228726	165
9	803	1795.242444537486	166
9	814	1813.675287783841	167
9	815	1814.154024257893	168
9	816	1816.21350673875	169
9	821	1822.789408211222	170
9	822	1823.06489841323	171
9	825	1824.165471416233	172
9	828	1844.9119732691	173
9	836	1863.697867469949	174
9	837	1864.080496033067	175
9	848	1886.91754941706	176
9	849	1887.785562293285	177
9	857	1890.974046220521	178
9	888	1920.007260962236	179
9	898	1933.522376465303	180
9	904	1951.006753761147	181
9	907	1956.04950787555	182
9	908	1961.124708111264	183
9	909	1961.154432526327	184
9	919	1979.422697513223	185
9	920	1980.520876505176	186
9	923	1981.754751033457	187
9	924	1987.069954839169	188
9	925	1988.557053216412	189
9	930	1993.050167872617	190
9	931	1997.314189324513	191
9	937	2007.845536278329	192
9	938	2008.423442468605	193
9	943	2013.576630595169	194
9	944	2021.970065912132	195
9	945	2025.814056990414	196
9	963	2076.166057980388	197
9	964	2079.889480493612	198
9	965	2080.13515031156	199
9	966	2084.830996360327	200
9	967	2085.086437662672	201
9	968	2087.780918001216	202
9	969	2090.890090166835	203
9	970	2092.935996438732	204
9	993	2143.018611640032	205
9	994	2143.184835672734	206
9	997	2146.891874196305	207
9	998	2148.61217427906	208
9	1006	2161.513767025251	209
9	1009	2169.364339675911	210
9	1010	2170.521142979369	211
9	1011	2171.180209997814	212
9	1012	2171.45823478959	213
9	1013	2175.997464310697	214
9	1024	2190.797500388774	215
9	1027	2194.134354063322	216
9	1028	2194.403183201365	217
9	1029	2196.463468102765	218
9	1032	2208.554680200985	219
9	1038	2228.970274378172	220
9	1051	2269.272187731612	221
9	1054	2275.459955286595	222
9	1055	2278.916371044303	223
9	1056	2282.970683498326	224
9	1062	2296.20876456258	225
9	1065	2299.627943481263	226
9	1075	2306.787140120353	227
9	1080	2315.882839347677	228
9	1081	2322.022721505845	229
9	1082	2322.926799596159	230
9	1083	2325.106865220331	231
9	1090	2346.11606782471	232
9	1091	2349.328709132828	233
9	1092	2352.560464662603	234
9	1095	2367.989943967439	235
9	1116	2411.775481366276	236
9	1119	2425.592323487779	237
9	1137	2456.184619909298	238
9	1138	2458.675292176174	239
9	1139	2461.043916270467	240
9	1140	2464.614606252273	241
9	1141	2465.631352938593	242
9	1154	2485.494312839779	243
9	1157	2487.941340455693	244
9	1160	2489.156777662629	245
9	1161	2489.289069059279	246
9	1165	2493.241562680134	247
9	1166	2494.168455552622	248
9	1167	2496.222650430836	249
10	182	390.614556826663	92.649409971049
10	187	392.207487519482	70.763979692688
10	188	392.633315409967	67.773065578504
10	189	395.173926649671	55.366112474857
10	197	402.93440414305	32.417041525486
10	198	406.676284463724	25.525965071444
10	199	408.239601784749	25.239495019126
10	219	464.120702161819	76.889028334861
10	225	472.012324201437	80.221996543681
10	229	475.837857822399	74.678477676898
10	230	477.224929101742	74.375897109066
10	233	479.800300334399	71.522761648038
10	234	486.400780222562	77.81980820947
10	238	491.022656551638	44.247629356747
10	239	491.274168229855	23.270819561397
10	247	513.673679966768	41.129507937347
10	251	523.370229861122	36.294053648401
10	252	524.464722253014	33.156458422078
10	253	527.718740421199	30.075707550102
10	254	528.78220723008	27.71473380752
10	259	533.193948836577	18.773503782696
10	260	535.087572658887	5.367231928199
10	261	539.61114828977	8.946604544371
10	273	564.635639689844	0.004778010667
10	287	609.325034851688	2.26487765546
10	288	612.645349113982	3.828249111759
10	291	625.614592995165	1.961911461129
10	294	626.39241743404	0.124202022783
10	297	635.860897299504	1.634557785532
10	310	651.767731511612	8.775089998515
10	311	656.203014243465	13.077088866608
10	312	658.853765816043	9.602505551504
10	319	680.721677722977	17.589737004625
10	322	682.354465406633	11.98086077899
10	323	685.382345185432	7.570763888978
10	324	689.894191659063	8.569043810908
10	327	702.277147721076	4.563192859785
10	330	706.216259204136	0.545669975461
10	333	720.262965622408	1.984633086414
10	352	768.874231752549	29.503439454567
10	353	769.369942139285	29.838929107213
10	356	774.725336989552	32.839523695331
10	357	779.63875047228	30.55422664495
10	358	780.415270724381	24.707969634146
10	359	782.550393000869	15.663021285305
10	362	785.135999037965	13.426066361685
10	363	787.571466083016	4.324257124016
10	366	796.015837609769	2.452221069815
10	369	801.838554877297	1.613584233117
10	375	815.679459363533	0.69346346181
10	378	877.130668503514	0.393606901641
10	381	880.413645800403	0.150294600175
10	421	938.265080216004	53.357352968141
10	422	938.310464486101	45.252468765409
10	423	944.865785352012	47.244219518586
10	424	947.220171175243	42.532903494808
10	427	948.080422361063	41.932232918937
10	428	953.268401881964	33.80697710877
10	432	961.430930216338	28.058894819576
10	433	962.278347873128	27.039217322091
10	438	978.110484649188	30.749307183167
10	441	978.601429536913	23.08972336223
10	442	978.917090111693	13.203695209687
10	445	983.027500345425	13.883198849948
10	446	983.157542338679	4.711274926565
10	447	983.406390757022	4.115440919525
10	450	986.028896593699	0.661647961733
10	453	994.674973500882	2.758593998247
10	464	1011.769311256114	7.73300186362
10	465	1015.353316095199	8.040021240308
10	477	1057.3337833657	2.080560529089
10	514	1104.307249972577	29.848515810508
10	515	1105.242351012767	20.507260248877
10	518	1108.40650185818	23.486491243959
10	519	1108.665335386095	23.321158659518
10	524	1122.346371122637	35.499068543831
10	525	1124.256038628646	33.26276609361
10	526	1125.226878803464	32.136665799485
10	529	1134.330983570349	32.971864683038
10	530	1135.224428797671	32.497557107478
10	531	1137.208506679529	34.434647028665
10	532	1143.244650051914	40.435946984248
10	533	1145.148863874836	41.590171297835
10	536	1149.503781291534	44.005253647994
10	537	1153.721103523545	39.822527381606
10	538	1157.489256190453	39.271083288056
10	539	1165.248763842691	35.962520406682
10	540	1168.024334670334	18.693667157957
10	543	1170.474068790744	2.341129463355
10	546	1178.859571241216	1.601998415401
10	551	1183.244769298557	3.044009429686
10	552	1185.701410140295	5.337877186052
10	563	1215.87533928342	22.178906867635
10	564	1224.468271866392	26.431908956896
10	570	1260.043350889132	3.240149584892
10	575	1264.418412961061	1.846918973321
10	578	1264.960707543753	2.14287464784
10	579	1267.293580705808	2.849786948496
10	623	1372.063553824558	33.270382038854
10	634	1396.514629566188	42.069906180962
10	635	1402.045584402207	38.263508399787
10	636	1402.995581268088	30.097805926033
10	637	1417.675207041193	36.93506291528
10	638	1421.809492106984	31.095826182385
10	639	1427.681689430341	36.190543454168
10	642	1433.979345265451	1.86974589867
10	649	1436.920073721648	1.495575217872
10	650	1437.036507416094	1.585053651639
10	654	1462.925639557262	13.047946701311
10	663	1486.629062255799	13.660597025945
10	666	1495.859368671614	1.321123403218
10	679	1545.311967871324	24.889392156304
10	680	1549.793073016164	16.552504869068
10	698	1584.403961670532	31.658164048856
10	699	1587.447185527877	22.537764910891
10	700	1589.521799688395	22.824344956578
10	701	1590.723427113719	19.583852198932
10	706	1596.26785192592	22.765310753842
10	709	1599.747565875074	8.474597359589
10	710	1605.899461098556	10.716916817954
10	711	1609.481309083791	12.704168165224
10	714	1621.002745608505	3.092130036794
10	717	1622.669326026799	0.239778061867
10	732	1655.506355636446	26.066688423417
10	738	1678.75296143984	2.184704312843
10	743	1681.642870943451	1.375953930201
10	767	1705.752376803684	21.141430207777
10	768	1710.849408931702	25.607348245102
10	769	1710.937172899876	17.723087032725
10	770	1717.172110497675	23.321771912128
10	771	1721.911875826078	16.545969250601
10	777	1729.230723975648	1.492129552616
10	780	1738.725215722988	1.201637479115
10	789	1778.903646938835	2.422575347075
10	796	1784.822908706161	2.924532865854
10	799	1791.453529584756	8.202149068492
10	802	1794.625540228726	11.21697552155
10	803	1795.242444537486	7.366162364314
10	814	1813.675287783841	11.585699733722
10	815	1814.154024257893	11.078904412178
10	816	1816.21350673875	3.805102042279
10	821	1822.789408211222	2.775379481641
10	822	1823.06489841323	2.468055590711
10	825	1824.165471416233	0.128463669459
10	828	1844.9119732691	1.04083215559
10	836	1863.697867469949	5.222354170697
10	837	1864.080496033067	1.048588911019
10	848	1886.91754941706	10.030606523191
10	849	1887.785562293285	1.72194288255
10	857	1890.974046220521	2.123450136704
10	888	1920.007260962236	26.355400122676
10	898	1933.522376465303	31.320466264248
10	904	1951.006753761147	43.820333326438
10	907	1956.04950787555	44.769002985393
10	908	1961.124708111264	42.669086737607
10	909	1961.154432526327	38.523695803942
10	919	1979.422697513223	48.415564848021
10	920	1980.520876505176	47.787271283835
10	923	1981.754751033457	41.872766427962
10	924	1987.069954839169	46.80377162495
10	925	1988.557053216412	34.219578145288
10	930	1993.050167872617	31.646031567569
10	931	1997.314189324513	29.487317066787
10	937	2007.845536278329	33.86776663281
10	938	2008.423442468605	27.624641606585
10	943	2013.576630595169	24.930571284335
10	944	2021.970065912132	31.680545933251
10	945	2025.814056990414	26.931432955663
10	963	2076.166057980388	65.919043553418
10	964	2079.889480493612	69.282885944261
10	965	2080.13515031156	51.727492846778
10	966	2084.830996360327	54.211911451276
10	967	2085.086437662672	47.370388985593
10	968	2087.780918001216	40.896382246034
10	969	2090.890090166835	40.955334299083
10	970	2092.935996438732	39.862126233906
10	993	2143.018611640032	74.839219835348
10	994	2143.184835672734	46.821692699135
10	997	2146.891874196305	40.647195293545
10	998	2148.61217427906	36.94016181958
10	1006	2161.513767025251	35.507480325971
10	1009	2169.364339675911	31.636851132509
10	1010	2170.521142979369	25.425248297926
10	1011	2171.180209997814	21.480580845035
10	1012	2171.45823478959	19.870913498772
10	1013	2175.997464310697	18.40957412629
10	1024	2190.797500388774	8.958832500524
10	1027	2194.134354063322	11.135423284096
10	1028	2194.403183201365	5.346400610624
10	1029	2196.463468102765	5.084315626787
10	1032	2208.554680200985	1.036172527677
10	1038	2228.970274378172	10.596933960539
10	1051	2269.272187731612	2.500909771058
10	1054	2275.459955286595	7.919470216902
10	1055	2278.916371044303	10.775139073743
10	1056	2282.970683498326	8.7407015802
10	1062	2296.20876456258	0.280754647726
10	1065	2299.627943481263	0.260343245848
10	1075	2306.787140120353	5.062380533282
10	1080	2315.882839347677	13.929682281323
10	1081	2322.022721505845	19.006621253235
10	1082	2322.926799596159	8.424405214286
10	1083	2325.106865220331	9.423276531983
10	1090	2346.11606782471	6.273447933339
10	1091	2349.328709132828	6.671211825754
10	1092	2352.560464662603	7.736596261901
10	1095	2367.989943967439	3.884846048373
10	1116	2411.775481366276	20.00366522651
10	1119	2425.592323487779	33.713992461729
10	1137	2456.184619909298	57.20905368047
10	1138	2458.675292176174	59.30719610752
10	1139	2461.043916270467	58.238701792586
10	1140	2464.614606252273	54.940836863539
10	1141	2465.631352938593	48.195691145295
10	1154	2485.494312839779	48.174031147274
10	1157	2487.941340455693	47.641355707511
10	1160	2489.156777662629	33.45426158107
10	1161	2489.289069059279	23.509770702004
10	1165	2493.241562680134	25.206514485818
10	1166	2494.168455552622	20.300589325384
10	1167	2496.222650430836	15.926386505036
11	1168	2500	0.0996
12	1168	2500	0.0552

