version 2
run experiments_medium_game_mode1-579-20230311-09:41:57-11583
attr configname experiments_medium_game_mode1
attr datetime 20230311-09:41:57
attr experiment experiments_medium_game_mode1
attr inifile omnetpp.ini
attr iterationvars "$0=5.5, $1=7, $2=100"
attr iterationvarsf 5.5,7,100-
attr measurement "$0=5.5, $1=7, $2=100"
attr network Network
attr processid 11583
attr repetition 9
attr replication #9
attr resultdir results
attr runnumber 579
attr seedset 9
param *.boss.arrival_mean 20
param *.boss.service_mean 5.5
param *.minion.arrival_mean 10
param *.minion.service_mean 7
param *.player.recover_rate_x 100
param **.minion.arrival_distribution 0
param **.minion.service_distribution 0
param **.boss.arrival_distribution 0
param **.boss.service_distribution 0

vector 0 Network.player boss_defeated_stat:vector ETV
attr source signal_boss_defeated
vector 1 Network.player boss_jobs_queue_number_stat:vector ETV
attr source signal_boss_jobs_queue_number
vector 2 Network.player boss_response_time_stat:vector ETV
attr source signal_boss_response_time
vector 3 Network.player minion_waiting_time_stat:vector ETV
attr source signal_minion_waiting_time
vector 4 Network.player minion_jobs_number_stat:vector ETV
attr source signal_minion_jobs_number
vector 5 Network.player minion_jobs_queue_number_stat:vector ETV
attr source signal_minion_jobs_queue_number
vector 6 Network.player minion_defeated_stat:vector ETV
attr source signal_minion_defeated
vector 7 Network.player minion_response_time_stat:vector ETV
attr source signal_minion_response_time
vector 8 Network.player boss_jobs_number_stat:vector ETV
attr source signal_boss_jobs_number
vector 9 Network.player minion_recovered_stat:vector ETV
attr source signal_minion_recovered
vector 10 Network.player boss_waiting_time_stat:vector ETV
attr source signal_boss_waiting_time
vector 11 Network.player minion_throughput:vector ETV
attr source signal_minion_throughput
vector 12 Network.player boss_throughput:vector ETV
attr source signal_boss_throughput
0	124	353.361448012809	10
0	133	371.007124813545	11
0	140	384.68738194747	12
0	147	389.679851926814	13
0	150	391.171858526975	14
0	157	403.056442825077	15
0	162	409.532247898255	16
0	169	415.041110020699	17
0	185	445.380570239751	18
0	188	459.67594087078	19
0	211	492.528541315806	20
0	218	501.824210221552	21
0	226	521.647745694668	22
0	235	544.939444870789	23
0	243	551.184035288091	24
0	260	576.7903521913	25
0	265	589.760153641641	26
0	272	629.791082812395	27
0	286	673.060556934315	28
0	293	682.672466431597	29
0	294	684.920846553275	30
0	302	713.522176746912	31
0	310	727.327986860444	32
0	318	743.939888695274	33
0	319	746.263863893211	34
0	331	764.125677090932	35
0	336	767.889748172667	36
0	342	784.306130733708	37
0	345	793.49513402748	38
0	369	836.556943393965	39
0	373	848.017319323937	40
0	397	906.503341444275	41
0	408	920.21102139181	42
0	426	968.001326439954	43
0	433	981.749846330605	44
0	442	988.755363114674	45
0	443	989.376735662432	46
0	446	991.306901257731	47
0	447	992.840254013675	48
0	461	1012.31295017335	49
0	483	1080.678929440977	50
0	514	1140.644467925491	51
0	515	1141.529746408559	52
0	532	1210.716406046211	53
0	539	1220.318084433947	54
0	544	1229.460744812865	55
0	560	1266.339802032832	56
0	577	1290.957580446108	57
0	584	1305.023786280195	58
0	596	1330.051774361795	59
0	605	1339.47701734529	60
0	608	1345.582116850991	61
0	611	1352.319495145227	62
0	619	1379.175649749363	63
0	625	1388.829839358956	64
0	637	1439.608056574542	65
0	646	1449.593928326402	66
0	659	1480.297422783648	67
0	662	1484.303306105812	68
0	663	1488.609638985959	69
0	664	1489.820237609547	70
0	667	1495.634591835186	71
0	672	1503.156957006262	72
0	677	1509.277106181674	73
0	680	1515.521322708959	74
0	692	1544.383441935307	75
0	704	1586.891081789517	76
0	705	1586.966164984288	77
0	714	1606.689631588314	78
0	721	1619.284314010108	79
0	722	1620.633934931637	80
0	725	1625.581046408074	81
0	752	1731.624752413724	82
0	763	1747.613273273017	83
0	785	1800.153950906561	84
0	786	1807.063011138163	85
0	787	1810.832965169469	86
0	793	1840.097496699709	87
0	798	1849.465837539069	88
0	804	1854.31911749326	89
0	816	1868.615943597372	90
0	817	1873.828204968845	91
0	824	1884.282965326167	92
0	827	1886.417054226526	93
0	845	1927.194545513855	94
0	883	2022.423069360117	95
0	896	2041.243210624028	96
0	897	2043.055003140996	97
0	913	2057.839237601272	98
0	919	2066.065614443514	99
0	922	2071.858844419469	100
0	929	2082.568308018913	101
0	944	2130.195296331757	102
0	953	2144.791188827102	103
0	956	2152.316124369978	104
0	957	2153.566823179987	105
0	970	2183.392010145757	106
0	984	2205.23350379842	107
0	996	2227.230947549531	108
0	1001	2234.289457834638	109
0	1004	2237.938057398793	110
0	1005	2240.279066237555	111
0	1014	2269.421620336611	112
0	1015	2270.782710480278	113
0	1018	2273.098743067845	114
0	1022	2279.395134297918	115
0	1028	2288.874762334257	116
0	1035	2297.296358424414	117
0	1052	2334.243407629729	118
0	1068	2366.378361419921	119
0	1074	2370.877334167473	120
0	1078	2382.859634337159	121
0	1094	2426.476843444927	122
0	1100	2444.42622127194	123
0	1105	2460.915675778749	124
0	1110	2493.598014883054	125
1	124	353.361448012809	0
1	132	366.90674060042	0
1	133	371.007124813545	0
1	139	381.784833013177	0
1	140	384.68738194747	0
1	144	386.250875507134	0
1	147	389.679851926814	0
1	149	389.749122569849	0
1	150	391.171858526975	0
1	154	399.549588799422	0
1	156	402.504371015353	1
1	157	403.056442825077	1
1	161	408.499009690112	1
1	162	409.532247898255	1
1	169	415.041110020699	0
1	182	443.817232557662	0
1	184	445.367973862082	1
1	185	445.380570239751	1
1	188	459.67594087078	0
1	196	478.003471691353	0
1	204	484.600153220399	1
1	211	492.528541315806	1
1	218	501.824210221552	0
1	225	517.502141464979	0
1	226	521.647745694668	0
1	230	529.042666305749	0
1	235	544.939444870789	0
1	242	549.723407939261	0
1	243	551.184035288091	0
1	251	562.927292449865	0
1	260	576.7903521913	0
1	262	586.270515660759	0
1	265	589.760153641641	0
1	271	626.843884536897	0
1	272	629.791082812395	0
1	277	647.353795303353	0
1	281	662.438482297379	1
1	286	673.060556934315	1
1	292	680.919630399863	1
1	293	682.672466431597	1
1	294	684.920846553275	0
1	301	697.442376960556	0
1	302	713.522176746912	0
1	307	725.763040227324	0
1	310	727.327986860444	0
1	315	738.500469943368	0
1	317	739.177665474985	1
1	318	743.939888695274	1
1	319	746.263863893211	0
1	330	762.526755291277	0
1	331	764.125677090932	0
1	333	765.313687185756	0
1	336	767.889748172667	0
1	341	779.370713826155	0
1	342	784.306130733708	0
1	344	791.075455498199	0
1	345	793.49513402748	0
1	364	825.727435836351	0
1	369	836.556943393965	0
1	372	841.668238793278	0
1	373	848.017319323937	0
1	396	906.230180631313	0
1	397	906.503341444275	0
1	407	918.329453634844	0
1	408	920.21102139181	0
1	417	957.388344174164	0
1	419	957.723820241117	1
1	425	965.1212364791	2
1	426	968.001326439954	2
1	428	970.625671301786	2
1	433	981.749846330605	2
1	437	986.583432109771	2
1	439	987.393290059605	3
1	442	988.755363114674	3
1	443	989.376735662432	2
1	446	991.306901257731	1
1	447	992.840254013675	0
1	460	1008.65887140681	0
1	461	1012.31295017335	0
1	480	1070.155179727889	0
1	483	1080.678929440977	0
1	509	1130.416300279589	0
1	511	1132.048297238397	1
1	514	1140.644467925491	1
1	515	1141.529746408559	0
1	531	1205.642446634233	0
1	532	1210.716406046211	0
1	538	1216.616931884824	0
1	539	1220.318084433947	0
1	543	1228.520457625003	0
1	544	1229.460744812865	0
1	557	1254.734196931696	0
1	560	1266.339802032832	0
1	574	1286.850380159512	0
1	577	1290.957580446108	0
1	583	1302.844015444965	0
1	584	1305.023786280195	0
1	595	1328.909099580252	0
1	596	1330.051774361795	0
1	602	1337.388330083135	0
1	604	1339.233828183082	1
1	605	1339.47701734529	1
1	607	1343.29505004117	1
1	608	1345.582116850991	1
1	611	1352.319495145227	0
1	618	1374.799124051652	0
1	619	1379.175649749363	0
1	622	1387.35074829731	0
1	625	1388.829839358956	0
1	636	1438.672465126625	0
1	637	1439.608056574542	0
1	643	1446.386407934709	0
1	646	1449.593928326402	0
1	650	1465.471776737086	0
1	654	1472.526123282645	1
1	656	1477.260476761024	2
1	658	1478.758750500482	3
1	659	1480.297422783648	3
1	661	1484.290723402252	3
1	662	1484.303306105812	3
1	663	1488.609638985959	2
1	664	1489.820237609547	1
1	666	1490.187265864041	1
1	667	1495.634591835186	1
1	669	1500.847975289427	1
1	672	1503.156957006262	1
1	676	1508.857475936079	1
1	677	1509.277106181674	1
1	680	1515.521322708959	0
1	689	1534.984185702364	0
1	692	1544.383441935307	0
1	701	1584.596546818588	0
1	703	1584.900654196861	1
1	704	1586.891081789517	1
1	705	1586.966164984288	0
1	711	1604.854966012996	0
1	714	1606.689631588314	0
1	716	1608.92861649769	0
1	718	1610.735235706327	1
1	721	1619.284314010108	1
1	722	1620.633934931637	0
1	724	1622.440234149539	0
1	725	1625.581046408074	0
1	749	1725.797566812866	0
1	752	1731.624752413724	0
1	762	1744.043509672546	0
1	763	1747.613273273017	0
1	780	1790.574625413366	0
1	782	1793.295441535686	1
1	784	1796.601928198126	2
1	785	1800.153950906561	2
1	786	1807.063011138163	1
1	787	1810.832965169469	0
1	792	1830.0117169173	0
1	793	1840.097496699709	0
1	797	1848.743132659626	0
1	798	1849.465837539069	0
1	803	1853.658041950659	0
1	804	1854.31911749326	0
1	807	1855.784039861942	0
1	809	1857.679617678275	1
1	816	1868.615943597372	1
1	817	1873.828204968845	0
1	823	1882.457710465602	0
1	824	1884.282965326167	0
1	826	1885.04093721874	0
1	827	1886.417054226526	0
1	844	1925.63764088096	0
1	845	1927.194545513855	0
1	882	2022.200134446936	0
1	883	2022.423069360117	0
1	893	2032.794886553949	0
1	895	2040.625890296416	1
1	896	2041.243210624028	1
1	897	2043.055003140996	0
1	912	2053.878915809292	0
1	913	2057.839237601272	0
1	918	2064.153547375319	0
1	919	2066.065614443514	0
1	921	2068.750220991927	0
1	922	2071.858844419469	0
1	926	2081.78025563606	0
1	929	2082.568308018913	0
1	943	2126.915847722145	0
1	944	2130.195296331757	0
1	948	2137.731399979001	0
1	950	2139.643418030477	1
1	953	2144.791188827102	1
1	955	2146.629260054248	1
1	956	2152.316124369978	1
1	957	2153.566823179987	0
1	969	2179.771093233548	0
1	970	2183.392010145757	0
1	979	2196.627595088498	0
1	984	2205.23350379842	0
1	991	2216.971440694834	0
1	995	2226.000127713074	1
1	996	2227.230947549531	1
1	998	2228.447023846671	1
1	1000	2234.20252635727	2
1	1001	2234.289457834638	2
1	1003	2237.414483346714	2
1	1004	2237.938057398793	2
1	1005	2240.279066237555	1
1	1007	2249.077865559208	1
1	1013	2259.534430219018	2
1	1014	2269.421620336611	2
1	1015	2270.782710480278	1
1	1018	2273.098743067845	0
1	1021	2277.923741025562	0
1	1022	2279.395134297918	0
1	1027	2288.666116345938	0
1	1028	2288.874762334257	0
1	1034	2296.659481833168	0
1	1035	2297.296358424414	0
1	1051	2330.015315462675	0
1	1052	2334.243407629729	0
1	1059	2350.915731692075	0
1	1068	2366.378361419921	0
1	1073	2367.773846882979	0
1	1074	2370.877334167473	0
1	1077	2378.574598955318	0
1	1078	2382.859634337159	0
1	1093	2425.11642804679	0
1	1094	2426.476843444927	0
1	1097	2431.98697731575	0
1	1100	2444.42622127194	0
1	1104	2458.246234532336	0
1	1105	2460.915675778749	0
1	1109	2481.626538504285	0
1	1110	2493.598014883054	0
2	124	353.361448012809	5.080829653901
2	133	371.007124813545	4.100384213125
2	140	384.68738194747	2.902548934293
2	147	389.679851926814	3.42897641968
2	150	391.171858526975	1.422735957126
2	157	403.056442825077	3.506854025655
2	162	409.532247898255	7.027876882902
2	169	415.041110020699	6.542100330587
2	185	445.380570239751	1.563337682089
2	188	459.67594087078	14.307967008698
2	211	492.528541315806	14.525069624453
2	218	501.824210221552	17.224057001153
2	226	521.647745694668	4.145604229689
2	235	544.939444870789	15.89677856504
2	243	551.184035288091	1.46062734883
2	260	576.7903521913	13.863059741435
2	265	589.760153641641	3.489637980882
2	272	629.791082812395	2.947198275498
2	286	673.060556934315	25.706761630962
2	293	682.672466431597	20.233984134218
2	294	684.920846553275	4.001216153412
2	302	713.522176746912	16.079799786356
2	310	727.327986860444	1.56494663312
2	318	743.939888695274	5.439418751906
2	319	746.263863893211	7.086198418226
2	331	764.125677090932	1.598921799655
2	336	767.889748172667	2.576060986911
2	342	784.306130733708	4.935416907553
2	345	793.49513402748	2.419678529281
2	369	836.556943393965	10.829507557614
2	373	848.017319323937	6.349080530659
2	397	906.503341444275	0.273160812962
2	408	920.21102139181	1.881567756966
2	426	968.001326439954	10.61298226579
2	433	981.749846330605	24.026026089488
2	442	988.755363114674	23.634126635574
2	443	989.376735662432	18.751064360646
2	446	991.306901257731	4.72346914796
2	447	992.840254013675	5.44696395407
2	461	1012.31295017335	3.65407876654
2	483	1080.678929440977	10.523749713088
2	514	1140.644467925491	10.228167645902
2	515	1141.529746408559	9.481449170162
2	532	1210.716406046211	5.073959411978
2	539	1220.318084433947	3.701152549123
2	544	1229.460744812865	0.940287187862
2	560	1266.339802032832	11.605605101136
2	577	1290.957580446108	4.107200286596
2	584	1305.023786280195	2.17977083523
2	596	1330.051774361795	1.142674781543
2	605	1339.47701734529	2.088687262155
2	608	1345.582116850991	6.348288667909
2	611	1352.319495145227	9.024445104057
2	619	1379.175649749363	4.376525697711
2	625	1388.829839358956	1.479091061646
2	637	1439.608056574542	0.935591447917
2	646	1449.593928326402	3.207520391693
2	659	1480.297422783648	14.825646046562
2	662	1484.303306105812	11.777182823167
2	663	1488.609638985959	11.349162224935
2	664	1489.820237609547	11.061487109065
2	667	1495.634591835186	11.343868432934
2	672	1503.156957006262	12.969691142221
2	677	1509.277106181674	8.429130892247
2	680	1515.521322708959	6.66384677288
2	692	1544.383441935307	9.399256232943
2	704	1586.891081789517	2.294534970929
2	705	1586.966164984288	2.065510787427
2	714	1606.689631588314	1.834665575318
2	721	1619.284314010108	10.355697512418
2	722	1620.633934931637	9.89869922531
2	725	1625.581046408074	3.140812258535
2	752	1731.624752413724	5.827185600858
2	763	1747.613273273017	3.569763600471
2	785	1800.153950906561	9.579325493195
2	786	1807.063011138163	13.767569602477
2	787	1810.832965169469	14.231036971343
2	793	1840.097496699709	10.085779782409
2	798	1849.465837539069	0.722704879443
2	804	1854.31911749326	0.661075542601
2	816	1868.615943597372	12.83190373543
2	817	1873.828204968845	16.14858729057
2	824	1884.282965326167	1.825254860565
2	827	1886.417054226526	1.376117007786
2	845	1927.194545513855	1.556904632895
2	883	2022.423069360117	0.222934913181
2	896	2041.243210624028	8.448324070079
2	897	2043.055003140996	2.42911284458
2	913	2057.839237601272	3.96032179198
2	919	2066.065614443514	1.912067068195
2	922	2071.858844419469	3.108623427542
2	929	2082.568308018913	0.788052382853
2	944	2130.195296331757	3.279448609612
2	953	2144.791188827102	7.059788848101
2	956	2152.316124369978	12.672706339501
2	957	2153.566823179987	6.937563125739
2	970	2183.392010145757	3.620916912209
2	984	2205.23350379842	8.605908709922
2	996	2227.230947549531	10.259506854697
2	1001	2234.289457834638	8.289330121564
2	1004	2237.938057398793	9.491033552122
2	1005	2240.279066237555	6.076539880285
2	1014	2269.421620336611	32.007136989897
2	1015	2270.782710480278	21.70484492107
2	1018	2273.098743067845	13.564312848827
2	1022	2279.395134297918	1.471393272356
2	1028	2288.874762334257	0.208645988319
2	1035	2297.296358424414	0.636876591246
2	1052	2334.243407629729	4.228092167054
2	1068	2366.378361419921	15.462629727846
2	1074	2370.877334167473	3.103487284494
2	1078	2382.859634337159	4.285035381841
2	1094	2426.476843444927	1.360415398137
2	1100	2444.42622127194	12.43924395619
2	1105	2460.915675778749	2.669441246413
2	1110	2493.598014883054	11.971476378769
3	124	353.361448012809	23.371458860493
3	127	361.90757765173	31.893900716578
3	128	363.4416757455	17.583533165682
3	133	371.007124813545	22.726506454637
3	140	384.68738194747	36.266687675947
3	147	389.679851926814	30.810036028321
3	150	391.171858526975	27.596513045509
3	151	397.134839477451	30.228098877031
3	152	397.500468805872	25.605421983715
3	169	415.041110020699	37.117682744112
3	172	423.58536770919	41.800534696013
3	173	430.502376036862	45.703000907896
3	178	438.324381234078	52.073505726944
3	188	459.67594087078	72.051886346487
3	218	501.824210221552	112.0750876517
3	219	502.519707888369	102.97011908895
3	226	521.647745694668	117.93699043412
3	235	544.939444870789	135.06448378141
3	238	545.307565689496	134.22115810083
3	239	547.220569896504	133.7717860673
3	240	548.234228943043	125.57407149213
3	243	551.184035288091	117.41027947716
3	244	552.055271868468	115.52054207046
3	247	553.636418012908	111.09109907968
3	248	556.812296455213	112.99506389755
3	249	557.70661468461	106.20660529789
3	260	576.7903521913	116.3086635199
3	265	589.760153641641	117.42983048997
3	266	592.931235023862	116.64063279245
3	267	617.534005672679	139.53053398133
3	268	617.959293792224	136.38022772388
3	269	624.415706841788	140.30073599478
3	272	629.791082812395	145.38387937534
3	273	636.286889598748	149.45109441153
3	274	640.843136207041	150.32380991453
3	275	646.276835690557	153.87389375591
3	294	684.920846553275	188.58737194255
3	299	692.466343068923	195.90346472128
3	302	713.522176746912	212.82298001448
3	303	717.938904157697	207.32231608464
3	310	727.327986860444	210.9248180029
3	311	733.846448201356	216.34430673638
3	312	736.941708904836	212.95820221368
3	313	738.493750518135	209.45108421239
3	319	746.263863893211	205.15572396363
3	324	752.361486713659	208.46424637214
3	325	755.547966820297	210.30129565827
3	328	762.18945807397	212.46605013471
3	331	764.125677090932	211.43821950407
3	336	767.889748172667	204.9624557228
3	337	773.96424786799	207.15471999314
3	338	777.136969758786	208.41308028006
3	339	777.423411132114	208.12436236461
3	342	784.306130733708	210.82255483119
3	345	793.49513402748	207.22461836672
3	346	796.988603571599	207.38909470108
3	349	799.957605503127	173.11372096623
3	350	800.712071794273	153.35827649092
3	351	801.251754336126	148.57233529203
3	354	808.408592011426	144.55812188882
3	355	810.856317601188	144.3605015839
3	356	810.991575060457	136.81309816538
3	357	811.770438832281	137.33450728026
3	360	823.251103322833	137.37905972312
3	369	836.556943393965	149.05108441305
3	370	840.190037636556	142.747660676
3	373	848.017319323937	128.84198539286
3	374	860.559860542847	134.79682031552
3	375	864.59058289998	138.81455570041
3	376	864.615855694813	126.11538575145
3	377	872.414262216043	124.73461678627
3	378	873.736214365188	121.69068873673
3	381	878.117688883502	122.48122325457
3	382	878.416285570006	115.88953027873
3	387	891.970920709181	126.65723352342
3	388	898.085356017563	132.23878620743
3	391	900.960644128087	121.58993030193
3	394	905.053698525636	113.97824302744
3	397	906.503341444275	108.57368533566
3	408	920.21102139181	116.84420787941
3	409	925.577061778752	103.55520752889
3	410	935.721886520507	111.62967076761
3	413	955.051112475805	129.32367663945
3	447	992.840254013675	166.96996203032
3	458	1006.343817790781	176.13851116791
3	461	1012.31295017335	170.64471138007
3	464	1026.94361214968	150.44708254771
3	467	1033.066108074685	149.98711241562
3	470	1042.828492961434	158.71426796885
3	473	1061.216715046174	160.90713762267
3	476	1065.595084713899	162.90905616119
3	483	1080.678929440977	174.44874880966
3	488	1088.940188781925	181.09873068862
3	489	1097.459610546958	189.2361267832
3	496	1105.533956674687	191.54806017864
3	499	1105.810393355586	190.29917358706
3	500	1107.270209718415	188.94075608357
3	503	1120.870112731102	184.71993804705
3	506	1128.839621278551	171.4890983861
3	507	1129.468012029885	172.07966785572
3	515	1141.529746408559	181.99218003335
3	516	1145.330532535172	184.3155109857
3	517	1150.935997201373	177.12982621342
3	520	1167.257100478946	192.92331915585
3	521	1169.603723412618	183.87059201645
3	528	1189.927278902129	202.50879277537
3	529	1205.050746344203	215.33280190211
3	532	1210.716406046211	214.08104484333
3	539	1220.318084433947	222.81610697411
3	540	1226.401836475325	225.78745574141
3	541	1228.492443294296	225.55490387634
3	544	1229.460744812865	226.32083211539
3	549	1231.978286249945	223.31941484314
3	554	1246.255991623471	222.80238896959
3	555	1252.450975716182	224.60687037448
3	560	1266.339802032832	225.87433721623
3	561	1269.157277656278	214.69645034946
3	566	1272.026640149261	206.55052933275
3	569	1276.540630689357	207.76367927374
3	572	1286.620921757968	216.46574203008
3	577	1290.957580446108	217.06772712439
3	578	1295.056076208475	208.8323780265
3	581	1301.738538875538	214.71028735472
3	584	1305.023786280195	204.7120574444
3	585	1308.915754775717	205.97862837331
3	588	1315.86856800899	212.57239929341
3	591	1317.36209740579	211.81879001047
3	596	1330.051774361795	210.82098538507
3	597	1330.203277581791	209.20368572873
3	598	1333.069917529431	202.65361724984
3	611	1352.319495145227	219.75932258027
3	616	1367.821828650855	205.86148524551
3	619	1379.175649749363	201.97965235842
3	620	1386.370196697881	206.28878022308
3	625	1388.829839358956	201.21217382159
3	626	1393.892438920944	188.24999228671
3	627	1420.300627212059	209.36772372199
3	630	1421.903548741129	206.43422796492
3	631	1423.7600869601	207.14315507528
3	632	1426.656412934673	198.13595530967
3	637	1439.608056574542	209.3952221043
3	638	1439.89114500534	208.32358199752
3	641	1444.809005310659	211.65205641529
3	646	1449.593928326402	211.6559423986
3	647	1456.950518736052	202.21632180436
3	648	1460.942988287813	201.42618873119
3	680	1515.521322708959	244.98077405012
3	681	1519.245674377345	247.92487522535
3	692	1544.383441935307	270.13002057469
3	693	1545.707356724822	260.55456665108
3	696	1558.548053813194	271.69767365368
3	697	1560.534987286508	271.27938370776
3	698	1564.253867328535	264.99693392282
3	699	1582.436673197295	279.59265775233
3	705	1586.966164984288	274.51709776858
3	706	1590.847581619514	274.56808174871
3	707	1596.989641433292	269.19502617452
3	708	1599.091451220874	270.18235164062
3	709	1603.428786185093	269.64278833207
3	714	1606.689631588314	269.30130150518
3	722	1620.633934931637	272.25078620789
3	725	1625.581046408074	261.73890486274
3	732	1650.103470171602	282.29061464691
3	733	1651.460448066467	276.66132401482
3	734	1653.749872393875	266.39912409657
3	735	1657.292887148208	269.14827206153
3	736	1657.811203140093	236.85919600097
3	739	1663.25058058396	229.840483279
3	742	1671.389030894586	232.71656576796
3	743	1691.741594507319	250.24214046378
3	744	1694.697404188972	248.31099625426
3	745	1700.677621027726	252.24684486429
3	746	1705.135021762182	239.6632450251
3	747	1723.785089153241	256.68534987323
3	752	1731.624752413724	230.35779234606
3	759	1742.265424804509	235.07523083042
3	760	1743.559424692935	232.2957660165
3	763	1747.613273273017	227.37864586029
3	764	1749.766349010389	226.38485244674
3	765	1752.503130133836	221.82286681121
3	770	1755.078587743047	220.09440204068
3	771	1768.136170961718	229.20287963263
3	772	1769.171201021397	213.47941344255
3	775	1781.251851319844	196.65530450126
3	778	1789.768657130744	184.91369111775
3	787	1810.832965169469	205.1271605021
3	788	1814.821918078609	205.89330158092
3	793	1840.097496699709	221.08116306037
3	794	1843.635894124426	221.19565997489
3	795	1847.172539008839	206.06164473582
3	798	1849.465837539069	202.85575007591
3	801	1853.489076819627	205.54584402183
3	804	1854.31911749326	191.48860929826
3	805	1854.823156482258	187.12327675085
3	817	1873.828204968845	148.03063815598
3	818	1878.815864247119	151.75582966156
3	819	1879.925725483698	147.34985175157
3	820	1880.707368986569	140.57608489063
3	821	1881.506639893114	139.41822343483
3	824	1884.282965326167	140.23945565362
3	827	1886.417054226526	131.70382803913
3	828	1891.098616690189	136.27342474053
3	833	1898.747318524274	125.632013764
3	834	1899.85439817596	111.96901509601
3	835	1901.357017073358	110.78239165999
3	836	1904.267546500153	84.509994963597
3	837	1905.145985047112	75.134268129812
3	838	1907.720665662674	58.977533003048
3	845	1927.194545513855	77.242530151201
3	846	1928.103868951126	74.445827000467
3	849	1939.114701094031	83.330661232089
3	850	1941.547687679423	81.576885255593
3	855	1954.586321368694	91.679443242072
3	856	1960.138315202352	97.187652340814
3	859	1964.827957447172	82.37024698157
3	860	1966.047649740012	81.006712521272
3	861	1970.521159509626	75.226902907397
3	862	1973.041374009266	74.785378059974
3	863	1976.1088791893	62.989325457904
3	864	1979.357683690357	62.410077117984
3	865	1980.387359729458	54.749718848498
3	868	1992.797146244002	57.851344388325
3	871	1999.509735218073	54.709318185336
3	880	2017.404616766632	65.860885161616
3	883	2022.423069360117	60.232421788062
3	897	2043.055003140996	53.111664868141
3	902	2046.7134350001	50.829098963892
3	913	2057.839237601272	57.375656696052
3	914	2060.935441531669	57.685248483184
3	919	2066.065614443514	55.158174971526
3	922	2071.858844419469	54.592600706491
3	923	2075.877644797087	53.677510350151
3	924	2077.376806391681	51.42126261165
3	929	2082.568308018913	56.318118764322
3	932	2087.13782510704	58.142881670454
3	933	2089.105029823115	59.899496422966
3	934	2089.525169458174	56.730282904225
3	935	2106.382195336622	61.812214329648
3	940	2114.955653089614	69.340555224163
3	941	2118.127068656643	70.508741966437
3	944	2130.195296331757	82.520201581095
3	945	2133.024867501037	83.746360878564
3	946	2135.14040387178	83.119340690945
3	957	2153.566823179987	99.687907370695
3	958	2156.2653911377	94.332340674531
3	965	2167.988602417519	103.8350550422
3	970	2183.392010145757	114.64178915383
3	971	2185.966555562576	104.18629992652
3	974	2189.632406661778	107.66820730648
3	977	2196.59432627254	112.59725042122
3	984	2205.23350379842	97.388922316291
3	985	2207.89832000072	96.359625943706
3	1018	2273.098743067845	146.1828953457
3	1019	2275.708491082874	137.97709110387
3	1022	2279.395134297918	135.69336891047
3	1025	2287.248167265823	124.32484905527
3	1028	2288.874762334257	124.79674420457
3	1035	2297.296358424414	132.33025100123
3	1038	2298.62544429315	121.48608008278
3	1039	2307.405482346355	127.63438911281
3	1040	2310.167874696683	124.19595129826
3	1043	2314.647752197781	123.25509986859
3	1044	2315.292722880716	118.66512779222
3	1047	2323.489554016961	122.89979655446
3	1048	2328.446587995931	126.45558648092
3	1049	2329.649902202629	118.83607846269
3	1052	2334.243407629729	118.57546791041
3	1053	2342.042426111766	125.07098541693
3	1056	2348.321709277894	125.53617390718
3	1057	2348.990122019112	99.896310160906
3	1068	2366.378361419921	114.1682772061
3	1069	2366.40719409963	95.55544293496
3	1074	2370.877334167473	92.953593141911
3	1075	2374.693734594457	90.627670314408
3	1078	2382.859634337159	94.193517991221
3	1081	2390.462796514781	101.34829623991
3	1082	2393.943664363606	101.18906424789
3	1083	2394.515546818226	97.856064985058
3	1084	2396.353298798864	98.476420356446
3	1085	2407.716817840796	93.857404117526
3	1086	2412.108234023995	92.491766483119
3	1087	2414.699939301285	84.68462383861
3	1090	2422.712322696615	78.304700713094
3	1091	2422.888226206793	71.972494514718
3	1094	2426.476843444927	72.223258258094
3	1095	2428.35742467012	68.24088750709
3	1100	2444.42622127194	81.181278528224
3	1101	2446.900143620951	81.898349970814
3	1102	2448.144175192753	81.059341462251
3	1105	2460.915675778749	93.14182889577
3	1110	2493.598014883054	115.02341592774
3	1111	2495.739789503727	106.04130105072
4	126	358.869815898493	6
4	130	363.575345481466	5
4	135	371.895046822157	6
4	137	377.923427276587	7
4	142	384.799375128966	8
4	146	387.624054524293	9
4	159	403.710755260551	8
4	164	409.874961089375	9
4	166	411.086407588665	10
4	168	413.4487838292	11
4	171	422.660157450908	12
4	175	433.773755810936	11
4	177	436.534729798009	12
4	180	442.545318933231	12
4	187	451.500009386721	13
4	190	460.481688671399	14
4	192	472.330323151671	15
4	194	476.290602231417	16
4	198	481.579066068344	17
4	200	484.114970847012	18
4	202	484.407203437057	19
4	206	486.835795187214	20
4	208	490.519326292506	21
4	210	492.402941934648	22
4	213	496.333474610729	23
4	215	496.562878347646	24
4	217	500.699196732436	25
4	221	510.616588073054	25
4	223	516.403168857546	26
4	228	523.983506691155	27
4	232	541.108139929585	28
4	234	543.897240341514	29
4	237	545.246671162031	30
4	246	552.687457586862	27
4	253	566.809527874848	25
4	255	568.72388947873	26
4	257	569.299048767503	27
4	259	573.483575902518	28
4	264	589.599508870518	29
4	279	652.679419044099	23
4	283	663.850470122602	24
4	285	666.495816017287	25
4	288	674.178476895076	26
4	290	674.435931552021	27
4	296	685.87204359971	28
4	298	687.505858980912	29
4	305	719.175333931076	28
4	309	725.776027199568	29
4	321	747.679645429777	27
4	323	752.045525628458	28
4	327	755.63646562893	27
4	335	765.846569810133	27
4	348	797.929656108619	24
4	353	803.366813512402	22
4	359	822.021854249861	19
4	362	824.092215752893	19
4	366	825.870291983351	20
4	368	830.205306622871	21
4	380	876.496529601967	16
4	384	883.078995659064	15
4	386	884.114224992584	16
4	390	900.309577423501	15
4	393	902.686028552706	15
4	399	907.841458093308	15
4	401	908.22348376376	16
4	403	913.985896496045	17
4	405	915.511219768531	18
4	412	936.150174684048	17
4	415	957.350522892456	17
4	421	959.537566375211	18
4	423	961.015021549476	19
4	430	973.806170987952	20
4	432	974.3337813231	21
4	435	985.733131396166	22
4	441	987.418486126761	23
4	445	989.71794444209	24
4	449	996.635361202879	25
4	451	997.50197745984	26
4	453	1000.614380733914	27
4	455	1002.93753941796	28
4	457	1003.139912697479	29
4	463	1023.453602653883	29
4	466	1027.844105341699	29
4	469	1040.4654648166	29
4	472	1054.46082730682	29
4	475	1065.476110816513	29
4	478	1068.776951415614	29
4	482	1073.889853321717	30
4	485	1086.223698181971	31
4	487	1087.028251520815	32
4	491	1100.311728835791	31
4	493	1102.937126402404	32
4	495	1103.296168715579	33
4	498	1105.543307395317	33
4	502	1119.230788976723	32
4	505	1120.999591853058	32
4	513	1132.560172564953	31
4	519	1161.96034340535	30
4	523	1177.195997390942	29
4	525	1180.081416474803	30
4	527	1187.617665537362	31
4	534	1210.932903490067	30
4	536	1215.469320776207	31
4	546	1230.212834470246	30
4	548	1231.567563007815	31
4	551	1233.156948895368	31
4	553	1237.937985927801	32
4	559	1259.516799556624	31
4	563	1270.540548658841	31
4	565	1271.320799151996	32
4	568	1274.253421360614	32
4	571	1285.152790073744	32
4	576	1289.255603578751	32
4	580	1299.256933405716	32
4	587	1312.449067215708	31
4	590	1316.279499870803	31
4	593	1327.794615258772	31
4	600	1333.785997853023	30
4	610	1348.383148723751	31
4	613	1363.842141545331	32
4	615	1367.812855524695	33
4	624	1388.144615086676	32
4	629	1420.952007139121	31
4	634	1433.410097304958	29
4	640	1441.499454043538	29
4	645	1448.430776163437	29
4	652	1467.099739280006	28
4	671	1501.266960067661	29
4	674	1507.19019397409	30
4	679	1511.263658676434	31
4	683	1520.234627412726	31
4	685	1523.381496563648	32
4	687	1530.680263322624	33
4	691	1538.93329132909	34
4	695	1555.691787578848	34
4	713	1605.705804667371	27
4	720	1619.016333639338	28
4	727	1641.110894273024	29
4	729	1646.610087463157	30
4	731	1647.9432327978	31
4	738	1662.830508195001	27
4	741	1667.699879731407	27
4	751	1727.060034585561	22
4	754	1732.575873732124	23
4	756	1740.131284095942	24
4	758	1742.088416458281	25
4	767	1754.713226187395	22
4	769	1754.825191949659	23
4	774	1773.115304760274	21
4	777	1787.885383079952	21
4	790	1819.757551536556	20
4	800	1849.952015362654	19
4	811	1859.97080242383	18
4	813	1862.906878126622	19
4	815	1862.950662861538	20
4	830	1895.294256602229	16
4	832	1898.255995949292	17
4	840	1913.119553731396	12
4	842	1916.947606572373	13
4	848	1934.945801855677	13
4	852	1944.800417032737	12
4	854	1951.543731605016	13
4	858	1962.190647572055	12
4	867	1989.943338272855	6
4	870	1995.884336036208	6
4	873	2000.46358090522	6
4	875	2003.250193048485	7
4	877	2010.907439471988	8
4	879	2017.266243712978	9
4	885	2025.955543780031	9
4	887	2026.250189254591	10
4	889	2028.994943436586	11
4	891	2029.205533400149	12
4	899	2044.569981006974	13
4	901	2045.615097865451	14
4	904	2047.618326690206	14
4	906	2047.675094750662	15
4	908	2049.278506622473	16
4	910	2052.021063180835	17
4	916	2061.933050463169	17
4	928	2081.964199355301	16
4	931	2083.997075851319	17
4	937	2107.844581482129	14
4	939	2111.538694057014	15
4	952	2143.701765387448	12
4	960	2162.923318210554	12
4	962	2164.078018129687	13
4	964	2164.966107423185	14
4	967	2177.139364210375	14
4	973	2185.971923398421	14
4	976	2191.392652329195	14
4	981	2200.589757462497	14
4	983	2201.991001515014	15
4	987	2210.81382373994	15
4	989	2215.667939719317	16
4	993	2222.785535370716	17
4	1009	2249.093811858206	18
4	1011	2252.210084213817	19
4	1017	2270.85175116467	20
4	1024	2284.066064280049	20
4	1030	2289.114500274871	20
4	1032	2292.754600115712	21
4	1037	2297.876878442418	22
4	1042	2313.85941372327	20
4	1046	2319.616467540876	19
4	1055	2344.407621983521	16
4	1061	2354.253585186833	15
4	1063	2360.11653716303	16
4	1065	2363.244942743716	17
4	1067	2365.001793650137	18
4	1071	2367.084833730502	18
4	1080	2389.69848845301	18
4	1089	2415.469235353027	12
4	1099	2442.832758320266	10
4	1107	2470.443226876066	9
4	1113	2498.157739472885	9
5	126	358.869815898493	5
5	127	361.90757765173	5
5	128	363.4416757455	4
5	130	363.575345481466	4
5	135	371.895046822157	5
5	137	377.923427276587	6
5	142	384.799375128966	7
5	146	387.624054524293	8
5	151	397.134839477451	8
5	152	397.500468805872	7
5	159	403.710755260551	7
5	164	409.874961089375	8
5	166	411.086407588665	9
5	168	413.4487838292	10
5	171	422.660157450908	11
5	172	423.58536770919	11
5	173	430.502376036862	10
5	175	433.773755810936	10
5	177	436.534729798009	11
5	178	438.324381234078	11
5	180	442.545318933231	11
5	187	451.500009386721	12
5	190	460.481688671399	13
5	192	472.330323151671	14
5	194	476.290602231417	15
5	198	481.579066068344	16
5	200	484.114970847012	17
5	202	484.407203437057	18
5	206	486.835795187214	19
5	208	490.519326292506	20
5	210	492.402941934648	21
5	213	496.333474610729	22
5	215	496.562878347646	23
5	217	500.699196732436	24
5	219	502.519707888369	24
5	221	510.616588073054	24
5	223	516.403168857546	25
5	228	523.983506691155	26
5	232	541.108139929585	27
5	234	543.897240341514	28
5	237	545.246671162031	29
5	238	545.307565689496	29
5	239	547.220569896504	28
5	240	548.234228943043	27
5	244	552.055271868468	26
5	246	552.687457586862	26
5	247	553.636418012908	26
5	248	556.812296455213	25
5	249	557.70661468461	24
5	253	566.809527874848	24
5	255	568.72388947873	25
5	257	569.299048767503	26
5	259	573.483575902518	27
5	264	589.599508870518	28
5	266	592.931235023862	28
5	267	617.534005672679	27
5	268	617.959293792224	26
5	269	624.415706841788	25
5	273	636.286889598748	24
5	274	640.843136207041	23
5	275	646.276835690557	22
5	279	652.679419044099	22
5	283	663.850470122602	23
5	285	666.495816017287	24
5	288	674.178476895076	25
5	290	674.435931552021	26
5	296	685.87204359971	27
5	298	687.505858980912	28
5	299	692.466343068923	28
5	303	717.938904157697	27
5	305	719.175333931076	27
5	309	725.776027199568	28
5	311	733.846448201356	28
5	312	736.941708904836	27
5	313	738.493750518135	26
5	321	747.679645429777	26
5	323	752.045525628458	27
5	324	752.361486713659	27
5	325	755.547966820297	26
5	327	755.63646562893	26
5	328	762.18945807397	26
5	335	765.846569810133	26
5	337	773.96424786799	26
5	338	777.136969758786	25
5	339	777.423411132114	24
5	346	796.988603571599	23
5	348	797.929656108619	23
5	349	799.957605503127	23
5	350	800.712071794273	22
5	351	801.251754336126	21
5	353	803.366813512402	21
5	354	808.408592011426	21
5	355	810.856317601188	20
5	356	810.991575060457	19
5	357	811.770438832281	18
5	359	822.021854249861	18
5	360	823.251103322833	18
5	362	824.092215752893	18
5	366	825.870291983351	19
5	368	830.205306622871	20
5	370	840.190037636556	20
5	374	860.559860542847	19
5	375	864.59058289998	18
5	376	864.615855694813	17
5	377	872.414262216043	16
5	378	873.736214365188	15
5	380	876.496529601967	15
5	381	878.117688883502	15
5	382	878.416285570006	14
5	384	883.078995659064	14
5	386	884.114224992584	15
5	387	891.970920709181	15
5	388	898.085356017563	14
5	390	900.309577423501	14
5	391	900.960644128087	14
5	393	902.686028552706	14
5	394	905.053698525636	14
5	399	907.841458093308	14
5	401	908.22348376376	15
5	403	913.985896496045	16
5	405	915.511219768531	17
5	409	925.577061778752	17
5	410	935.721886520507	16
5	412	936.150174684048	16
5	413	955.051112475805	16
5	415	957.350522892456	16
5	421	959.537566375211	17
5	423	961.015021549476	18
5	430	973.806170987952	19
5	432	974.3337813231	20
5	435	985.733131396166	21
5	441	987.418486126761	22
5	445	989.71794444209	23
5	449	996.635361202879	24
5	451	997.50197745984	25
5	453	1000.614380733914	26
5	455	1002.93753941796	27
5	457	1003.139912697479	28
5	458	1006.343817790781	28
5	463	1023.453602653883	28
5	464	1026.94361214968	28
5	466	1027.844105341699	28
5	467	1033.066108074685	28
5	469	1040.4654648166	28
5	470	1042.828492961434	28
5	472	1054.46082730682	28
5	473	1061.216715046174	28
5	475	1065.476110816513	28
5	476	1065.595084713899	28
5	478	1068.776951415614	28
5	482	1073.889853321717	29
5	485	1086.223698181971	30
5	487	1087.028251520815	31
5	488	1088.940188781925	31
5	489	1097.459610546958	30
5	491	1100.311728835791	30
5	493	1102.937126402404	31
5	495	1103.296168715579	32
5	496	1105.533956674687	32
5	498	1105.543307395317	32
5	499	1105.810393355586	32
5	500	1107.270209718415	31
5	502	1119.230788976723	31
5	503	1120.870112731102	31
5	505	1120.999591853058	31
5	506	1128.839621278551	31
5	507	1129.468012029885	30
5	513	1132.560172564953	30
5	516	1145.330532535172	30
5	517	1150.935997201373	29
5	519	1161.96034340535	29
5	520	1167.257100478946	29
5	521	1169.603723412618	28
5	523	1177.195997390942	28
5	525	1180.081416474803	29
5	527	1187.617665537362	30
5	528	1189.927278902129	30
5	529	1205.050746344203	29
5	534	1210.932903490067	29
5	536	1215.469320776207	30
5	540	1226.401836475325	30
5	541	1228.492443294296	29
5	546	1230.212834470246	29
5	548	1231.567563007815	30
5	549	1231.978286249945	30
5	551	1233.156948895368	30
5	553	1237.937985927801	31
5	554	1246.255991623471	31
5	555	1252.450975716182	30
5	559	1259.516799556624	30
5	561	1269.157277656278	30
5	563	1270.540548658841	30
5	565	1271.320799151996	31
5	566	1272.026640149261	31
5	568	1274.253421360614	31
5	569	1276.540630689357	31
5	571	1285.152790073744	31
5	572	1286.620921757968	31
5	576	1289.255603578751	31
5	578	1295.056076208475	31
5	580	1299.256933405716	31
5	581	1301.738538875538	31
5	585	1308.915754775717	30
5	587	1312.449067215708	30
5	588	1315.86856800899	30
5	590	1316.279499870803	30
5	591	1317.36209740579	30
5	593	1327.794615258772	30
5	597	1330.203277581791	30
5	598	1333.069917529431	29
5	600	1333.785997853023	29
5	610	1348.383148723751	30
5	613	1363.842141545331	31
5	615	1367.812855524695	32
5	616	1367.821828650855	32
5	620	1386.370196697881	31
5	624	1388.144615086676	31
5	626	1393.892438920944	31
5	627	1420.300627212059	30
5	629	1420.952007139121	30
5	630	1421.903548741129	30
5	631	1423.7600869601	29
5	632	1426.656412934673	28
5	634	1433.410097304958	28
5	638	1439.89114500534	28
5	640	1441.499454043538	28
5	641	1444.809005310659	28
5	645	1448.430776163437	28
5	647	1456.950518736052	28
5	648	1460.942988287813	27
5	652	1467.099739280006	27
5	671	1501.266960067661	28
5	674	1507.19019397409	29
5	679	1511.263658676434	30
5	681	1519.245674377345	30
5	683	1520.234627412726	30
5	685	1523.381496563648	31
5	687	1530.680263322624	32
5	691	1538.93329132909	33
5	693	1545.707356724822	33
5	695	1555.691787578848	33
5	696	1558.548053813194	33
5	697	1560.534987286508	32
5	698	1564.253867328535	31
5	699	1582.436673197295	30
5	706	1590.847581619514	29
5	707	1596.989641433292	28
5	708	1599.091451220874	27
5	709	1603.428786185093	26
5	713	1605.705804667371	26
5	720	1619.016333639338	27
5	727	1641.110894273024	28
5	729	1646.610087463157	29
5	731	1647.9432327978	30
5	732	1650.103470171602	30
5	733	1651.460448066467	29
5	734	1653.749872393875	28
5	735	1657.292887148208	27
5	736	1657.811203140093	26
5	738	1662.830508195001	26
5	739	1663.25058058396	26
5	741	1667.699879731407	26
5	742	1671.389030894586	26
5	743	1691.741594507319	25
5	744	1694.697404188972	24
5	745	1700.677621027726	23
5	746	1705.135021762182	22
5	747	1723.785089153241	21
5	751	1727.060034585561	21
5	754	1732.575873732124	22
5	756	1740.131284095942	23
5	758	1742.088416458281	24
5	759	1742.265424804509	24
5	760	1743.559424692935	23
5	764	1749.766349010389	22
5	765	1752.503130133836	21
5	767	1754.713226187395	21
5	769	1754.825191949659	22
5	770	1755.078587743047	22
5	771	1768.136170961718	21
5	772	1769.171201021397	20
5	774	1773.115304760274	20
5	775	1781.251851319844	20
5	777	1787.885383079952	20
5	778	1789.768657130744	20
5	788	1814.821918078609	19
5	790	1819.757551536556	19
5	794	1843.635894124426	19
5	795	1847.172539008839	18
5	800	1849.952015362654	18
5	801	1853.489076819627	18
5	805	1854.823156482258	17
5	811	1859.97080242383	17
5	813	1862.906878126622	18
5	815	1862.950662861538	19
5	818	1878.815864247119	19
5	819	1879.925725483698	18
5	820	1880.707368986569	17
5	821	1881.506639893114	16
5	828	1891.098616690189	15
5	830	1895.294256602229	15
5	832	1898.255995949292	16
5	833	1898.747318524274	16
5	834	1899.85439817596	15
5	835	1901.357017073358	14
5	836	1904.267546500153	13
5	837	1905.145985047112	12
5	838	1907.720665662674	11
5	840	1913.119553731396	11
5	842	1916.947606572373	12
5	846	1928.103868951126	12
5	848	1934.945801855677	12
5	849	1939.114701094031	12
5	850	1941.547687679423	11
5	852	1944.800417032737	11
5	854	1951.543731605016	12
5	855	1954.586321368694	12
5	856	1960.138315202352	11
5	858	1962.190647572055	11
5	859	1964.827957447172	11
5	860	1966.047649740012	10
5	861	1970.521159509626	9
5	862	1973.041374009266	8
5	863	1976.1088791893	7
5	864	1979.357683690357	6
5	865	1980.387359729458	5
5	867	1989.943338272855	5
5	868	1992.797146244002	5
5	870	1995.884336036208	5
5	871	1999.509735218073	5
5	873	2000.46358090522	5
5	875	2003.250193048485	6
5	877	2010.907439471988	7
5	879	2017.266243712978	8
5	880	2017.404616766632	8
5	885	2025.955543780031	8
5	887	2026.250189254591	9
5	889	2028.994943436586	10
5	891	2029.205533400149	11
5	899	2044.569981006974	12
5	901	2045.615097865451	13
5	902	2046.7134350001	13
5	904	2047.618326690206	13
5	906	2047.675094750662	14
5	908	2049.278506622473	15
5	910	2052.021063180835	16
5	914	2060.935441531669	16
5	916	2061.933050463169	16
5	923	2075.877644797087	16
5	924	2077.376806391681	15
5	928	2081.964199355301	15
5	931	2083.997075851319	16
5	932	2087.13782510704	16
5	933	2089.105029823115	15
5	934	2089.525169458174	14
5	935	2106.382195336622	13
5	937	2107.844581482129	13
5	939	2111.538694057014	14
5	940	2114.955653089614	14
5	941	2118.127068656643	13
5	945	2133.024867501037	12
5	946	2135.14040387178	11
5	952	2143.701765387448	11
5	958	2156.2653911377	11
5	960	2162.923318210554	11
5	962	2164.078018129687	12
5	964	2164.966107423185	13
5	965	2167.988602417519	13
5	967	2177.139364210375	13
5	971	2185.966555562576	13
5	973	2185.971923398421	13
5	974	2189.632406661778	13
5	976	2191.392652329195	13
5	977	2196.59432627254	13
5	981	2200.589757462497	13
5	983	2201.991001515014	14
5	985	2207.89832000072	14
5	987	2210.81382373994	14
5	989	2215.667939719317	15
5	993	2222.785535370716	16
5	1009	2249.093811858206	17
5	1011	2252.210084213817	18
5	1017	2270.85175116467	19
5	1019	2275.708491082874	19
5	1024	2284.066064280049	19
5	1025	2287.248167265823	19
5	1030	2289.114500274871	19
5	1032	2292.754600115712	20
5	1037	2297.876878442418	21
5	1038	2298.62544429315	21
5	1039	2307.405482346355	20
5	1040	2310.167874696683	19
5	1042	2313.85941372327	19
5	1043	2314.647752197781	19
5	1044	2315.292722880716	18
5	1046	2319.616467540876	18
5	1047	2323.489554016961	18
5	1048	2328.446587995931	17
5	1049	2329.649902202629	16
5	1053	2342.042426111766	15
5	1055	2344.407621983521	15
5	1056	2348.321709277894	15
5	1057	2348.990122019112	14
5	1061	2354.253585186833	14
5	1063	2360.11653716303	15
5	1065	2363.244942743716	16
5	1067	2365.001793650137	17
5	1069	2366.40719409963	17
5	1071	2367.084833730502	17
5	1075	2374.693734594457	17
5	1080	2389.69848845301	17
5	1081	2390.462796514781	17
5	1082	2393.943664363606	16
5	1083	2394.515546818226	15
5	1084	2396.353298798864	14
5	1085	2407.716817840796	13
5	1086	2412.108234023995	12
5	1087	2414.699939301285	11
5	1089	2415.469235353027	11
5	1090	2422.712322696615	11
5	1091	2422.888226206793	10
5	1095	2428.35742467012	9
5	1099	2442.832758320266	9
5	1101	2446.900143620951	9
5	1102	2448.144175192753	8
5	1107	2470.443226876066	8
5	1111	2495.739789503727	8
5	1113	2498.157739472885	8
6	127	361.90757765173	29
6	128	363.4416757455	30
6	151	397.134839477451	31
6	152	397.500468805872	32
6	172	423.58536770919	33
6	173	430.502376036862	34
6	178	438.324381234078	35
6	219	502.519707888369	36
6	238	545.307565689496	37
6	239	547.220569896504	38
6	240	548.234228943043	39
6	244	552.055271868468	40
6	247	553.636418012908	41
6	248	556.812296455213	42
6	249	557.70661468461	43
6	266	592.931235023862	44
6	267	617.534005672679	45
6	268	617.959293792224	46
6	269	624.415706841788	47
6	273	636.286889598748	48
6	274	640.843136207041	49
6	275	646.276835690557	50
6	299	692.466343068923	51
6	303	717.938904157697	52
6	311	733.846448201356	53
6	312	736.941708904836	54
6	313	738.493750518135	55
6	324	752.361486713659	56
6	325	755.547966820297	57
6	328	762.18945807397	58
6	337	773.96424786799	59
6	338	777.136969758786	60
6	339	777.423411132114	61
6	346	796.988603571599	62
6	349	799.957605503127	63
6	350	800.712071794273	64
6	351	801.251754336126	65
6	354	808.408592011426	66
6	355	810.856317601188	67
6	356	810.991575060457	68
6	357	811.770438832281	69
6	360	823.251103322833	70
6	370	840.190037636556	71
6	374	860.559860542847	72
6	375	864.59058289998	73
6	376	864.615855694813	74
6	377	872.414262216043	75
6	378	873.736214365188	76
6	381	878.117688883502	77
6	382	878.416285570006	78
6	387	891.970920709181	79
6	388	898.085356017563	80
6	391	900.960644128087	81
6	394	905.053698525636	82
6	409	925.577061778752	83
6	410	935.721886520507	84
6	413	955.051112475805	85
6	458	1006.343817790781	86
6	464	1026.94361214968	87
6	467	1033.066108074685	88
6	470	1042.828492961434	89
6	473	1061.216715046174	90
6	476	1065.595084713899	91
6	488	1088.940188781925	92
6	489	1097.459610546958	93
6	496	1105.533956674687	94
6	499	1105.810393355586	95
6	500	1107.270209718415	96
6	503	1120.870112731102	97
6	506	1128.839621278551	98
6	507	1129.468012029885	99
6	516	1145.330532535172	100
6	517	1150.935997201373	101
6	520	1167.257100478946	102
6	521	1169.603723412618	103
6	528	1189.927278902129	104
6	529	1205.050746344203	105
6	540	1226.401836475325	106
6	541	1228.492443294296	107
6	549	1231.978286249945	108
6	554	1246.255991623471	109
6	555	1252.450975716182	110
6	561	1269.157277656278	111
6	566	1272.026640149261	112
6	569	1276.540630689357	113
6	572	1286.620921757968	114
6	578	1295.056076208475	115
6	581	1301.738538875538	116
6	585	1308.915754775717	117
6	588	1315.86856800899	118
6	591	1317.36209740579	119
6	597	1330.203277581791	120
6	598	1333.069917529431	121
6	616	1367.821828650855	122
6	620	1386.370196697881	123
6	626	1393.892438920944	124
6	627	1420.300627212059	125
6	630	1421.903548741129	126
6	631	1423.7600869601	127
6	632	1426.656412934673	128
6	638	1439.89114500534	129
6	641	1444.809005310659	130
6	647	1456.950518736052	131
6	648	1460.942988287813	132
6	681	1519.245674377345	133
6	693	1545.707356724822	134
6	696	1558.548053813194	135
6	697	1560.534987286508	136
6	698	1564.253867328535	137
6	699	1582.436673197295	138
6	706	1590.847581619514	139
6	707	1596.989641433292	140
6	708	1599.091451220874	141
6	709	1603.428786185093	142
6	732	1650.103470171602	143
6	733	1651.460448066467	144
6	734	1653.749872393875	145
6	735	1657.292887148208	146
6	736	1657.811203140093	147
6	739	1663.25058058396	148
6	742	1671.389030894586	149
6	743	1691.741594507319	150
6	744	1694.697404188972	151
6	745	1700.677621027726	152
6	746	1705.135021762182	153
6	747	1723.785089153241	154
6	759	1742.265424804509	155
6	760	1743.559424692935	156
6	764	1749.766349010389	157
6	765	1752.503130133836	158
6	770	1755.078587743047	159
6	771	1768.136170961718	160
6	772	1769.171201021397	161
6	775	1781.251851319844	162
6	778	1789.768657130744	163
6	788	1814.821918078609	164
6	794	1843.635894124426	165
6	795	1847.172539008839	166
6	801	1853.489076819627	167
6	805	1854.823156482258	168
6	818	1878.815864247119	169
6	819	1879.925725483698	170
6	820	1880.707368986569	171
6	821	1881.506639893114	172
6	828	1891.098616690189	173
6	833	1898.747318524274	174
6	834	1899.85439817596	175
6	835	1901.357017073358	176
6	836	1904.267546500153	177
6	837	1905.145985047112	178
6	838	1907.720665662674	179
6	846	1928.103868951126	180
6	849	1939.114701094031	181
6	850	1941.547687679423	182
6	855	1954.586321368694	183
6	856	1960.138315202352	184
6	859	1964.827957447172	185
6	860	1966.047649740012	186
6	861	1970.521159509626	187
6	862	1973.041374009266	188
6	863	1976.1088791893	189
6	864	1979.357683690357	190
6	865	1980.387359729458	191
6	868	1992.797146244002	192
6	871	1999.509735218073	193
6	880	2017.404616766632	194
6	902	2046.7134350001	195
6	914	2060.935441531669	196
6	923	2075.877644797087	197
6	924	2077.376806391681	198
6	932	2087.13782510704	199
6	933	2089.105029823115	200
6	934	2089.525169458174	201
6	935	2106.382195336622	202
6	940	2114.955653089614	203
6	941	2118.127068656643	204
6	945	2133.024867501037	205
6	946	2135.14040387178	206
6	958	2156.2653911377	207
6	965	2167.988602417519	208
6	971	2185.966555562576	209
6	974	2189.632406661778	210
6	977	2196.59432627254	211
6	985	2207.89832000072	212
6	1019	2275.708491082874	213
6	1025	2287.248167265823	214
6	1038	2298.62544429315	215
6	1039	2307.405482346355	216
6	1040	2310.167874696683	217
6	1043	2314.647752197781	218
6	1044	2315.292722880716	219
6	1047	2323.489554016961	220
6	1048	2328.446587995931	221
6	1049	2329.649902202629	222
6	1053	2342.042426111766	223
6	1056	2348.321709277894	224
6	1057	2348.990122019112	225
6	1069	2366.40719409963	226
6	1075	2374.693734594457	227
6	1081	2390.462796514781	228
6	1082	2393.943664363606	229
6	1083	2394.515546818226	230
6	1084	2396.353298798864	231
6	1085	2407.716817840796	232
6	1086	2412.108234023995	233
6	1087	2414.699939301285	234
6	1090	2422.712322696615	235
6	1091	2422.888226206793	236
6	1095	2428.35742467012	237
6	1101	2446.900143620951	238
6	1102	2448.144175192753	239
6	1111	2495.739789503727	240
7	127	361.90757765173	31.917588499414
7	128	363.4416757455	33.427998810348
7	151	397.134839477451	33.559493995985
7	152	397.500468805872	30.593728205452
7	172	423.58536770919	45.661940432603
7	173	430.502376036862	48.717543023685
7	178	438.324381234078	53.525006105112
7	219	502.519707888369	112.77058531852
7	238	545.307565689496	135.43260460012
7	239	547.220569896504	136.13416230784
7	240	548.234228943043	134.78544511384
7	244	552.055271868468	118.28151605753
7	247	553.636418012908	117.1016882149
7	248	556.812296455213	114.26697752198
7	249	557.70661468461	113.88938212695
7	266	592.931235023862	120.60091187219
7	267	617.534005672679	141.24340344126
7	268	617.959293792224	139.95582210087
7	269	624.415706841788	142.83664077344
7	273	636.286889598748	151.87968616169
7	274	640.843136207041	154.00734101983
7	275	646.276835690557	155.75750939805
7	299	692.466343068923	196.13286845819
7	303	717.938904157697	217.23970742526
7	311	733.846448201356	217.44327934381
7	312	736.941708904836	219.43956743986
7	313	738.493750518135	214.51024382698
7	324	752.361486713659	211.25334678407
7	325	755.547966820297	211.65072647878
7	328	762.18945807397	216.94278691194
7	337	773.96424786799	211.03695541812
7	338	777.136969758786	210.32744188394
7	339	777.423411132114	208.69952165338
7	346	796.988603571599	210.71808791084
7	349	799.957605503127	210.35809663261
7	350	800.712071794273	173.86818725738
7	351	801.251754336126	153.89795903277
7	354	808.408592011426	155.72917296733
7	355	810.856317601188	147.00584747859
7	356	810.991575060457	144.49575904317
7	357	811.770438832281	137.5919619372
7	360	823.251103322833	148.81517177081
7	370	840.190037636556	152.68417865564
7	374	860.559860542847	141.38452661177
7	375	864.59058289998	138.82754267266
7	376	864.615855694813	138.83982849525
7	377	872.414262216043	133.91379227268
7	378	873.736214365188	126.05656893541
7	381	878.117688883502	126.07216325504
7	382	878.416285570006	122.77981994108
7	387	891.970920709181	129.4441654179
7	388	898.085356017563	132.77166883181
7	391	900.960644128087	135.11407431795
7	394	905.053698525636	125.68298469948
7	409	925.577061778752	122.21024826635
7	410	935.721886520507	113.70003227065
7	413	955.051112475805	130.95889672291
7	458	1006.343817790781	180.47352580743
7	464	1026.94361214968	185.2753733564
7	467	1033.066108074685	156.56957847272
7	470	1042.828492961434	159.74949730237
7	473	1061.216715046174	177.10249005359
7	476	1065.595084713899	165.2855072904
7	488	1088.940188781925	182.71000815061
7	489	1097.459610546958	189.61815245365
7	496	1105.533956674687	197.31047291093
7	499	1105.810393355586	191.82449685954
7	500	1107.270209718415	191.75898994988
7	503	1120.870112731102	202.54065909626
7	506	1128.839621278551	192.6894465945
7	507	1129.468012029885	172.11748913743
7	516	1145.330532535172	185.79296615996
7	517	1150.935997201373	189.9209756519
7	520	1167.257100478946	193.45092949099
7	521	1169.603723412618	195.26994208952
7	528	1189.927278902129	204.19414750596
7	529	1205.050746344203	217.63226021744
7	540	1226.401836475325	228.89985901548
7	541	1228.492443294296	227.87806256038
7	549	1231.978286249945	228.83837355247
7	554	1246.255991623471	237.59712021666
7	555	1252.450975716182	228.9973730623
7	561	1269.157277656278	228.69181283968
7	566	1272.026640149261	217.56581284244
7	569	1276.540630689357	211.06451987284
7	572	1286.620921757968	217.84397034235
7	578	1295.056076208475	221.16622288676
7	581	1301.738538875538	215.51484069357
7	585	1308.915754775717	208.60402593993
7	588	1315.86856800899	212.93144160659
7	591	1317.36209740579	214.06592869021
7	597	1330.203277581791	210.97248860507
7	598	1333.069917529431	212.07032567637
7	616	1367.821828650855	235.2616560859
7	620	1386.370196697881	209.17419930694
7	626	1393.892438920944	206.27477338358
7	627	1420.300627212059	214.65818057783
7	630	1421.903548741129	210.97064525106
7	631	1423.7600869601	208.29076618389
7	632	1426.656412934673	210.03948104985
7	638	1439.89114500534	209.67831053509
7	641	1444.809005310659	213.24144230284
7	647	1456.950518736052	219.01253280825
7	648	1460.942988287813	206.20879135612
7	681	1519.245674377345	248.7051257185
7	693	1545.707356724822	271.45393536421
7	696	1558.548053813194	273.39526373945
7	697	1560.534987286508	273.684607127
7	698	1564.253867328535	274.99826374978
7	699	1582.436673197295	283.17973979158
7	706	1590.847581619514	278.39851440381
7	707	1596.989641433292	280.71014156249
7	708	1599.091451220874	271.2968359621
7	709	1603.428786185093	274.51968660484
7	732	1650.103470171602	286.26132862627
7	733	1651.460448066467	283.64759254177
7	734	1653.749872393875	278.95074834222
7	735	1657.292887148208	269.9421388509
7	736	1657.811203140093	269.66658805342
7	739	1663.25058058396	242.29857344484
7	742	1671.389030894586	237.97893358963
7	743	1691.741594507319	253.06912938069
7	744	1694.697404188972	253.19795014543
7	745	1700.677621027726	254.29121309302
7	746	1705.135021762182	256.70424559874
7	747	1723.785089153241	258.31331241615
7	759	1742.265424804509	240.99846473685
7	760	1743.559424692935	236.36923071884
7	764	1749.766349010389	229.53172159766
7	765	1752.503130133836	229.12163357019
7	770	1755.078587743047	224.39832442042
7	771	1768.136170961718	233.15198525935
7	772	1769.171201021397	230.23790969231
7	775	1781.251851319844	225.560063741
7	778	1789.768657130744	205.17211031216
7	788	1814.821918078609	209.11611341124
7	794	1843.635894124426	224.61956048509
7	795	1847.172539008839	224.7323048593
7	801	1853.489076819627	206.87898935647
7	805	1854.823156482258	191.99264828726
7	818	1878.815864247119	153.01829743425
7	819	1879.925725483698	152.86569089814
7	820	1880.707368986569	148.13149525444
7	821	1881.506639893114	141.37535579717
7	828	1891.098616690189	136.38539050279
7	833	1898.747318524274	143.92212657461
7	834	1899.85439817596	126.73909341569
7	835	1901.357017073358	113.47163399341
7	836	1904.267546500153	113.69292108679
7	837	1905.145985047112	85.388433510556
7	838	1907.720665662674	77.708948745374
7	846	1928.103868951126	78.151853588472
7	849	1939.114701094031	85.456659143372
7	850	1941.547687679423	85.763647817481
7	855	1954.586321368694	94.615518944864
7	856	1960.138315202352	97.23143707573
7	859	1964.827957447172	101.87729458563
7	860	1966.047649740012	83.58993927441
7	861	1970.521159509626	85.480222290886
7	862	1973.041374009266	77.747117407037
7	863	1976.1088791893	77.852883240008
7	864	1979.357683690357	66.238129958961
7	865	1980.387359729458	63.439753157085
7	868	1992.797146244002	67.159505363042
7	871	1999.509735218073	64.563933362396
7	880	2017.404616766632	72.604199733895
7	902	2046.7134350001	56.770096727245
7	914	2060.935441531669	60.471860626449
7	923	2075.877644797087	58.611401084109
7	924	2077.376806391681	55.176671944745
7	932	2087.13782510704	60.887635852449
7	933	2089.105029823115	60.110086386529
7	934	2089.525169458174	60.319636058025
7	935	2106.382195336622	73.587308782673
7	940	2114.955653089614	70.38567208264
7	941	2118.127068656643	72.511970791192
7	945	2133.024867501037	85.349772750375
7	946	2135.14040387178	85.861897249307
7	958	2156.2653911377	102.38647532841
7	965	2167.988602417519	106.05555195435
7	971	2185.966555562576	117.21633457065
7	974	2189.632406661778	107.85215102572
7	977	2196.59432627254	114.63012691724
7	985	2207.89832000072	100.05373851859
7	1019	2275.708491082874	148.79264336073
7	1025	2287.248167265823	143.54640187838
7	1038	2298.62544429315	133.65933686996
7	1039	2307.405482346355	130.26611813598
7	1040	2310.167874696683	130.39678146313
7	1043	2314.647752197781	128.67582879936
7	1044	2315.292722880716	123.90007055152
7	1047	2323.489554016961	126.86195892846
7	1048	2328.446587995931	127.85683053343
7	1049	2329.649902202629	127.65890068762
7	1053	2342.042426111766	126.37448639245
7	1056	2348.321709277894	131.35026858306
7	1057	2348.990122019112	126.2045866484
7	1069	2366.40719409963	114.19710988581
7	1075	2374.693734594457	96.769993568895
7	1081	2390.462796514781	101.79668016884
7	1082	2393.943664363606	104.82916408873
7	1083	2394.515546818226	101.76094670251
7	1084	2396.353298798864	99.693816965696
7	1085	2407.716817840796	109.83993939838
7	1086	2412.108234023995	98.248820300725
7	1087	2414.699939301285	95.083471760409
7	1090	2422.712322696615	92.69700723394
7	1091	2422.888226206793	78.480604223272
7	1095	2428.35742467012	74.103839483287
7	1101	2446.900143620951	83.655200877235
7	1102	2448.144175192753	83.142381542616
7	1111	2495.739789503727	117.16519054841
8	132	366.90674060042	1
8	139	381.784833013177	1
8	144	386.250875507134	1
8	149	389.749122569849	1
8	154	399.549588799422	1
8	156	402.504371015353	2
8	161	408.499009690112	2
8	182	443.817232557662	1
8	184	445.367973862082	2
8	196	478.003471691353	1
8	204	484.600153220399	2
8	225	517.502141464979	1
8	230	529.042666305749	1
8	242	549.723407939261	1
8	251	562.927292449865	1
8	262	586.270515660759	1
8	271	626.843884536897	1
8	277	647.353795303353	1
8	281	662.438482297379	2
8	292	680.919630399863	2
8	301	697.442376960556	1
8	307	725.763040227324	1
8	315	738.500469943368	1
8	317	739.177665474985	2
8	330	762.526755291277	1
8	333	765.313687185756	1
8	341	779.370713826155	1
8	344	791.075455498199	1
8	364	825.727435836351	1
8	372	841.668238793278	1
8	396	906.230180631313	1
8	407	918.329453634844	1
8	417	957.388344174164	1
8	419	957.723820241117	2
8	425	965.1212364791	3
8	428	970.625671301786	3
8	437	986.583432109771	3
8	439	987.393290059605	4
8	460	1008.65887140681	1
8	480	1070.155179727889	1
8	509	1130.416300279589	1
8	511	1132.048297238397	2
8	531	1205.642446634233	1
8	538	1216.616931884824	1
8	543	1228.520457625003	1
8	557	1254.734196931696	1
8	574	1286.850380159512	1
8	583	1302.844015444965	1
8	595	1328.909099580252	1
8	602	1337.388330083135	1
8	604	1339.233828183082	2
8	607	1343.29505004117	2
8	618	1374.799124051652	1
8	622	1387.35074829731	1
8	636	1438.672465126625	1
8	643	1446.386407934709	1
8	650	1465.471776737086	1
8	654	1472.526123282645	2
8	656	1477.260476761024	3
8	658	1478.758750500482	4
8	661	1484.290723402252	4
8	666	1490.187265864041	2
8	669	1500.847975289427	2
8	676	1508.857475936079	2
8	689	1534.984185702364	1
8	701	1584.596546818588	1
8	703	1584.900654196861	2
8	711	1604.854966012996	1
8	716	1608.92861649769	1
8	718	1610.735235706327	2
8	724	1622.440234149539	1
8	749	1725.797566812866	1
8	762	1744.043509672546	1
8	780	1790.574625413366	1
8	782	1793.295441535686	2
8	784	1796.601928198126	3
8	792	1830.0117169173	1
8	797	1848.743132659626	1
8	803	1853.658041950659	1
8	807	1855.784039861942	1
8	809	1857.679617678275	2
8	823	1882.457710465602	1
8	826	1885.04093721874	1
8	844	1925.63764088096	1
8	882	2022.200134446936	1
8	893	2032.794886553949	1
8	895	2040.625890296416	2
8	912	2053.878915809292	1
8	918	2064.153547375319	1
8	921	2068.750220991927	1
8	926	2081.78025563606	1
8	943	2126.915847722145	1
8	948	2137.731399979001	1
8	950	2139.643418030477	2
8	955	2146.629260054248	2
8	969	2179.771093233548	1
8	979	2196.627595088498	1
8	991	2216.971440694834	1
8	995	2226.000127713074	2
8	998	2228.447023846671	2
8	1000	2234.20252635727	3
8	1003	2237.414483346714	3
8	1007	2249.077865559208	2
8	1013	2259.534430219018	3
8	1021	2277.923741025562	1
8	1027	2288.666116345938	1
8	1034	2296.659481833168	1
8	1051	2330.015315462675	1
8	1059	2350.915731692075	1
8	1073	2367.773846882979	1
8	1077	2378.574598955318	1
8	1093	2425.11642804679	1
8	1097	2431.98697731575	1
8	1104	2458.246234532336	1
8	1109	2481.626538504285	1
9	132	366.90674060042	6
9	139	381.784833013177	7
9	144	386.250875507134	8
9	149	389.749122569849	9
9	154	399.549588799422	10
9	182	443.817232557662	11
9	196	478.003471691353	12
9	225	517.502141464979	13
9	230	529.042666305749	14
9	242	549.723407939261	15
9	251	562.927292449865	16
9	262	586.270515660759	17
9	271	626.843884536897	18
9	277	647.353795303353	19
9	301	697.442376960556	20
9	307	725.763040227324	21
9	315	738.500469943368	22
9	330	762.526755291277	23
9	333	765.313687185756	24
9	341	779.370713826155	25
9	344	791.075455498199	26
9	364	825.727435836351	27
9	372	841.668238793278	28
9	396	906.230180631313	29
9	407	918.329453634844	30
9	417	957.388344174164	31
9	460	1008.65887140681	32
9	480	1070.155179727889	33
9	509	1130.416300279589	34
9	531	1205.642446634233	35
9	538	1216.616931884824	36
9	543	1228.520457625003	37
9	557	1254.734196931696	38
9	574	1286.850380159512	39
9	583	1302.844015444965	40
9	595	1328.909099580252	41
9	602	1337.388330083135	42
9	618	1374.799124051652	43
9	622	1387.35074829731	44
9	636	1438.672465126625	45
9	643	1446.386407934709	46
9	650	1465.471776737086	47
9	689	1534.984185702364	48
9	701	1584.596546818588	49
9	711	1604.854966012996	50
9	716	1608.92861649769	51
9	724	1622.440234149539	52
9	749	1725.797566812866	53
9	762	1744.043509672546	54
9	780	1790.574625413366	55
9	792	1830.0117169173	56
9	797	1848.743132659626	57
9	803	1853.658041950659	58
9	807	1855.784039861942	59
9	823	1882.457710465602	60
9	826	1885.04093721874	61
9	844	1925.63764088096	62
9	882	2022.200134446936	63
9	893	2032.794886553949	64
9	912	2053.878915809292	65
9	918	2064.153547375319	66
9	921	2068.750220991927	67
9	926	2081.78025563606	68
9	943	2126.915847722145	69
9	948	2137.731399979001	70
9	969	2179.771093233548	71
9	979	2196.627595088498	72
9	991	2216.971440694834	73
9	1021	2277.923741025562	74
9	1027	2288.666116345938	75
9	1034	2296.659481833168	76
9	1051	2330.015315462675	77
9	1059	2350.915731692075	78
9	1073	2367.773846882979	79
9	1077	2378.574598955318	80
9	1093	2425.11642804679	81
9	1097	2431.98697731575	82
9	1104	2458.246234532336	83
9	1109	2481.626538504285	84
10	132	366.90674060042	0
10	139	381.784833013177	0
10	144	386.250875507134	0
10	149	389.749122569849	0
10	154	399.549588799422	0
10	157	403.056442825077	0.552071809724
10	162	409.532247898255	1.033238208143
10	182	443.817232557662	0
10	185	445.380570239751	0.012596377669
10	196	478.003471691353	0
10	211	492.528541315806	7.928388095407
10	225	517.502141464979	0
10	230	529.042666305749	0
10	242	549.723407939261	0
10	251	562.927292449865	0
10	262	586.270515660759	0
10	271	626.843884536897	0
10	277	647.353795303353	0
10	286	673.060556934315	10.622074636936
10	293	682.672466431597	1.752836031734
10	301	697.442376960556	0
10	307	725.763040227324	0
10	315	738.500469943368	0
10	318	743.939888695274	4.762223220289
10	330	762.526755291277	0
10	333	765.313687185756	0
10	341	779.370713826155	0
10	344	791.075455498199	0
10	364	825.727435836351	0
10	372	841.668238793278	0
10	396	906.230180631313	0
10	407	918.329453634844	0
10	417	957.388344174164	0
10	426	968.001326439954	10.277506198837
10	433	981.749846330605	16.628609851505
10	442	988.755363114674	18.129691812888
10	443	989.376735662432	2.793303552661
10	446	991.306901257731	3.913611198126
10	460	1008.65887140681	0
10	480	1070.155179727889	0
10	509	1130.416300279589	0
10	514	1140.644467925491	8.596170687094
10	531	1205.642446634233	0
10	538	1216.616931884824	0
10	543	1228.520457625003	0
10	557	1254.734196931696	0
10	574	1286.850380159512	0
10	583	1302.844015444965	0
10	595	1328.909099580252	0
10	602	1337.388330083135	0
10	605	1339.47701734529	0.243189162208
10	608	1345.582116850991	2.287066809821
10	618	1374.799124051652	0
10	622	1387.35074829731	0
10	636	1438.672465126625	0
10	643	1446.386407934709	0
10	650	1465.471776737086	0
10	659	1480.297422783648	7.771299501003
10	662	1484.303306105812	7.042829344788
10	663	1488.609638985959	9.850888485477
10	664	1489.820237609547	5.529514207295
10	667	1495.634591835186	5.447325971145
10	672	1503.156957006262	2.308981716835
10	677	1509.277106181674	0.419630245595
10	689	1534.984185702364	0
10	701	1584.596546818588	0
10	704	1586.891081789517	1.990427592656
10	711	1604.854966012996	0
10	716	1608.92861649769	0
10	721	1619.284314010108	8.549078303781
10	724	1622.440234149539	0
10	749	1725.797566812866	0
10	762	1744.043509672546	0
10	780	1790.574625413366	0
10	785	1800.153950906561	6.858509370875
10	786	1807.063011138163	10.461082940037
10	792	1830.0117169173	0
10	797	1848.743132659626	0
10	803	1853.658041950659	0
10	807	1855.784039861942	0
10	816	1868.615943597372	10.936325919097
10	823	1882.457710465602	0
10	826	1885.04093721874	0
10	844	1925.63764088096	0
10	882	2022.200134446936	0
10	893	2032.794886553949	0
10	896	2041.243210624028	0.617320327612
10	912	2053.878915809292	0
10	918	2064.153547375319	0
10	921	2068.750220991927	0
10	926	2081.78025563606	0
10	943	2126.915847722145	0
10	948	2137.731399979001	0
10	953	2144.791188827102	5.147770796625
10	956	2152.316124369978	5.68686431573
10	969	2179.771093233548	0
10	979	2196.627595088498	0
10	991	2216.971440694834	0
10	996	2227.230947549531	1.230819836457
10	1001	2234.289457834638	5.842433987967
10	1004	2237.938057398793	3.735531041523
10	1005	2240.279066237555	2.864582890841
10	1014	2269.421620336611	20.343754777403
10	1015	2270.782710480278	11.24828026126
10	1021	2277.923741025562	0
10	1027	2288.666116345938	0
10	1034	2296.659481833168	0
10	1051	2330.015315462675	0
10	1059	2350.915731692075	0
10	1073	2367.773846882979	0
10	1077	2378.574598955318	0
10	1093	2425.11642804679	0
10	1097	2431.98697731575	0
10	1104	2458.246234532336	0
10	1109	2481.626538504285	0
11	1114	2500	0.096
12	1114	2500	0.05

