file 63082 1678524246                                           
version 2
run experiments_medium_game_mode1-1180-20230311-09:44:06-14591
attr configname experiments_medium_game_mode1
attr datetime 20230311-09:44:06
attr experiment experiments_medium_game_mode1
attr inifile omnetpp.ini
attr iterationvars "$0=6.5, $1=7, $2=100"
attr iterationvarsf 6.5,7,100-
attr measurement "$0=6.5, $1=7, $2=100"
attr network Network
attr processid 14591
attr repetition 10
attr replication #10
attr resultdir results
attr runnumber 1180
attr seedset 10
param *.boss.arrival_mean 20
param *.boss.service_mean 6.5
param *.minion.arrival_mean 10
param *.minion.service_mean 7
param *.player.recover_rate_x 100
param **.minion.arrival_distribution 0
param **.minion.service_distribution 0
param **.boss.arrival_distribution 0
param **.boss.service_distribution 0

vector 0 Network.player boss_defeated_stat:vector ETV
attr source signal_boss_defeated
vector 1 Network.player boss_jobs_queue_number_stat:vector ETV
attr source signal_boss_jobs_queue_number
vector 2 Network.player boss_response_time_stat:vector ETV
attr source signal_boss_response_time
vector 3 Network.player boss_waiting_time_stat:vector ETV
attr source signal_boss_waiting_time
vector 4 Network.player minion_waiting_time_stat:vector ETV
attr source signal_minion_waiting_time
vector 5 Network.player minion_defeated_stat:vector ETV
attr source signal_minion_defeated
vector 6 Network.player minion_jobs_queue_number_stat:vector ETV
attr source signal_minion_jobs_queue_number
vector 7 Network.player minion_response_time_stat:vector ETV
attr source signal_minion_response_time
vector 8 Network.player minion_jobs_number_stat:vector ETV
attr source signal_minion_jobs_number
vector 9 Network.player boss_jobs_number_stat:vector ETV
attr source signal_boss_jobs_number
vector 10 Network.player minion_recovered_stat:vector ETV
attr source signal_minion_recovered
vector 11 Network.player minion_throughput:vector ETV
attr source signal_minion_throughput
vector 12 Network.player boss_throughput:vector ETV
attr source signal_boss_throughput
0	2029 2900 171 1114 350.051078313637 2449.109146161978 108 20 127 7938 688410
1	4929 5459 171 1114 350.051078313637 2449.109146161978 213 0 5 125 279
2	10388 4205 171 1114 350.051078313637 2449.109146161978 108 0.002351011006 56.720101191251 1280.9509452579 30819.584697338
3	14593 3287 171 1113 350.051078313637 2446.879911890008 107 0 46.823729701877 529.08680343262 13361.033853783
4	17880 10197 173 1136 354.353240767472 2482.774411718491 261 0 344.45198427446 48636.909824734 12068232.165098
5	28077 5394 174 1136 355.350155121946 2482.774411718491 196 36 231 26166 4120606
6	33471 11278 174 1140 355.350155121946 2487.898238471302 424 0 48 10456 347612
7	44749 7765 174 1136 355.350155121946 2482.774411718491 196 1.84978779109 345.88748024645 37256.023608517 9379205.1648092
8	52514 6055 176 1140 367.376450425266 2487.898238471302 228 1 49 5720 190738
9	58569 2695 198 1113 419.824288542282 2446.879911890008 105 1 6 166 364
10	61264 1777 198 1113 419.824288542282 2446.879911890008 64 9 72 2592 126816
11	63041 20 1141 1141 2500 2500 1 0.0924 0.0924 0.0924 0.00853776
12	63061 20 1141 1141 2500 2500 1 0.0508 0.0508 0.0508 0.00258064

