file 60978 1678524306                                           
version 2
run experiments_medium_game_mode1-1432-20230311-09:45:06-15856
attr configname experiments_medium_game_mode1
attr datetime 20230311-09:45:06
attr experiment experiments_medium_game_mode1
attr inifile omnetpp.ini
attr iterationvars "$0=7, $1=6, $2=100"
attr iterationvarsf 7,6,100-
attr measurement "$0=7, $1=6, $2=100"
attr network Network
attr processid 15856
attr repetition 22
attr replication #22
attr resultdir results
attr runnumber 1432
attr seedset 22
param *.boss.arrival_mean 20
param *.boss.service_mean 7
param *.minion.arrival_mean 10
param *.minion.service_mean 6
param *.player.recover_rate_x 100
param **.minion.arrival_distribution 0
param **.minion.service_distribution 0
param **.boss.arrival_distribution 0
param **.boss.service_distribution 0

vector 0 Network.player minion_defeated_stat:vector ETV
attr source signal_minion_defeated
vector 1 Network.player minion_jobs_queue_number_stat:vector ETV
attr source signal_minion_jobs_queue_number
vector 2 Network.player minion_response_time_stat:vector ETV
attr source signal_minion_response_time
vector 3 Network.player minion_waiting_time_stat:vector ETV
attr source signal_minion_waiting_time
vector 4 Network.player boss_jobs_number_stat:vector ETV
attr source signal_boss_jobs_number
vector 5 Network.player boss_jobs_queue_number_stat:vector ETV
attr source signal_boss_jobs_queue_number
vector 6 Network.player minion_recovered_stat:vector ETV
attr source signal_minion_recovered
vector 7 Network.player boss_waiting_time_stat:vector ETV
attr source signal_boss_waiting_time
vector 8 Network.player minion_jobs_number_stat:vector ETV
attr source signal_minion_jobs_number
vector 9 Network.player boss_defeated_stat:vector ETV
attr source signal_boss_defeated
vector 10 Network.player boss_response_time_stat:vector ETV
attr source signal_boss_response_time
vector 11 Network.player minion_throughput:vector ETV
attr source signal_minion_throughput
vector 12 Network.player boss_throughput:vector ETV
attr source signal_boss_throughput
0	2021 5533 144 1057 350.418365196018 2484.898611495398 203 28 230 26187 4075225
1	7554 10856 144 1062 350.418365196018 2491.824172234539 417 0 21 3241 35183
2	18410 7999 144 1057 350.418365196018 2484.898611495398 203 0.021436851371 153.76774864007 12779.620968763 1127324.0775309
3	26409 10575 144 1060 350.418365196018 2489.764103609395 274 0 147.77235742698 15986.624097637 1359521.0519145
4	36984 2453 146 1059 352.732720250375 2486.924382343612 96 1 3 121 177
5	39437 4909 146 1060 352.732720250375 2489.764103609395 192 0 2 50 62
6	44346 1883 146 1059 352.732720250375 2486.924382343612 71 9 79 3124 167276
7	46229 2743 146 1059 352.732720250375 2486.924382343612 96 0 16.915072589512 167.91313298891 1785.6186088551
8	48972 5587 150 1062 357.110273761727 2491.824172234539 214 1 22 1884 21646
9	54559 2567 151 1060 359.643498698874 2489.764103609395 96 19 114 6384 498256
10	57126 3812 151 1060 359.643498698874 2489.764103609395 96 0.057356254122 34.053337139914 765.96774915306 11083.930651652
11	60938 19 1063 1063 2500 2500 1 0.092 0.092 0.092 0.008464
12	60957 20 1063 1063 2500 2500 1 0.0456 0.0456 0.0456 0.00207936

