file 61525 1678524385                                           
version 2
run experiments_medium_game_mode1-1760-20230311-09:46:25-17499
attr configname experiments_medium_game_mode1
attr datetime 20230311-09:46:25
attr experiment experiments_medium_game_mode1
attr inifile omnetpp.ini
attr iterationvars "$0=7.5, $1=7, $2=0"
attr iterationvarsf 7.5,7,0-
attr measurement "$0=7.5, $1=7, $2=0"
attr network Network
attr processid 17499
attr repetition 20
attr replication #20
attr resultdir results
attr runnumber 1760
attr seedset 20
param *.boss.arrival_mean 20
param *.boss.service_mean 7.5
param *.minion.arrival_mean 10
param *.minion.service_mean 7
param *.player.recover_rate_x 0
param **.minion.arrival_distribution 0
param **.minion.service_distribution 0
param **.boss.arrival_distribution 0
param **.boss.service_distribution 0

vector 0 Network.player minion_jobs_number_stat:vector ETV
attr source signal_minion_jobs_number
vector 1 Network.player minion_jobs_queue_number_stat:vector ETV
attr source signal_minion_jobs_queue_number
vector 2 Network.player minion_defeated_stat:vector ETV
attr source signal_minion_defeated
vector 3 Network.player minion_response_time_stat:vector ETV
attr source signal_minion_response_time
vector 4 Network.player minion_waiting_time_stat:vector ETV
attr source signal_minion_waiting_time
vector 5 Network.player boss_jobs_number_stat:vector ETV
attr source signal_boss_jobs_number
vector 6 Network.player boss_jobs_queue_number_stat:vector ETV
attr source signal_boss_jobs_queue_number
vector 7 Network.player boss_waiting_time_stat:vector ETV
attr source signal_boss_waiting_time
vector 8 Network.player boss_defeated_stat:vector ETV
attr source signal_boss_defeated
vector 9 Network.player boss_response_time_stat:vector ETV
attr source signal_boss_response_time
vector 10 Network.player minion_recovered_stat:vector ETV
attr source signal_minion_recovered
vector 11 Network.player minion_throughput:vector ETV
attr source signal_minion_throughput
vector 12 Network.player boss_throughput:vector ETV
attr source signal_boss_throughput
0	2021 5721 125 1071 351.622388343199 2470.076086231798 217 1 36 3385 71617
1	7742 10539 125 1071 351.622388343199 2470.076086231798 401 0 35 5709 115223
2	18281 5014 126 1044 367.069372398523 2447.224698635005 184 28 211 21988 3146676
3	23295 7261 126 1044 367.069372398523 2447.224698635005 184 0.704405097659 229.81986947813 19741.903182466 2737260.59636
4	30556 9560 126 1044 367.069372398523 2447.224698635005 244 0 227.85215264042 24209.411030408 3219692.9274987
5	40116 2910 146 1077 429.805982642391 2491.727201881822 113 1 6 208 540
6	43026 5791 146 1079 429.805982642391 2496.034906213698 225 0 5 190 474
7	48817 3594 146 1079 429.805982642391 2496.034906213698 113 0 58.625354251325 858.84529509214 26682.573648149
8	52411 3018 151 1079 433.473181713789 2496.034906213698 112 13 124 7672 642600
9	55429 4370 151 1079 433.473181713789 2496.034906213698 112 0.030851912046 77.17854841894 1688.8077594251 57765.673995061
10	59799 1685 160 1046 466.653881971489 2447.619588604821 61 9 69 2379 111691
11	61484 20 1080 1080 2500 2500 1 0.0844 0.0844 0.0844 0.00712336
12	61504 20 1080 1080 2500 2500 1 0.0496 0.0496 0.0496 0.00246016

