version 2
run experiments_medium_game_mode1-1067-20230311-09:43:41-14026
attr configname experiments_medium_game_mode1
attr datetime 20230311-09:43:41
attr experiment experiments_medium_game_mode1
attr inifile omnetpp.ini
attr iterationvars "$0=6.5, $1=5, $2=100"
attr iterationvarsf 6.5,5,100-
attr measurement "$0=6.5, $1=5, $2=100"
attr network Network
attr processid 14026
attr repetition 17
attr replication #17
attr resultdir results
attr runnumber 1067
attr seedset 17
param *.boss.arrival_mean 20
param *.boss.service_mean 6.5
param *.minion.arrival_mean 10
param *.minion.service_mean 5
param *.player.recover_rate_x 100
param **.minion.arrival_distribution 0
param **.minion.service_distribution 0
param **.boss.arrival_distribution 0
param **.boss.service_distribution 0

vector 0 Network.player boss_jobs_number_stat:vector ETV
attr source signal_boss_jobs_number
vector 1 Network.player boss_jobs_queue_number_stat:vector ETV
attr source signal_boss_jobs_queue_number
vector 2 Network.player boss_defeated_stat:vector ETV
attr source signal_boss_defeated
vector 3 Network.player boss_response_time_stat:vector ETV
attr source signal_boss_response_time
vector 4 Network.player boss_waiting_time_stat:vector ETV
attr source signal_boss_waiting_time
vector 5 Network.player minion_jobs_number_stat:vector ETV
attr source signal_minion_jobs_number
vector 6 Network.player minion_jobs_queue_number_stat:vector ETV
attr source signal_minion_jobs_queue_number
vector 7 Network.player minion_waiting_time_stat:vector ETV
attr source signal_minion_waiting_time
vector 8 Network.player minion_recovered_stat:vector ETV
attr source signal_minion_recovered
vector 9 Network.player minion_defeated_stat:vector ETV
attr source signal_minion_defeated
vector 10 Network.player minion_response_time_stat:vector ETV
attr source signal_minion_response_time
vector 11 Network.player minion_throughput:vector ETV
attr source signal_minion_throughput
vector 12 Network.player boss_throughput:vector ETV
attr source signal_boss_throughput
0	153	350.171511211393	4
0	157	359.177002320821	3
0	161	365.26094743687	4
0	163	368.098189762035	5
0	178	385.995055935859	1
0	193	401.159380145501	1
0	202	408.580972013092	1
0	204	411.98303390355	2
0	206	412.876803304027	3
0	211	422.146072715288	3
0	216	446.775027194891	1
0	222	468.45014409572	1
0	225	472.544172029421	1
0	232	487.076176212721	1
0	235	491.308263830936	1
0	242	514.420445053881	1
0	255	540.977110483324	1
0	258	551.819681983572	1
0	260	554.511948886503	2
0	271	575.952425612315	1
0	274	583.288797401775	1
0	277	588.718100361583	1
0	303	643.125925376857	1
0	305	645.586996621865	2
0	335	730.571370209296	1
0	337	734.350173070654	2
0	371	810.658340050417	1
0	385	884.907727247863	1
0	387	887.721201712711	2
0	389	888.414522886148	3
0	391	888.512631947575	4
0	393	890.614748597704	5
0	408	921.637319564409	3
0	412	933.050810641064	4
0	429	955.511706174683	1
0	450	994.890497857697	1
0	452	1003.331701847225	2
0	467	1024.71278138575	1
0	469	1033.063840915732	2
0	473	1051.810539160986	1
0	481	1065.212657206365	1
0	484	1065.754729663329	1
0	488	1080.816328212444	2
0	502	1093.090213003979	1
0	550	1190.157796246335	1
0	554	1195.018006867426	2
0	566	1254.157083332267	1
0	581	1280.882010518192	1
0	584	1313.151903889802	1
0	592	1321.444395591257	2
0	594	1325.585896946281	3
0	601	1335.422098015786	1
0	604	1338.793171785704	1
0	609	1343.945698054676	1
0	611	1344.605648280557	2
0	613	1348.23718360817	3
0	618	1354.444723385226	1
0	621	1363.78207600242	1
0	624	1372.897775342055	1
0	628	1380.740144125913	1
0	652	1449.877692855951	1
0	655	1463.860393903988	1
0	660	1472.968465229854	1
0	668	1519.198196621634	1
0	672	1532.42682870514	2
0	681	1550.165412899953	1
0	685	1554.583269324379	2
0	695	1573.502541172078	1
0	717	1622.789686438765	1
0	719	1626.079452015312	2
0	723	1630.884862694327	3
0	725	1635.526245392597	4
0	734	1672.708889509399	1
0	745	1683.53909461402	1
0	748	1684.610946595907	1
0	752	1685.324302382972	2
0	755	1690.607090687069	2
0	757	1690.716656719464	3
0	772	1722.801084257979	1
0	782	1752.565669775121	1
0	785	1757.548582860074	1
0	803	1795.945836784854	1
0	809	1803.075119845715	1
0	834	1863.031907122048	1
0	839	1873.807397067592	1
0	842	1876.768904317585	1
0	855	1890.39997952919	1
0	859	1891.62937734553	1
0	864	1895.714537944116	1
0	870	1904.656803873486	2
0	874	1907.741361857288	3
0	876	1907.770545241994	4
0	880	1910.078089205621	3
0	892	1928.628792155236	1
0	902	1940.266183214219	1
0	915	1969.677378120698	1
0	934	2005.109057834261	1
0	948	2037.716048677079	1
0	965	2096.363142973599	1
0	967	2103.40630497504	2
0	973	2118.70735399252	3
0	981	2130.419533422778	2
0	993	2149.699629152779	1
0	1006	2180.406746134353	1
0	1015	2189.056782590741	1
0	1026	2208.817946604845	1
0	1039	2249.007462530087	1
0	1047	2267.540485069693	1
0	1057	2284.914111308136	1
0	1073	2303.01610025261	1
0	1097	2370.815889430469	1
0	1099	2386.415765345996	2
0	1120	2426.057704019991	1
0	1122	2426.901955418237	2
0	1126	2436.157063888962	3
0	1140	2467.123966566147	1
0	1146	2473.867866227238	1
0	1157	2489.726720628059	1
1	153	350.171511211393	3
1	154	350.7890135168	3
1	155	352.519419087497	2
1	157	359.177002320821	2
1	161	365.26094743687	3
1	163	368.098189762035	4
1	164	368.376554750083	4
1	167	370.906481096696	3
1	168	375.602494444828	2
1	173	383.79960290475	1
1	174	384.145636243284	0
1	178	385.995055935859	0
1	179	386.700387786848	0
1	193	401.159380145501	0
1	194	402.135300703254	0
1	202	408.580972013092	0
1	204	411.98303390355	1
1	206	412.876803304027	2
1	207	414.538335467517	2
1	211	422.146072715288	2
1	212	432.772601143092	2
1	213	433.724773070279	1
1	214	443.809997738911	0
1	216	446.775027194891	0
1	217	461.693512929868	0
1	222	468.45014409572	0
1	223	468.995377166077	0
1	225	472.544172029421	0
1	226	474.379593891973	0
1	232	487.076176212721	0
1	233	490.026679416609	0
1	235	491.308263830936	0
1	240	511.265758322659	0
1	242	514.420445053881	0
1	243	522.424619923917	0
1	255	540.977110483324	0
1	256	551.068623229647	0
1	258	551.819681983572	0
1	260	554.511948886503	1
1	261	559.046479057133	1
1	262	562.747109831065	0
1	271	575.952425612315	0
1	272	578.486729400286	0
1	274	583.288797401775	0
1	275	585.198943135558	0
1	277	588.718100361583	0
1	278	589.296223018255	0
1	303	643.125925376857	0
1	305	645.586996621865	1
1	306	646.145981076298	1
1	307	648.887942052682	0
1	335	730.571370209296	0
1	337	734.350173070654	1
1	338	736.048219202098	1
1	351	767.789325998757	0
1	371	810.658340050417	0
1	372	812.862239278141	0
1	385	884.907727247863	0
1	387	887.721201712711	1
1	389	888.414522886148	2
1	391	888.512631947575	3
1	393	890.614748597704	4
1	394	892.039755949769	4
1	401	904.793135629568	3
1	404	916.561839850121	2
1	408	921.637319564409	2
1	412	933.050810641064	3
1	415	933.540806906043	3
1	416	934.027898052516	2
1	417	934.276352601971	1
1	420	935.832377719279	0
1	429	955.511706174683	0
1	430	958.057651989517	0
1	450	994.890497857697	0
1	452	1003.331701847225	1
1	457	1007.900949392829	1
1	458	1010.58057890132	0
1	467	1024.71278138575	0
1	469	1033.063840915732	1
1	470	1033.504499268349	1
1	471	1039.916542462858	0
1	473	1051.810539160986	0
1	476	1057.046193158647	0
1	481	1065.212657206365	0
1	482	1065.722801954575	0
1	484	1065.754729663329	0
1	488	1080.816328212444	1
1	497	1089.624094944026	1
1	500	1091.293675210258	0
1	502	1093.090213003979	0
1	503	1093.827672612088	0
1	550	1190.157796246335	0
1	554	1195.018006867426	1
1	557	1206.632439255732	1
1	558	1215.164007509737	0
1	566	1254.157083332267	0
1	567	1256.058959653591	0
1	581	1280.882010518192	0
1	582	1283.258849428946	0
1	584	1313.151903889802	0
1	592	1321.444395591257	1
1	594	1325.585896946281	2
1	597	1326.769489054766	2
1	598	1332.301909941574	1
1	599	1334.535700575817	0
1	601	1335.422098015786	0
1	602	1336.002625048215	0
1	604	1338.793171785704	0
1	605	1340.544809012119	0
1	609	1343.945698054676	0
1	611	1344.605648280557	1
1	613	1348.23718360817	2
1	614	1350.285355820117	2
1	615	1351.614368738038	1
1	616	1351.660216010578	0
1	618	1354.444723385226	0
1	619	1355.404070785946	0
1	621	1363.78207600242	0
1	622	1369.394380683126	0
1	624	1372.897775342055	0
1	625	1377.187094335321	0
1	628	1380.740144125913	0
1	633	1394.845360614103	0
1	652	1449.877692855951	0
1	653	1458.405051856323	0
1	655	1463.860393903988	0
1	656	1467.010055122336	0
1	660	1472.968465229854	0
1	661	1482.472524600783	0
1	668	1519.198196621634	0
1	672	1532.42682870514	1
1	675	1534.684813681393	1
1	676	1537.094798977733	0
1	681	1550.165412899953	0
1	685	1554.583269324379	1
1	686	1562.507408913406	1
1	691	1570.225736260285	0
1	695	1573.502541172078	0
1	696	1582.133857235011	0
1	717	1622.789686438765	0
1	719	1626.079452015312	1
1	723	1630.884862694327	2
1	725	1635.526245392597	3
1	726	1642.255370065848	3
1	727	1646.36954360982	2
1	728	1651.273946013438	1
1	729	1655.152616978806	0
1	734	1672.708889509399	0
1	735	1676.242603133911	0
1	745	1683.53909461402	0
1	746	1684.527044428984	0
1	748	1684.610946595907	0
1	752	1685.324302382972	1
1	753	1690.019256561428	1
1	755	1690.607090687069	1
1	757	1690.716656719464	2
1	758	1691.012360372385	2
1	763	1700.614117465765	1
1	764	1701.765808725006	0
1	772	1722.801084257979	0
1	773	1726.514999010906	0
1	782	1752.565669775121	0
1	783	1753.513201983468	0
1	785	1757.548582860074	0
1	786	1765.630458643494	0
1	803	1795.945836784854	0
1	804	1801.800649517653	0
1	809	1803.075119845715	0
1	810	1810.877700219942	0
1	834	1863.031907122048	0
1	835	1863.693833687265	0
1	839	1873.807397067592	0
1	840	1874.935416614439	0
1	842	1876.768904317585	0
1	845	1877.762649857053	0
1	855	1890.39997952919	0
1	856	1890.49014857395	0
1	859	1891.62937734553	0
1	860	1893.11478697865	0
1	864	1895.714537944116	0
1	870	1904.656803873486	1
1	874	1907.741361857288	2
1	876	1907.770545241994	3
1	877	1908.366492276971	3
1	878	1908.826490434432	2
1	880	1910.078089205621	2
1	883	1914.02412637532	2
1	886	1918.856992082207	1
1	887	1919.393885133657	0
1	892	1928.628792155236	0
1	895	1931.293351446147	0
1	902	1940.266183214219	0
1	903	1945.29165037726	0
1	915	1969.677378120698	0
1	918	1975.577098369112	0
1	934	2005.109057834261	0
1	935	2007.006401498475	0
1	948	2037.716048677079	0
1	959	2069.003496402652	0
1	965	2096.363142973599	0
1	967	2103.40630497504	1
1	973	2118.70735399252	2
1	974	2120.49794914743	2
1	979	2129.500526379625	1
1	981	2130.419533422778	1
1	982	2131.516140355267	1
1	983	2134.237527982179	0
1	993	2149.699629152779	0
1	996	2155.880905465048	0
1	1006	2180.406746134353	0
1	1011	2184.319236171265	0
1	1015	2189.056782590741	0
1	1016	2190.69315338113	0
1	1026	2208.817946604845	0
1	1027	2211.296957595625	0
1	1039	2249.007462530087	0
1	1040	2250.044314941036	0
1	1047	2267.540485069693	0
1	1050	2268.715333539285	0
1	1057	2284.914111308136	0
1	1058	2288.793148161008	0
1	1073	2303.01610025261	0
1	1074	2304.87588335855	0
1	1097	2370.815889430469	0
1	1099	2386.415765345996	1
1	1104	2393.981077711672	1
1	1105	2393.988779564857	0
1	1120	2426.057704019991	0
1	1122	2426.901955418237	1
1	1126	2436.157063888962	2
1	1131	2447.77326210165	2
1	1132	2450.951751238213	1
1	1133	2451.802938758035	0
1	1140	2467.123966566147	0
1	1143	2468.541864716541	0
1	1146	2473.867866227238	0
1	1147	2476.819357358599	0
1	1157	2489.726720628059	0
1	1158	2492.86212670702	0
2	154	350.7890135168	18
2	155	352.519419087497	19
2	164	368.376554750083	20
2	167	370.906481096696	21
2	168	375.602494444828	22
2	173	383.79960290475	23
2	174	384.145636243284	24
2	179	386.700387786848	25
2	194	402.135300703254	26
2	207	414.538335467517	27
2	212	432.772601143092	28
2	213	433.724773070279	29
2	214	443.809997738911	30
2	217	461.693512929868	31
2	223	468.995377166077	32
2	226	474.379593891973	33
2	233	490.026679416609	34
2	240	511.265758322659	35
2	243	522.424619923917	36
2	256	551.068623229647	37
2	261	559.046479057133	38
2	262	562.747109831065	39
2	272	578.486729400286	40
2	275	585.198943135558	41
2	278	589.296223018255	42
2	306	646.145981076298	43
2	307	648.887942052682	44
2	338	736.048219202098	45
2	351	767.789325998757	46
2	372	812.862239278141	47
2	394	892.039755949769	48
2	401	904.793135629568	49
2	404	916.561839850121	50
2	415	933.540806906043	51
2	416	934.027898052516	52
2	417	934.276352601971	53
2	420	935.832377719279	54
2	430	958.057651989517	55
2	457	1007.900949392829	56
2	458	1010.58057890132	57
2	470	1033.504499268349	58
2	471	1039.916542462858	59
2	476	1057.046193158647	60
2	482	1065.722801954575	61
2	497	1089.624094944026	62
2	500	1091.293675210258	63
2	503	1093.827672612088	64
2	557	1206.632439255732	65
2	558	1215.164007509737	66
2	567	1256.058959653591	67
2	582	1283.258849428946	68
2	597	1326.769489054766	69
2	598	1332.301909941574	70
2	599	1334.535700575817	71
2	602	1336.002625048215	72
2	605	1340.544809012119	73
2	614	1350.285355820117	74
2	615	1351.614368738038	75
2	616	1351.660216010578	76
2	619	1355.404070785946	77
2	622	1369.394380683126	78
2	625	1377.187094335321	79
2	633	1394.845360614103	80
2	653	1458.405051856323	81
2	656	1467.010055122336	82
2	661	1482.472524600783	83
2	675	1534.684813681393	84
2	676	1537.094798977733	85
2	686	1562.507408913406	86
2	691	1570.225736260285	87
2	696	1582.133857235011	88
2	726	1642.255370065848	89
2	727	1646.36954360982	90
2	728	1651.273946013438	91
2	729	1655.152616978806	92
2	735	1676.242603133911	93
2	746	1684.527044428984	94
2	753	1690.019256561428	95
2	758	1691.012360372385	96
2	763	1700.614117465765	97
2	764	1701.765808725006	98
2	773	1726.514999010906	99
2	783	1753.513201983468	100
2	786	1765.630458643494	101
2	804	1801.800649517653	102
2	810	1810.877700219942	103
2	835	1863.693833687265	104
2	840	1874.935416614439	105
2	845	1877.762649857053	106
2	856	1890.49014857395	107
2	860	1893.11478697865	108
2	877	1908.366492276971	109
2	878	1908.826490434432	110
2	883	1914.02412637532	111
2	886	1918.856992082207	112
2	887	1919.393885133657	113
2	895	1931.293351446147	114
2	903	1945.29165037726	115
2	918	1975.577098369112	116
2	935	2007.006401498475	117
2	959	2069.003496402652	118
2	974	2120.49794914743	119
2	979	2129.500526379625	120
2	982	2131.516140355267	121
2	983	2134.237527982179	122
2	996	2155.880905465048	123
2	1011	2184.319236171265	124
2	1016	2190.69315338113	125
2	1027	2211.296957595625	126
2	1040	2250.044314941036	127
2	1050	2268.715333539285	128
2	1058	2288.793148161008	129
2	1074	2304.87588335855	130
2	1104	2393.981077711672	131
2	1105	2393.988779564857	132
2	1131	2447.77326210165	133
2	1132	2450.951751238213	134
2	1133	2451.802938758035	135
2	1143	2468.541864716541	136
2	1147	2476.819357358599	137
2	1158	2492.86212670702	138
3	154	350.7890135168	26.65652465472
3	155	352.519419087497	16.336746955465
3	164	368.376554750083	27.229612994628
3	167	370.906481096696	20.734969885303
3	168	375.602494444828	16.425492124007
3	173	383.79960290475	18.53865546788
3	174	384.145636243284	16.047446481249
3	179	386.700387786848	0.705331850989
3	194	402.135300703254	0.975920557753
3	207	414.538335467517	5.957363454425
3	212	432.772601143092	20.789567239542
3	213	433.724773070279	20.847969766252
3	214	443.809997738911	21.663925023623
3	217	461.693512929868	14.918485734977
3	223	468.995377166077	0.545233070357
3	226	474.379593891973	1.835421862552
3	233	490.026679416609	2.950503203888
3	240	511.265758322659	19.957494491723
3	243	522.424619923917	8.004174870036
3	256	551.068623229647	10.091512746323
3	261	559.046479057133	7.226797073561
3	262	562.747109831065	8.235160944562
3	272	578.486729400286	2.534303787971
3	275	585.198943135558	1.910145733783
3	278	589.296223018255	0.578122656672
3	306	646.145981076298	3.020055699441
3	307	648.887942052682	3.300945430817
3	338	736.048219202098	5.476848992802
3	351	767.789325998757	33.439152928103
3	372	812.862239278141	2.203899227724
3	394	892.039755949769	7.132028701906
3	401	904.793135629568	17.071933916857
3	404	916.561839850121	28.147316963973
3	415	933.540806906043	45.028174958468
3	416	934.027898052516	43.413149454812
3	417	934.276352601971	12.639033037562
3	420	935.832377719279	2.781567078215
3	430	958.057651989517	2.545945814834
3	457	1007.900949392829	13.010451535132
3	458	1010.58057890132	7.248877054095
3	470	1033.504499268349	8.791717882599
3	471	1039.916542462858	6.852701547126
3	476	1057.046193158647	5.235653997661
3	482	1065.722801954575	0.51014474821
3	497	1089.624094944026	23.869365280697
3	500	1091.293675210258	10.477346997814
3	503	1093.827672612088	0.737459608109
3	557	1206.632439255732	16.474643009397
3	558	1215.164007509737	20.146000642311
3	567	1256.058959653591	1.901876321324
3	582	1283.258849428946	2.376838910754
3	597	1326.769489054766	13.617585164964
3	598	1332.301909941574	10.857514350317
3	599	1334.535700575817	8.949803629536
3	602	1336.002625048215	0.580527032429
3	605	1340.544809012119	1.751637226415
3	614	1350.285355820117	6.339657765441
3	615	1351.614368738038	7.008720457481
3	616	1351.660216010578	3.423032402408
3	619	1355.404070785946	0.95934740072
3	622	1369.394380683126	5.612304680706
3	625	1377.187094335321	4.289318993266
3	633	1394.845360614103	14.10521648819
3	653	1458.405051856323	8.527359000372
3	656	1467.010055122336	3.149661218348
3	661	1482.472524600783	9.504059370929
3	675	1534.684813681393	15.486617059759
3	676	1537.094798977733	4.667970272593
3	686	1562.507408913406	12.341996013453
3	691	1570.225736260285	15.642466935906
3	696	1582.133857235011	8.631316062933
3	726	1642.255370065848	19.465683627083
3	727	1646.36954360982	20.290091594508
3	728	1651.273946013438	20.389083319111
3	729	1655.152616978806	19.626371586209
3	735	1676.242603133911	3.533713624512
3	746	1684.527044428984	0.987949814964
3	753	1690.019256561428	5.408309965521
3	758	1691.012360372385	5.688057989413
3	763	1700.614117465765	10.007026778696
3	764	1701.765808725006	11.049152005542
3	773	1726.514999010906	3.713914752927
3	783	1753.513201983468	0.947532208347
3	786	1765.630458643494	8.08187578342
3	804	1801.800649517653	5.854812732799
3	810	1810.877700219942	7.802580374227
3	835	1863.693833687265	0.661926565217
3	840	1874.935416614439	1.128019546847
3	845	1877.762649857053	0.993745539468
3	856	1890.49014857395	0.09016904476
3	860	1893.11478697865	1.48540963312
3	877	1908.366492276971	12.651954332855
3	878	1908.826490434432	4.169686560946
3	883	1914.02412637532	6.282764518032
3	886	1918.856992082207	11.086446840213
3	887	1919.393885133657	9.315795928036
3	895	1931.293351446147	2.664559290911
3	903	1945.29165037726	5.025467163041
3	918	1975.577098369112	5.899720248414
3	935	2007.006401498475	1.897343664214
3	959	2069.003496402652	31.287447725573
3	974	2120.49794914743	24.134806173831
3	979	2129.500526379625	26.094221404585
3	982	2131.516140355267	12.808786362747
3	983	2134.237527982179	3.817994559401
3	996	2155.880905465048	6.181276312269
3	1011	2184.319236171265	3.912490036912
3	1016	2190.69315338113	1.636370790389
3	1027	2211.296957595625	2.47901099078
3	1040	2250.044314941036	1.036852410949
3	1050	2268.715333539285	1.174848469592
3	1058	2288.793148161008	3.879036852872
3	1074	2304.87588335855	1.85978310594
3	1104	2393.981077711672	23.165188281203
3	1105	2393.988779564857	7.573014218861
3	1131	2447.77326210165	21.715558081659
3	1132	2450.951751238213	24.049795819976
3	1133	2451.802938758035	15.645874869073
3	1143	2468.541864716541	1.417898150394
3	1147	2476.819357358599	2.951491131361
3	1158	2492.86212670702	3.135406078961
4	154	350.7890135168	14.606341384768
4	155	352.519419087497	11.372477332042
4	164	368.376554750083	18.20504353869
4	167	370.906481096696	11.729478775875
4	168	375.602494444828	10.341547007958
4	173	383.79960290475	15.701413142715
4	178	385.995055935859	0
4	193	401.159380145501	0
4	202	408.580972013092	0
4	207	414.538335467517	2.555301563967
4	212	432.772601143092	19.895797839065
4	213	433.724773070279	11.578700354991
4	216	446.775027194891	0
4	222	468.45014409572	0
4	225	472.544172029421	0
4	232	487.076176212721	0
4	235	491.308263830936	0
4	242	514.420445053881	0
4	255	540.977110483324	0
4	258	551.819681983572	0
4	261	559.046479057133	4.53453017063
4	271	575.952425612315	0
4	274	583.288797401775	0
4	277	588.718100361583	0
4	303	643.125925376857	0
4	306	646.145981076298	0.558984454433
4	335	730.571370209296	0
4	338	736.048219202098	1.698046131444
4	371	810.658340050417	0
4	385	884.907727247863	0
4	394	892.039755949769	4.318554237058
4	401	904.793135629568	16.37861274342
4	404	916.561839850121	28.049207902546
4	415	933.540806906043	42.926058308339
4	416	934.027898052516	12.390578488107
4	417	934.276352601971	1.225541960907
4	429	955.511706174683	0
4	450	994.890497857697	0
4	457	1007.900949392829	4.569247545604
4	467	1024.71278138575	0
4	470	1033.504499268349	0.440658352617
4	473	1051.810539160986	0
4	481	1065.212657206365	0
4	484	1065.754729663329	0
4	497	1089.624094944026	8.807766731582
4	502	1093.090213003979	0
4	550	1190.157796246335	0
4	557	1206.632439255732	11.614432388306
4	566	1254.157083332267	0
4	581	1280.882010518192	0
4	584	1313.151903889802	0
4	597	1326.769489054766	5.325093463509
4	598	1332.301909941574	6.716012995293
4	601	1335.422098015786	0
4	604	1338.793171785704	0
4	609	1343.945698054676	0
4	614	1350.285355820117	5.67970753956
4	615	1351.614368738038	3.377185129868
4	618	1354.444723385226	0
4	621	1363.78207600242	0
4	624	1372.897775342055	0
4	628	1380.740144125913	0
4	652	1449.877692855951	0
4	655	1463.860393903988	0
4	660	1472.968465229854	0
4	668	1519.198196621634	0
4	675	1534.684813681393	2.257984976253
4	681	1550.165412899953	0
4	686	1562.507408913406	7.924139589027
4	695	1573.502541172078	0
4	717	1622.789686438765	0
4	726	1642.255370065848	16.175918050536
4	727	1646.36954360982	15.484680915493
4	728	1651.273946013438	15.747700620841
4	734	1672.708889509399	0
4	745	1683.53909461402	0
4	748	1684.610946595907	0
4	753	1690.019256561428	4.694954178456
4	758	1691.012360372385	0.405269685316
4	763	1700.614117465765	9.897460746301
4	772	1722.801084257979	0
4	782	1752.565669775121	0
4	785	1757.548582860074	0
4	803	1795.945836784854	0
4	809	1803.075119845715	0
4	834	1863.031907122048	0
4	839	1873.807397067592	0
4	842	1876.768904317585	0
4	855	1890.39997952919	0
4	859	1891.62937734553	0
4	864	1895.714537944116	0
4	877	1908.366492276971	3.709688403485
4	878	1908.826490434432	1.085128577144
4	883	1914.02412637532	6.253581133326
4	886	1918.856992082207	8.778902876586
4	892	1928.628792155236	0
4	902	1940.266183214219	0
4	915	1969.677378120698	0
4	934	2005.109057834261	0
4	948	2037.716048677079	0
4	965	2096.363142973599	0
4	974	2120.49794914743	17.09164417239
4	979	2129.500526379625	10.793172387105
4	982	2131.516140355267	1.096606932489
4	993	2149.699629152779	0
4	1006	2180.406746134353	0
4	1015	2189.056782590741	0
4	1026	2208.817946604845	0
4	1039	2249.007462530087	0
4	1047	2267.540485069693	0
4	1057	2284.914111308136	0
4	1073	2303.01610025261	0
4	1097	2370.815889430469	0
4	1104	2393.981077711672	7.565312365676
4	1120	2426.057704019991	0
4	1131	2447.77326210165	20.871306683413
4	1132	2450.951751238213	14.794687349251
4	1140	2467.123966566147	0
4	1146	2473.867866227238	0
4	1157	2489.726720628059	0
5	159	361.587814466951	6
5	166	370.517362617564	7
5	170	381.15031939228	8
5	172	383.000106765623	9
5	176	385.205731859589	10
5	181	387.231673826958	11
5	183	391.467645020652	12
5	185	391.790327657756	13
5	190	400.240274676465	11
5	196	402.849031992676	11
5	200	408.277538686361	10
5	209	415.825879056699	11
5	220	468.003348668458	11
5	229	479.777162500302	11
5	237	497.643032871097	11
5	239	501.06747342256	12
5	247	529.720340730688	11
5	249	530.664543745399	12
5	265	564.630861679177	8
5	284	607.060157196228	1
5	286	608.817100002223	2
5	290	623.652681534036	1
5	293	626.268215411257	1
5	296	634.226339513972	1
5	299	641.269760757948	1
5	301	642.992641513097	2
5	309	649.251260264539	3
5	314	663.131940718352	1
5	316	670.373604627643	2
5	318	677.811581296454	3
5	320	681.325147848155	4
5	326	697.713954861291	1
5	329	705.670589228675	1
5	332	718.278332535994	1
5	340	739.370792297982	1
5	342	739.531013032072	2
5	344	741.885813294221	3
5	346	749.08452382733	4
5	348	755.707301090235	5
5	350	766.887371715564	6
5	355	771.70993267628	5
5	359	783.247208959	4
5	365	793.563616539954	1
5	368	800.22497064418	1
5	374	814.985995901723	1
5	377	876.737061601873	1
5	380	880.263351200228	1
5	383	884.715060646702	1
5	396	893.057995720692	2
5	398	897.621565833426	3
5	400	904.687267680435	4
5	403	906.148189442126	5
5	406	919.461424773194	6
5	410	923.468924505841	7
5	414	933.372035396762	8
5	419	935.239130551037	9
5	425	947.361177466021	7
5	434	965.713394902006	4
5	437	969.144301495477	4
5	439	978.446267412114	5
5	441	979.290949837497	6
5	443	985.367248631966	7
5	448	991.916379502635	5
5	454	1004.036309392494	6
5	456	1007.313294854891	7
5	475	1055.253222836611	1
5	479	1064.332896723178	1
5	486	1074.458734162069	2
5	490	1084.73509076389	3
5	492	1084.920010614221	4
5	494	1085.344176726577	5
5	496	1086.847302578806	6
5	499	1090.993272535036	7
5	505	1101.359118887311	8
5	507	1102.726871690193	9
5	509	1102.773859650864	10
5	511	1102.808703067666	11
5	513	1103.558692577001	12
5	515	1105.49852764354	13
5	521	1113.898576141939	10
5	523	1118.218172902397	11
5	525	1129.286243436009	12
5	533	1149.330667512377	7
5	538	1168.132939327389	5
5	542	1177.257572825815	4
5	544	1180.200759868871	5
5	546	1180.363532954243	6
5	552	1193.696432415785	5
5	556	1198.036362909496	6
5	569	1256.80320130424	1
5	572	1262.57149398774	1
5	574	1262.817832895913	2
5	576	1264.443793757312	3
5	586	1316.827869198588	1
5	588	1316.836966825172	2
5	590	1317.891645213725	3
5	596	1325.964751757203	4
5	607	1341.896319704022	5
5	630	1390.713665924599	5
5	632	1391.491145976173	6
5	639	1432.109599366781	3
5	642	1435.424498503776	3
5	644	1435.451453764455	4
5	646	1436.34740156385	5
5	658	1470.537153083715	2
5	664	1494.538245268396	2
5	670	1520.42257571502	1
5	674	1533.240568147096	2
5	678	1537.392676850934	3
5	683	1552.745797621676	3
5	688	1564.909420616986	4
5	690	1566.697454731817	5
5	693	1571.139574914787	6
5	700	1591.272968515485	5
5	703	1595.182544280602	5
5	706	1596.777140918567	5
5	712	1617.910615571711	2
5	715	1622.429547964932	2
5	721	1629.439667213029	3
5	737	1676.568257126997	1
5	740	1680.26691701325	1
5	742	1681.635368076538	2
5	750	1685.2420606866	2
5	760	1693.214085867151	3
5	762	1693.850338585547	4
5	766	1705.365906575477	5
5	775	1727.738594423032	2
5	779	1737.523578243873	1
5	788	1776.48107159176	1
5	791	1781.898375840307	1
5	793	1783.251380516264	2
5	795	1783.408564707176	3
5	798	1787.876282173172	3
5	800	1792.56691716898	4
5	806	1802.089588050119	4
5	812	1812.408404696471	4
5	817	1820.014028729581	2
5	819	1820.596842822519	3
5	822	1824.037007746774	3
5	827	1843.87114111351	1
5	830	1853.396838359014	1
5	832	1858.475513299252	2
5	844	1876.886942893869	1
5	847	1886.063619410735	2
5	849	1888.644437598973	3
5	851	1888.850596083817	4
5	862	1893.65186083956	2
5	866	1902.201910201055	3
5	868	1904.594850998163	4
5	872	1907.186420434709	5
5	882	1911.280504890157	6
5	885	1918.455621373657	7
5	890	1922.630736722385	7
5	894	1931.007132665202	8
5	897	1932.733605221341	9
5	900	1939.881984605495	9
5	906	1954.337475071124	9
5	909	1961.404136305048	9
5	913	1967.826872257726	8
5	917	1973.977769645519	9
5	921	1980.79880086202	9
5	925	1988.646059310834	8
5	927	1990.289519978881	9
5	931	1998.882624034751	8
5	937	2010.24701442697	8
5	939	2010.606594549351	9
5	941	2028.407657464782	10
5	943	2030.619084909051	11
5	950	2046.884535755182	9
5	952	2049.934755867752	10
5	954	2053.073870204826	11
5	956	2063.536240371679	12
5	958	2068.179391804684	13
5	969	2106.24467890276	10
5	971	2111.67201245948	11
5	976	2124.276576918475	12
5	978	2126.00628669928	13
5	986	2137.727488543402	13
5	989	2145.095894681443	13
5	995	2151.587321290818	12
5	998	2157.587890184407	13
5	1002	2167.761515143486	12
5	1008	2181.83866788825	11
5	1010	2182.998930779226	12
5	1018	2191.379152475978	11
5	1024	2207.518507673308	8
5	1029	2218.373340417633	9
5	1043	2262.688833919648	1
5	1045	2266.771277960554	2
5	1049	2268.14123197056	3
5	1053	2274.229981918126	3
5	1061	2295.928009914854	1
5	1064	2299.367600235415	1
5	1067	2300.503154335507	1
5	1069	2301.724759587071	2
5	1071	2301.953157066354	3
5	1077	2314.502394381873	3
5	1079	2315.683588688348	4
5	1085	2339.842619891371	1
5	1087	2342.657497307074	2
5	1089	2344.823868400702	3
5	1094	2364.105097919066	1
5	1101	2391.771816139766	1
5	1103	2391.87833102605	2
5	1107	2397.644739807356	3
5	1109	2398.975566228828	4
5	1111	2399.368096068654	5
5	1113	2402.805214477881	6
5	1115	2409.673769388734	7
5	1118	2417.435661793298	7
5	1124	2436.107939185418	8
5	1128	2437.320281692505	9
5	1130	2440.299984748182	10
5	1135	2455.702516081559	11
5	1138	2465.779298357275	11
5	1142	2468.035048194316	12
5	1149	2480.2962639258	12
5	1153	2486.133993132066	11
5	1155	2488.977018924844	12
6	159	361.587814466951	5
6	166	370.517362617564	6
6	170	381.15031939228	7
6	172	383.000106765623	8
6	176	385.205731859589	9
6	181	387.231673826958	10
6	183	391.467645020652	11
6	185	391.790327657756	12
6	186	395.315198700985	12
6	187	397.306362067009	11
6	188	397.838646930116	10
6	190	400.240274676465	10
6	191	401.014410979746	10
6	196	402.849031992676	10
6	197	403.134180002999	10
6	198	407.811530403841	9
6	200	408.277538686361	9
6	209	415.825879056699	10
6	218	466.432141907578	10
6	220	468.003348668458	10
6	227	478.150777686174	10
6	229	479.777162500302	10
6	230	481.300979346808	10
6	237	497.643032871097	10
6	239	501.06747342256	11
6	244	524.075800372697	11
6	245	525.697358833662	10
6	247	529.720340730688	10
6	249	530.664543745399	11
6	250	532.907257444776	11
6	251	533.221647042548	10
6	252	534.913395316781	9
6	253	539.001821393209	8
6	263	563.533653064157	7
6	265	564.630861679177	7
6	266	567.601175774389	7
6	267	568.93050928549	6
6	268	569.058270491568	5
6	269	571.425300269455	4
6	279	589.302195531589	3
6	280	591.332122797882	2
6	281	591.68174340877	1
6	282	593.220548538038	0
6	284	607.060157196228	0
6	286	608.817100002223	1
6	287	609.891254265553	1
6	288	614.041647093421	0
6	290	623.652681534036	0
6	291	626.105070860447	0
6	293	626.268215411257	0
6	294	626.423467939735	0
6	296	634.226339513972	0
6	297	636.269536745886	0
6	299	641.269760757948	0
6	301	642.992641513097	1
6	309	649.251260264539	2
6	310	652.487678876345	2
6	311	658.33521382555	1
6	312	661.648653291272	0
6	314	663.131940718352	0
6	316	670.373604627643	1
6	318	677.811581296454	2
6	320	681.325147848155	3
6	321	685.119111974133	3
6	322	687.160096578703	2
6	323	690.944946302201	1
6	324	696.58475439424	0
6	326	697.713954861291	0
6	327	703.417945936022	0
6	329	705.670589228675	0
6	330	706.352676698001	0
6	332	718.278332535994	0
6	333	720.759123894011	0
6	340	739.370792297982	0
6	342	739.531013032072	1
6	344	741.885813294221	2
6	346	749.08452382733	3
6	348	755.707301090235	4
6	350	766.887371715564	5
6	352	769.145458190996	5
6	353	769.765096174416	4
6	355	771.70993267628	4
6	356	776.459339737249	4
6	357	782.601106590658	3
6	359	783.247208959	3
6	360	783.571756905784	3
6	361	786.240659751394	2
6	362	789.472667297765	1
6	363	792.517001104078	0
6	365	793.563616539954	0
6	366	796.628892877223	0
6	368	800.22497064418	0
6	369	802.241950935576	0
6	374	814.985995901723	0
6	375	815.852825228986	0
6	377	876.737061601873	0
6	378	877.229070228924	0
6	380	880.263351200228	0
6	381	880.451219450446	0
6	383	884.715060646702	0
6	396	893.057995720692	1
6	398	897.621565833426	2
6	400	904.687267680435	3
6	403	906.148189442126	4
6	406	919.461424773194	5
6	410	923.468924505841	6
6	414	933.372035396762	7
6	419	935.239130551037	8
6	421	938.880079817708	8
6	422	938.936810155329	7
6	423	947.130961237718	6
6	425	947.361177466021	6
6	426	950.073943516757	6
6	427	951.149257499033	5
6	431	961.185360892044	4
6	432	965.40195867557	3
6	434	965.713394902006	3
6	435	966.461230746558	3
6	437	969.144301495477	3
6	439	978.446267412114	4
6	441	979.290949837497	5
6	443	985.367248631966	6
6	444	986.251401716633	6
6	445	989.801752590994	5
6	446	990.196328309469	4
6	448	991.916379502635	4
6	454	1004.036309392494	5
6	456	1007.313294854891	6
6	459	1010.743131392888	6
6	460	1011.054191915816	5
6	461	1011.881251867982	4
6	462	1015.329494365791	3
6	463	1016.178839799773	2
6	464	1017.664755243266	1
6	465	1022.144761292122	0
6	475	1055.253222836611	0
6	477	1057.405680917463	0
6	479	1064.332896723178	0
6	486	1074.458734162069	1
6	490	1084.73509076389	2
6	492	1084.920010614221	3
6	494	1085.344176726577	4
6	496	1086.847302578806	5
6	499	1090.993272535036	6
6	505	1101.359118887311	7
6	507	1102.726871690193	8
6	509	1102.773859650864	9
6	511	1102.808703067666	10
6	513	1103.558692577001	11
6	515	1105.49852764354	12
6	516	1106.9271443127	12
6	517	1108.096020612937	11
6	518	1112.051209169703	10
6	519	1112.374751079596	9
6	521	1113.898576141939	9
6	523	1118.218172902397	10
6	525	1129.286243436009	11
6	526	1129.476045750273	11
6	527	1131.863130132785	10
6	528	1133.875253705006	9
6	529	1145.255384663613	8
6	530	1146.372191197765	7
6	531	1148.852288550088	6
6	533	1149.330667512377	6
6	534	1156.397467765569	6
6	535	1158.777735044221	5
6	536	1164.221381815093	4
6	538	1168.132939327389	4
6	539	1169.493034605107	4
6	540	1174.203225438742	3
6	542	1177.257572825815	3
6	544	1180.200759868871	4
6	546	1180.363532954243	5
6	547	1183.902610004039	5
6	548	1187.372073538593	4
6	552	1193.696432415785	4
6	556	1198.036362909496	5
6	559	1217.166505528989	5
6	560	1220.971517316096	4
6	561	1224.042318368269	3
6	562	1224.316932891574	2
6	563	1225.206097608678	1
6	564	1235.947263337393	0
6	569	1256.80320130424	0
6	570	1260.853388285356	0
6	572	1262.57149398774	0
6	574	1262.817832895913	1
6	576	1264.443793757312	2
6	577	1264.880142704391	2
6	578	1265.558010932757	1
6	579	1268.474102385326	0
6	586	1316.827869198588	0
6	588	1316.836966825172	1
6	590	1317.891645213725	2
6	596	1325.964751757203	3
6	607	1341.896319704022	4
6	626	1378.9808092065	4
6	630	1390.713665924599	4
6	632	1391.491145976173	5
6	634	1397.864468489601	5
6	635	1407.544342841838	4
6	636	1408.698822167743	3
6	637	1428.230715128861	2
6	639	1432.109599366781	2
6	640	1433.3985714611	2
6	642	1435.424498503776	2
6	644	1435.451453764455	3
6	646	1436.34740156385	4
6	647	1440.738818115297	4
6	648	1443.076000488634	3
6	649	1444.945469510974	2
6	650	1445.091011629031	1
6	658	1470.537153083715	1
6	662	1489.068500841778	1
6	664	1494.538245268396	1
6	665	1503.151018001118	1
6	666	1504.802422255141	0
6	670	1520.42257571502	0
6	674	1533.240568147096	1
6	678	1537.392676850934	2
6	679	1547.366260094722	2
6	683	1552.745797621676	2
6	688	1564.909420616986	3
6	690	1566.697454731817	4
6	693	1571.139574914787	5
6	697	1586.336430796335	5
6	698	1589.174061340736	4
6	700	1591.272968515485	4
6	701	1592.978091162418	4
6	703	1595.182544280602	4
6	704	1595.571358863066	4
6	706	1596.777140918567	4
6	707	1597.07339314472	4
6	708	1604.715721787854	3
6	709	1609.065364224297	2
6	710	1616.75523325365	1
6	712	1617.910615571711	1
6	713	1621.232543235194	1
6	715	1622.429547964932	1
6	721	1629.439667213029	2
6	730	1655.452339556139	2
6	731	1658.690181794743	1
6	732	1659.132355116792	0
6	737	1676.568257126997	0
6	738	1679.299137518051	0
6	740	1680.26691701325	0
6	742	1681.635368076538	1
6	743	1681.986859426001	1
6	750	1685.2420606866	1
6	760	1693.214085867151	2
6	762	1693.850338585547	3
6	766	1705.365906575477	4
6	767	1707.290839389196	4
6	768	1713.662129549219	3
6	769	1713.771834509436	2
6	770	1721.565506506685	1
6	775	1727.738594423032	1
6	776	1732.182030065344	1
6	777	1734.047192006113	0
6	779	1737.523578243873	0
6	780	1739.025625092766	0
6	788	1776.48107159176	0
6	789	1779.509290775604	0
6	791	1781.898375840307	0
6	793	1783.251380516264	1
6	795	1783.408564707176	2
6	796	1785.554041922625	2
6	798	1787.876282173172	2
6	800	1792.56691716898	3
6	801	1793.842318020869	3
6	806	1802.089588050119	3
6	807	1802.571779903604	3
6	812	1812.408404696471	3
6	813	1813.726754800362	3
6	814	1817.223739255236	2
6	815	1819.373657943257	1
6	817	1820.014028729581	1
6	819	1820.596842822519	2
6	820	1821.948011044328	2
6	822	1824.037007746774	2
6	823	1825.417235396379	2
6	824	1825.761598148889	1
6	825	1825.922177735712	0
6	827	1843.87114111351	0
6	828	1845.172181307998	0
6	830	1853.396838359014	0
6	832	1858.475513299252	1
6	836	1863.69887591562	1
6	837	1868.427705769241	0
6	844	1876.886942893869	0
6	847	1886.063619410735	1
6	849	1888.644437598973	2
6	851	1888.850596083817	3
6	852	1889.206274307062	3
6	853	1890.291290402343	2
6	857	1891.095020632164	1
6	862	1893.65186083956	1
6	866	1902.201910201055	2
6	868	1904.594850998163	3
6	872	1907.186420434709	4
6	882	1911.280504890157	5
6	885	1918.455621373657	6
6	888	1920.16060491938	6
6	890	1922.630736722385	6
6	894	1931.007132665202	7
6	897	1932.733605221341	8
6	898	1934.079632720092	8
6	900	1939.881984605495	8
6	904	1952.435529607119	8
6	906	1954.337475071124	8
6	907	1958.738972250123	8
6	909	1961.404136305048	8
6	910	1965.082972544766	8
6	911	1965.120128063594	7
6	913	1967.826872257726	7
6	917	1973.977769645519	8
6	919	1980.38409729925	8
6	921	1980.79880086202	8
6	922	1981.756821039191	8
6	923	1983.299164199543	7
6	925	1988.646059310834	7
6	927	1990.289519978881	8
6	928	1992.591006546963	8
6	929	1994.449879518517	7
6	931	1998.882624034751	7
6	932	2000.066272838774	7
6	937	2010.24701442697	7
6	939	2010.606594549351	8
6	941	2028.407657464782	9
6	943	2030.619084909051	10
6	944	2032.579877042213	10
6	945	2033.62879551703	9
6	946	2034.351178254875	8
6	950	2046.884535755182	8
6	952	2049.934755867752	9
6	954	2053.073870204826	10
6	956	2063.536240371679	11
6	958	2068.179391804684	12
6	960	2079.495290548856	12
6	961	2084.300279396709	11
6	962	2084.859283214062	10
6	963	2093.812485186233	9
6	969	2106.24467890276	9
6	971	2111.67201245948	10
6	976	2124.276576918475	11
6	978	2126.00628669928	12
6	984	2134.544615254614	12
6	986	2137.727488543402	12
6	987	2140.414422815572	12
6	989	2145.095894681443	12
6	990	2145.0981839893	12
6	991	2148.46628441248	11
6	995	2151.587321290818	11
6	998	2157.587890184407	12
6	999	2158.438288304919	12
6	1000	2162.827371031605	11
6	1002	2167.761515143486	11
6	1003	2173.803725603921	11
6	1004	2177.060181150716	10
6	1008	2181.83866788825	10
6	1010	2182.998930779226	11
6	1012	2186.469611274709	11
6	1013	2188.30188817071	10
6	1018	2191.379152475978	10
6	1019	2200.506369194455	10
6	1020	2201.952373323777	9
6	1021	2205.447444508875	8
6	1022	2205.794975498595	7
6	1024	2207.518507673308	7
6	1029	2218.373340417633	8
6	1030	2220.640496720776	8
6	1031	2222.857379675987	7
6	1032	2222.987813435541	6
6	1033	2227.158880528726	5
6	1034	2234.119023043888	4
6	1035	2236.694379170638	3
6	1036	2237.989594830234	2
6	1037	2242.053075708075	1
6	1041	2259.639351130483	0
6	1043	2262.688833919648	0
6	1045	2266.771277960554	1
6	1049	2268.14123197056	2
6	1051	2269.411401279694	2
6	1053	2274.229981918126	2
6	1054	2278.343245909725	2
6	1055	2282.66376560686	1
6	1059	2292.861795412626	0
6	1061	2295.928009914854	0
6	1062	2296.278953224511	0
6	1064	2299.367600235415	0
6	1065	2299.693029292725	0
6	1067	2300.503154335507	0
6	1069	2301.724759587071	1
6	1071	2301.953157066354	2
6	1075	2307.264954310803	2
6	1077	2314.502394381873	2
6	1079	2315.683588688348	3
6	1080	2318.634578344958	3
6	1081	2326.713240635694	2
6	1082	2327.843338248586	1
6	1083	2330.568420278801	0
6	1085	2339.842619891371	0
6	1087	2342.657497307074	1
6	1089	2344.823868400702	2
6	1090	2347.684429808045	2
6	1091	2351.700231443193	1
6	1092	2355.739925855412	0
6	1094	2364.105097919066	0
6	1095	2368.961155479533	0
6	1101	2391.771816139766	0
6	1103	2391.87833102605	1
6	1107	2397.644739807356	2
6	1109	2398.975566228828	3
6	1111	2399.368096068654	4
6	1113	2402.805214477881	5
6	1115	2409.673769388734	6
6	1116	2416.222156816631	6
6	1118	2417.435661793298	6
6	1124	2436.107939185418	7
6	1128	2437.320281692505	8
6	1130	2440.299984748182	9
6	1135	2455.702516081559	10
6	1136	2462.449389716842	10
6	1138	2465.779298357275	10
6	1142	2468.035048194316	11
6	1144	2471.655205050136	11
6	1149	2480.2962639258	11
6	1150	2481.282719835857	11
6	1151	2482.553653193757	10
6	1153	2486.133993132066	10
6	1155	2488.977018924844	11
7	174	384.145636243284	93.675539592407
7	179	386.700387786848	88.735240931234
7	186	395.315198700985	73.871690874191
7	187	397.306362067009	72.446112235546
7	188	397.838646930116	58.030832755302
7	191	401.014410979746	39.426596512795
7	194	402.135300703254	31.61793808569
7	197	403.134180002999	21.983860610719
7	198	407.811530403841	24.811423638218
7	214	443.809997738911	58.604265879322
7	217	461.693512929868	75.698456994009
7	218	466.432141907578	79.20046808062
7	223	468.995377166077	77.527732145425
7	226	474.379593891973	82.589266234217
7	227	478.150777686174	77.910503009709
7	230	481.300979346808	80.141599201307
7	233	490.026679416609	87.177647423933
7	240	511.265758322659	102.9882196363
7	243	522.424619923917	113.84364791082
7	244	524.075800372697	108.249921316
7	245	525.697358833662	78.922331638771
7	250	532.907257444776	64.903908776318
7	251	533.221647042548	64.771502946828
7	252	534.913395316781	62.36922328736
7	253	539.001821393209	59.224658892907
7	256	551.068623229647	63.992447016926
7	262	562.747109831065	71.438846000129
7	263	563.533653064157	65.89062019306
7	266	567.601175774389	66.533702351829
7	267	568.93050928549	54.510064231609
7	268	569.058270491568	39.33792976088
7	269	571.425300269455	40.760756524056
7	272	578.486729400286	37.509618916962
7	275	585.198943135558	33.379261151986
7	278	589.296223018255	24.665361339078
7	279	589.302195531589	13.349769919274
7	280	591.332122797882	8.043325396107
7	281	591.68174340877	2.963643047187
7	284	607.060157196228	0
7	287	609.891254265553	1.07415426333
7	290	623.652681534036	0
7	293	626.268215411257	0
7	296	634.226339513972	0
7	299	641.269760757948	0
7	307	648.887942052682	5.895300539585
7	310	652.487678876345	9.361753499488
7	311	658.33521382555	9.083953561011
7	314	663.131940718352	0
7	321	685.119111974133	14.74550734649
7	322	687.160096578703	9.348515282249
7	323	690.944946302201	9.619798454046
7	326	697.713954861291	0
7	329	705.670589228675	0
7	332	718.278332535994	0
7	351	767.789325998757	28.418533700775
7	352	769.145458190996	29.614445158924
7	353	769.765096174416	27.879282880195
7	356	776.459339737249	27.374815909919
7	357	782.601106590658	26.893805500423
7	360	783.571756905784	16.68438519022
7	361	786.240659751394	14.530727075114
7	362	789.472667297765	6.225458338765
7	365	793.563616539954	0
7	368	800.22497064418	0
7	374	814.985995901723	0
7	377	876.737061601873	0
7	380	880.263351200228	0
7	383	884.715060646702	0
7	420	935.832377719279	50.924650471416
7	421	938.880079817708	45.822084097016
7	422	938.936810155329	41.315244321903
7	423	947.130961237718	42.443693557283
7	426	950.073943516757	43.925754074631
7	427	951.149257499033	31.687832725839
7	430	958.057651989517	34.588727483676
7	431	961.185360892044	27.813325495282
7	432	965.40195867557	30.162828124533
7	435	966.461230746558	19.100053280537
7	444	986.251401716633	30.73969554195
7	445	989.801752590994	24.088357688988
7	446	990.196328309469	21.052026813992
7	458	1010.58057890132	32.134311489206
7	459	1010.743131392888	31.452181555391
7	460	1011.054191915816	25.68694328385
7	461	1011.881251867982	19.964872365347
7	462	1015.329494365791	20.438996508094
7	463	1016.178839799773	12.142530407279
7	464	1017.664755243266	10.351460388375
7	476	1057.046193158647	1.792970322036
7	479	1064.332896723178	0
7	482	1065.722801954575	0.51014474821
7	500	1091.293675210258	25.538945546929
7	503	1093.827672612088	19.368938450019
7	516	1106.9271443127	22.19205354881
7	517	1108.096020612937	23.176009998716
7	518	1112.051209169703	26.707032443126
7	519	1112.374751079596	25.52744850079
7	526	1129.476045750273	38.482773215237
7	527	1131.863130132785	38.772917128806
7	528	1133.875253705006	32.516134817695
7	529	1145.255384663613	42.52851297342
7	530	1146.372191197765	43.598331546901
7	531	1148.852288550088	46.043585482422
7	534	1156.397467765569	52.838775188568
7	535	1158.777735044221	53.279207400681
7	536	1164.221381815093	50.322805673154
7	539	1169.493034605107	51.27486170271
7	540	1174.203225438742	44.916982002733
7	547	1183.902610004039	34.571942491662
7	548	1187.372073538593	19.239134211204
7	558	1215.164007509737	37.906434683922
7	559	1217.166505528989	36.965745660118
7	560	1220.971517316096	40.607984361853
7	561	1224.042318368269	33.884522121934
7	562	1224.316932891574	30.620500475789
7	563	1225.206097608678	27.169734699182
7	569	1256.80320130424	0
7	572	1262.57149398774	0
7	577	1264.880142704391	2.062309808478
7	578	1265.558010932757	1.114217175445
7	599	1334.535700575817	17.707831377229
7	602	1336.002625048215	19.165658223043
7	605	1340.544809012119	22.653163798394
7	616	1351.660216010578	25.695464253375
7	619	1355.404070785946	19.98197277016
7	622	1369.394380683126	30.601208897422
7	625	1377.187094335321	35.290774631299
7	626	1378.9808092065	35.035111151824
7	633	1394.845360614103	40.400637228877
7	634	1397.864468489601	34.082392487181
7	635	1407.544342841838	34.646567499783
7	636	1408.698822167743	27.95867804183
7	637	1428.230715128861	37.517049204262
7	640	1433.3985714611	41.907425484927
7	647	1440.738818115297	8.629218748516
7	648	1443.076000488634	7.651501984858
7	649	1444.945469510974	9.494015746519
7	650	1445.091011629031	8.743610065181
7	653	1458.405051856323	8.527359000372
7	656	1467.010055122336	3.149661218348
7	661	1482.472524600783	11.935371517068
7	662	1489.068500841778	16.100035611924
7	665	1503.151018001118	8.612772732722
7	676	1537.094798977733	16.672223262713
7	679	1547.366260094722	14.125691947626
7	691	1570.225736260285	32.833059409351
7	696	1582.133857235011	31.968444335058
7	697	1586.336430796335	33.590633174659
7	698	1589.174061340736	24.26464072375
7	701	1592.978091162418	26.280636430601
7	704	1595.571358863066	24.431783948279
7	707	1597.07339314472	23.570851972642
7	708	1604.715721787854	13.442753272369
7	709	1609.065364224297	13.882819943695
7	710	1616.75523325365	19.978092335083
7	713	1621.232543235194	3.321927663483
7	729	1655.152616978806	32.723069013874
7	730	1655.452339556139	32.662653117374
7	731	1658.690181794743	29.250514581714
7	737	1676.568257126997	0
7	740	1680.26691701325	0
7	743	1681.986859426001	0.351491349463
7	746	1684.527044428984	0.987949814964
7	764	1701.765808725006	17.154862129099
7	767	1707.290839389196	22.048778702596
7	768	1713.662129549219	20.448043682068
7	769	1713.771834509436	19.921495923889
7	770	1721.565506506685	16.199599931208
7	773	1726.514999010906	3.713914752927
7	776	1732.182030065344	4.443435642312
7	779	1737.523578243873	0
7	788	1776.48107159176	0
7	791	1781.898375840307	0
7	796	1785.554041922625	2.302661406361
7	801	1793.842318020869	10.433753313693
7	804	1801.800649517653	13.924367344481
7	807	1802.571779903604	10.004862734624
7	810	1810.877700219942	14.931863435088
7	813	1813.726754800362	11.637166750243
7	814	1817.223739255236	14.148619409521
7	815	1819.373657943257	6.965253246786
7	820	1821.948011044328	1.933982314747
7	823	1825.417235396379	4.82039257386
7	824	1825.761598148889	1.724590402115
7	827	1843.87114111351	0
7	830	1853.396838359014	0
7	835	1863.693833687265	5.218320388013
7	836	1863.69887591562	0.666968793572
7	845	1877.762649857053	0.875706963184
7	852	1889.206274307062	3.142654896327
7	853	1890.291290402343	1.64685280337
7	856	1890.49014857395	1.639552490133
7	857	1891.095020632164	0.695041102974
7	860	1893.11478697865	1.48540963312
7	887	1919.393885133657	25.742024294097
7	888	1920.16060491938	24.446066975264
7	895	1931.293351446147	29.091441245092
7	898	1934.079632720092	29.484781721929
7	903	1945.29165037726	38.105229942551
7	904	1952.435529607119	41.155024716962
7	907	1958.738972250123	40.283350876466
7	910	1965.082972544766	42.452235822381
7	911	1965.120128063594	36.491335908358
7	918	1975.577098369112	44.56996570391
7	919	1980.38409729925	47.650492077909
7	922	1981.756821039191	41.874836433696
7	923	1983.299164199543	43.032980985324
7	928	1992.591006546963	38.253531475839
7	929	1994.449879518517	33.045743213469
7	932	2000.066272838774	32.239400581048
7	935	2007.006401498475	37.329023377777
7	944	2032.579877042213	58.602107396694
7	945	2033.62879551703	52.82999465501
7	946	2034.351178254875	45.705118944041
7	959	2069.003496402652	78.713976423771
7	960	2079.495290548856	80.612666514105
7	961	2084.300279396709	79.191221562448
7	962	2084.859283214062	74.612268787092
7	963	2093.812485186233	83.205890636882
7	983	2134.237527982179	105.8298705174
7	984	2134.544615254614	103.92553034556
7	987	2140.414422815572	102.69837413849
7	990	2145.0981839893	98.213648234118
7	991	2148.46628441248	98.531528544728
7	996	2155.880905465048	102.80703526022
7	999	2158.438288304919	94.90204793324
7	1000	2162.827371031605	94.647979226921
7	1003	2173.803725603921	77.440582630322
7	1004	2177.060181150716	70.815502247956
7	1011	2184.319236171265	72.647223711785
7	1012	2186.469611274709	62.193034356234
7	1013	2188.30188817071	62.29560147143
7	1016	2190.69315338113	52.965664837728
7	1019	2200.506369194455	55.410474513012
7	1020	2201.952373323777	52.252744170998
7	1021	2205.447444508875	53.860123218057
7	1022	2205.794975498595	48.207085314188
7	1027	2211.296957595625	43.535442452139
7	1030	2220.640496720776	40.233750586423
7	1031	2222.857379675987	41.018711787737
7	1032	2222.987813435541	39.988882656315
7	1033	2227.158880528726	38.102097937985
7	1034	2234.119023043888	42.73987056791
7	1035	2236.694379170638	29.17587149733
7	1036	2237.989594830234	29.171648225389
7	1037	2242.053075708075	23.679735290442
7	1040	2250.044314941036	1.036852410949
7	1043	2262.688833919648	0
7	1050	2268.715333539285	1.944055578731
7	1051	2269.411401279694	1.870916210001
7	1054	2278.343245909725	10.202013939165
7	1055	2282.66376560686	8.433783688734
7	1058	2288.793148161008	3.879036852872
7	1061	2295.928009914854	0
7	1064	2299.367600235415	0
7	1067	2300.503154335507	0
7	1074	2304.87588335855	3.151123771479
7	1075	2307.264954310803	5.311797244449
7	1080	2318.634578344958	15.618478092348
7	1081	2326.713240635694	12.210846253821
7	1082	2327.843338248586	12.159749560238
7	1085	2339.842619891371	0
7	1090	2347.684429808045	5.026932500971
7	1091	2351.700231443193	6.876363042491
7	1094	2364.105097919066	0
7	1105	2393.988779564857	2.216963425091
7	1116	2416.222156816631	24.343825790581
7	1133	2451.802938758035	54.158198950679
7	1136	2462.449389716842	63.473823488014
7	1143	2468.541864716541	69.173768647887
7	1144	2471.655205050136	68.849990572255
7	1147	2476.819357358599	67.145587969865
7	1150	2481.282719835857	63.847058042559
7	1151	2482.553653193757	56.495949173766
7	1158	2492.86212670702	56.754187521602
8	178	385.995055935859	6
8	193	401.159380145501	7
8	202	408.580972013092	8
8	216	446.775027194891	9
8	222	468.45014409572	10
8	225	472.544172029421	11
8	232	487.076176212721	12
8	235	491.308263830936	13
8	242	514.420445053881	14
8	255	540.977110483324	15
8	258	551.819681983572	16
8	271	575.952425612315	17
8	274	583.288797401775	18
8	277	588.718100361583	19
8	303	643.125925376857	20
8	385	884.907727247863	21
8	429	955.511706174683	22
8	450	994.890497857697	23
8	481	1065.212657206365	24
8	484	1065.754729663329	25
8	502	1093.090213003979	26
8	550	1190.157796246335	27
8	601	1335.422098015786	28
8	604	1338.793171785704	29
8	609	1343.945698054676	30
8	618	1354.444723385226	31
8	621	1363.78207600242	32
8	624	1372.897775342055	33
8	628	1380.740144125913	34
8	652	1449.877692855951	35
8	655	1463.860393903988	36
8	660	1472.968465229854	37
8	681	1550.165412899953	38
8	695	1573.502541172078	39
8	717	1622.789686438765	40
8	745	1683.53909461402	41
8	748	1684.610946595907	42
8	772	1722.801084257979	43
8	803	1795.945836784854	44
8	809	1803.075119845715	45
8	834	1863.031907122048	46
8	855	1890.39997952919	47
8	859	1891.62937734553	48
8	864	1895.714537944116	49
8	892	1928.628792155236	50
8	902	1940.266183214219	51
8	915	1969.677378120698	52
8	934	2005.109057834261	53
8	948	2037.716048677079	54
8	965	2096.363142973599	55
8	993	2149.699629152779	56
8	1006	2180.406746134353	57
8	1015	2189.056782590741	58
8	1026	2208.817946604845	59
8	1039	2249.007462530087	60
8	1047	2267.540485069693	61
8	1057	2284.914111308136	62
8	1073	2303.01610025261	63
8	1120	2426.057704019991	64
8	1140	2467.123966566147	65
8	1146	2473.867866227238	66
8	1157	2489.726720628059	67
9	186	395.315198700985	29
9	187	397.306362067009	30
9	188	397.838646930116	31
9	191	401.014410979746	32
9	197	403.134180002999	33
9	198	407.811530403841	34
9	218	466.432141907578	35
9	227	478.150777686174	36
9	230	481.300979346808	37
9	244	524.075800372697	38
9	245	525.697358833662	39
9	250	532.907257444776	40
9	251	533.221647042548	41
9	252	534.913395316781	42
9	253	539.001821393209	43
9	263	563.533653064157	44
9	266	567.601175774389	45
9	267	568.93050928549	46
9	268	569.058270491568	47
9	269	571.425300269455	48
9	279	589.302195531589	49
9	280	591.332122797882	50
9	281	591.68174340877	51
9	282	593.220548538038	52
9	287	609.891254265553	53
9	288	614.041647093421	54
9	291	626.105070860447	55
9	294	626.423467939735	56
9	297	636.269536745886	57
9	310	652.487678876345	58
9	311	658.33521382555	59
9	312	661.648653291272	60
9	321	685.119111974133	61
9	322	687.160096578703	62
9	323	690.944946302201	63
9	324	696.58475439424	64
9	327	703.417945936022	65
9	330	706.352676698001	66
9	333	720.759123894011	67
9	352	769.145458190996	68
9	353	769.765096174416	69
9	356	776.459339737249	70
9	357	782.601106590658	71
9	360	783.571756905784	72
9	361	786.240659751394	73
9	362	789.472667297765	74
9	363	792.517001104078	75
9	366	796.628892877223	76
9	369	802.241950935576	77
9	375	815.852825228986	78
9	378	877.229070228924	79
9	381	880.451219450446	80
9	421	938.880079817708	81
9	422	938.936810155329	82
9	423	947.130961237718	83
9	426	950.073943516757	84
9	427	951.149257499033	85
9	431	961.185360892044	86
9	432	965.40195867557	87
9	435	966.461230746558	88
9	444	986.251401716633	89
9	445	989.801752590994	90
9	446	990.196328309469	91
9	459	1010.743131392888	92
9	460	1011.054191915816	93
9	461	1011.881251867982	94
9	462	1015.329494365791	95
9	463	1016.178839799773	96
9	464	1017.664755243266	97
9	465	1022.144761292122	98
9	477	1057.405680917463	99
9	516	1106.9271443127	100
9	517	1108.096020612937	101
9	518	1112.051209169703	102
9	519	1112.374751079596	103
9	526	1129.476045750273	104
9	527	1131.863130132785	105
9	528	1133.875253705006	106
9	529	1145.255384663613	107
9	530	1146.372191197765	108
9	531	1148.852288550088	109
9	534	1156.397467765569	110
9	535	1158.777735044221	111
9	536	1164.221381815093	112
9	539	1169.493034605107	113
9	540	1174.203225438742	114
9	547	1183.902610004039	115
9	548	1187.372073538593	116
9	559	1217.166505528989	117
9	560	1220.971517316096	118
9	561	1224.042318368269	119
9	562	1224.316932891574	120
9	563	1225.206097608678	121
9	564	1235.947263337393	122
9	570	1260.853388285356	123
9	577	1264.880142704391	124
9	578	1265.558010932757	125
9	579	1268.474102385326	126
9	626	1378.9808092065	127
9	634	1397.864468489601	128
9	635	1407.544342841838	129
9	636	1408.698822167743	130
9	637	1428.230715128861	131
9	640	1433.3985714611	132
9	647	1440.738818115297	133
9	648	1443.076000488634	134
9	649	1444.945469510974	135
9	650	1445.091011629031	136
9	662	1489.068500841778	137
9	665	1503.151018001118	138
9	666	1504.802422255141	139
9	679	1547.366260094722	140
9	697	1586.336430796335	141
9	698	1589.174061340736	142
9	701	1592.978091162418	143
9	704	1595.571358863066	144
9	707	1597.07339314472	145
9	708	1604.715721787854	146
9	709	1609.065364224297	147
9	710	1616.75523325365	148
9	713	1621.232543235194	149
9	730	1655.452339556139	150
9	731	1658.690181794743	151
9	732	1659.132355116792	152
9	738	1679.299137518051	153
9	743	1681.986859426001	154
9	767	1707.290839389196	155
9	768	1713.662129549219	156
9	769	1713.771834509436	157
9	770	1721.565506506685	158
9	776	1732.182030065344	159
9	777	1734.047192006113	160
9	780	1739.025625092766	161
9	789	1779.509290775604	162
9	796	1785.554041922625	163
9	801	1793.842318020869	164
9	807	1802.571779903604	165
9	813	1813.726754800362	166
9	814	1817.223739255236	167
9	815	1819.373657943257	168
9	820	1821.948011044328	169
9	823	1825.417235396379	170
9	824	1825.761598148889	171
9	825	1825.922177735712	172
9	828	1845.172181307998	173
9	836	1863.69887591562	174
9	837	1868.427705769241	175
9	852	1889.206274307062	176
9	853	1890.291290402343	177
9	857	1891.095020632164	178
9	888	1920.16060491938	179
9	898	1934.079632720092	180
9	904	1952.435529607119	181
9	907	1958.738972250123	182
9	910	1965.082972544766	183
9	911	1965.120128063594	184
9	919	1980.38409729925	185
9	922	1981.756821039191	186
9	923	1983.299164199543	187
9	928	1992.591006546963	188
9	929	1994.449879518517	189
9	932	2000.066272838774	190
9	944	2032.579877042213	191
9	945	2033.62879551703	192
9	946	2034.351178254875	193
9	960	2079.495290548856	194
9	961	2084.300279396709	195
9	962	2084.859283214062	196
9	963	2093.812485186233	197
9	984	2134.544615254614	198
9	987	2140.414422815572	199
9	990	2145.0981839893	200
9	991	2148.46628441248	201
9	999	2158.438288304919	202
9	1000	2162.827371031605	203
9	1003	2173.803725603921	204
9	1004	2177.060181150716	205
9	1012	2186.469611274709	206
9	1013	2188.30188817071	207
9	1019	2200.506369194455	208
9	1020	2201.952373323777	209
9	1021	2205.447444508875	210
9	1022	2205.794975498595	211
9	1030	2220.640496720776	212
9	1031	2222.857379675987	213
9	1032	2222.987813435541	214
9	1033	2227.158880528726	215
9	1034	2234.119023043888	216
9	1035	2236.694379170638	217
9	1036	2237.989594830234	218
9	1037	2242.053075708075	219
9	1041	2259.639351130483	220
9	1051	2269.411401279694	221
9	1054	2278.343245909725	222
9	1055	2282.66376560686	223
9	1059	2292.861795412626	224
9	1062	2296.278953224511	225
9	1065	2299.693029292725	226
9	1075	2307.264954310803	227
9	1080	2318.634578344958	228
9	1081	2326.713240635694	229
9	1082	2327.843338248586	230
9	1083	2330.568420278801	231
9	1090	2347.684429808045	232
9	1091	2351.700231443193	233
9	1092	2355.739925855412	234
9	1095	2368.961155479533	235
9	1116	2416.222156816631	236
9	1136	2462.449389716842	237
9	1144	2471.655205050136	238
9	1150	2481.282719835857	239
9	1151	2482.553653193757	240
10	186	395.315198700985	97.350051845371
10	187	397.306362067009	75.862854240215
10	188	397.838646930116	72.978397098653
10	191	401.014410979746	61.206596804932
10	197	403.134180002999	32.616817385435
10	198	407.811530403841	26.661211011561
10	218	466.432141907578	80.437085971719
10	227	478.150777686174	86.360450028418
10	230	481.300979346808	81.060704670343
10	244	524.075800372697	115.4948283596
10	245	525.697358833662	109.87147977696
10	250	532.907257444776	86.132230249885
10	251	533.221647042548	65.21829837409
10	252	534.913395316781	66.463251221061
10	253	539.001821393209	66.457649363788
10	263	563.533653064157	72.225389233221
10	266	567.601175774389	69.958142903292
10	267	568.93050928549	67.86303586293
10	268	569.058270491568	54.637825437687
10	269	571.425300269455	41.704959538767
10	279	589.302195531589	24.671333852412
10	280	591.332122797882	15.379697185567
10	281	591.68174340877	8.392946006995
10	282	593.220548538038	4.502448176455
10	287	609.891254265553	2.831097069325
10	288	614.041647093421	5.224547091198
10	291	626.105070860447	2.452389326411
10	294	626.423467939735	0.155252528478
10	297	636.269536745886	2.043197231914
10	310	652.487678876345	9.495037363248
10	311	658.33521382555	15.209288448693
10	312	661.648653291272	12.397393026733
10	321	685.119111974133	21.987171255781
10	322	687.160096578703	16.78649195106
10	323	690.944946302201	13.133365005747
10	324	696.58475439424	15.259606546085
10	327	703.417945936022	5.703991074731
10	330	706.352676698001	0.682087469326
10	333	720.759123894011	2.480791358017
10	352	769.145458190996	29.774665893014
10	353	769.765096174416	30.234083142344
10	356	776.459339737249	34.573526443028
10	357	782.601106590658	33.516582763328
10	360	783.571756905784	27.864455815549
10	361	786.240659751394	19.35328803583
10	362	789.472667297765	17.762734621485
10	363	792.517001104078	9.269792145078
10	366	796.628892877223	3.065276337269
10	369	802.241950935576	2.016980291396
10	375	815.852825228986	0.866829327263
10	378	877.229070228924	0.492008627051
10	381	880.451219450446	0.187868250218
10	421	938.880079817708	53.972352569845
10	422	938.936810155329	45.878814434637
10	423	947.130961237718	49.509395404292
10	426	950.073943516757	45.386675836322
10	427	951.149257499033	45.001068056907
10	431	961.185360892044	37.716436386203
10	432	965.40195867557	32.029923278808
10	435	966.461230746558	31.222100195521
10	444	986.251401716633	38.890224250612
10	445	989.801752590994	34.290046416311
10	446	990.196328309469	24.482933407463
10	459	1010.743131392888	32.296863980774
10	460	1011.054191915816	31.763242078319
10	461	1011.881251867982	26.514003236016
10	462	1015.329494365791	23.413114863156
10	463	1016.178839799773	21.288341942076
10	464	1017.664755243266	13.628445850772
10	465	1022.144761292122	14.831466437231
10	477	1057.405680917463	2.152458080852
10	516	1106.9271443127	32.468410150631
10	517	1108.096020612937	23.360929849047
10	518	1112.051209169703	27.131198555482
10	519	1112.374751079596	27.030574353019
10	526	1129.476045750273	42.628743171467
10	527	1131.863130132785	40.869857597749
10	528	1133.875253705006	40.785040701027
10	529	1145.255384663613	43.896265776302
10	530	1146.372191197765	43.645319507572
10	531	1148.852288550088	46.078428899224
10	534	1156.397467765569	53.588764697903
10	535	1158.777735044221	55.21904246722
10	536	1164.221381815093	58.722854171553
10	539	1169.493034605107	55.594458463168
10	540	1174.203225438742	55.985052536345
10	547	1183.902610004039	54.61636656803
10	548	1187.372073538593	38.041406026216
10	559	1217.166505528989	39.908932703174
10	560	1220.971517316096	40.770757447225
10	561	1224.042318368269	43.678785414026
10	562	1224.316932891574	34.159136645239
10	563	1225.206097608678	31.509665192893
10	564	1235.947263337393	37.910900427897
10	570	1260.853388285356	4.050186981116
10	577	1264.880142704391	2.308648716651
10	578	1265.558010932757	2.740178036844
10	579	1268.474102385326	4.030308628014
10	626	1378.9808092065	37.084489502478
10	634	1397.864468489601	43.419745104375
10	635	1407.544342841838	43.762266839418
10	636	1408.698822167743	35.801046825688
10	637	1428.230715128861	47.490571002948
10	640	1433.3985714611	42.684905536501
10	647	1440.738818115297	49.247672139124
10	648	1443.076000488634	10.966401121853
10	649	1444.945469510974	9.520971007198
10	650	1445.091011629031	9.639557864576
10	662	1489.068500841778	18.531347758063
10	665	1503.151018001118	30.182552771264
10	666	1504.802422255141	10.264176986745
10	679	1547.366260094722	26.943684379702
10	697	1586.336430796335	36.171017896382
10	698	1589.174061340736	36.42826371906
10	701	1592.978091162418	28.068670545432
10	704	1595.571358863066	28.873904131249
10	707	1597.07339314472	25.933818229933
10	708	1604.715721787854	31.213180615776
10	709	1609.065364224297	17.792395708812
10	710	1616.75523325365	21.572688973048
10	713	1621.232543235194	24.455402316627
10	730	1655.452339556139	33.022791591207
10	731	1658.690181794743	35.900495355978
10	732	1659.132355116792	29.692687903763
10	738	1679.299137518051	2.730880391054
10	743	1681.986859426001	1.719942412751
10	767	1707.290839389196	22.679892793289
10	768	1713.662129549219	28.420068862619
10	769	1713.771834509436	20.557748642285
10	770	1721.565506506685	27.715167921138
10	776	1732.182030065344	9.380945807365
10	777	1734.047192006113	6.308597583081
10	780	1739.025625092766	1.502046848893
10	789	1779.509290775604	3.028219183844
10	796	1785.554041922625	3.655666082318
10	801	1793.842318020869	10.590937504605
10	807	1802.571779903604	14.695497730432
10	813	1813.726754800362	17.780918015508
10	814	1817.223739255236	15.134151205117
10	815	1819.373657943257	16.298538097542
10	820	1821.948011044328	9.539606347857
10	823	1825.417235396379	5.403206666798
10	824	1825.761598148889	5.16475532637
10	825	1825.922177735712	1.885169988938
10	828	1845.172181307998	1.301040194488
10	836	1863.69887591562	5.223362616368
10	837	1868.427705769241	5.395798647193
10	852	1889.206274307062	12.319331413193
10	853	1890.291290402343	4.227670991608
10	857	1891.095020632164	2.244424548347
10	888	1920.16060491938	26.50874407982
10	898	1934.079632720092	31.877722519037
10	904	1952.435529607119	45.24910917241
10	907	1958.738972250123	47.458467359966
10	910	1965.082972544766	46.627351171109
10	911	1965.120128063594	42.489391341209
10	919	1980.38409729925	49.376964634048
10	922	1981.756821039191	49.02321581785
10	923	1983.299164199543	43.417179594048
10	928	1992.591006546963	52.324823332744
10	929	1994.449879518517	40.112404447393
10	932	2000.066272838774	38.662136533726
10	944	2032.579877042213	62.902498921515
10	945	2033.62879551703	59.651025871511
10	946	2034.351178254875	53.552377392855
10	960	2079.495290548856	89.205770569975
10	961	2084.300279396709	85.417655361958
10	962	2084.859283214062	79.750225379801
10	963	2093.812485186233	83.565470759263
10	984	2134.544615254614	106.13695778983
10	987	2140.414422815572	109.79533790652
10	990	2145.0981839893	107.38213531222
10	991	2148.46628441248	101.5817486573
10	999	2158.438288304919	105.36441810009
10	1000	2162.827371031605	99.291130659926
10	1003	2173.803725603921	105.62433379924
10	1004	2177.060181150716	80.697038177117
10	1012	2186.469611274709	74.797598815229
10	1013	2188.30188817071	64.025311252235
10	1019	2200.506369194455	62.778880651053
10	1020	2201.952373323777	56.856478642334
10	1021	2205.447444508875	55.747815356096
10	1022	2205.794975498595	54.207654207777
10	1030	2220.640496720776	52.87898157729
10	1031	2222.857379675987	42.450633541634
10	1032	2222.987813435541	41.149145547291
10	1033	2227.158880528726	44.1599497495
10	1034	2234.119023043888	45.062240453147
10	1035	2236.694379170638	45.31522669466
10	1036	2237.989594830234	30.471087156926
10	1037	2242.053075708075	33.23512910323
10	1041	2259.639351130483	10.631888600396
10	1051	2269.411401279694	2.64012331914
10	1054	2278.343245909725	10.802760840032
10	1055	2282.66376560686	14.5225336363
10	1059	2292.861795412626	7.94768410449
10	1062	2296.278953224511	0.350943309657
10	1065	2299.693029292725	0.32542905731
10	1075	2307.264954310803	5.540194723732
10	1080	2318.634578344958	16.681421278604
10	1081	2326.713240635694	23.697140383084
10	1082	2327.843338248586	13.340943866713
10	1083	2330.568420278801	14.884831590453
10	1090	2347.684429808045	7.841809916674
10	1091	2351.700231443193	9.042734136119
10	1092	2355.739925855412	10.91605745471
10	1095	2368.961155479533	4.856057560467
10	1116	2416.222156816631	24.450340676865
10	1136	2462.449389716842	64.804649909486
10	1144	2471.655205050136	72.287108981482
10	1150	2481.282719835857	71.608950447123
10	1151	2482.553653193757	65.117991400459
11	1159	2500	0.096
12	1159	2500	0.0552

