version 2
run experiments_medium_game_mode1-1495-20230311-09:45:21-16172
attr configname experiments_medium_game_mode1
attr datetime 20230311-09:45:21
attr experiment experiments_medium_game_mode1
attr inifile omnetpp.ini
attr iterationvars "$0=7, $1=7, $2=100"
attr iterationvarsf 7,7,100-
attr measurement "$0=7, $1=7, $2=100"
attr network Network
attr processid 16172
attr repetition 25
attr replication #25
attr resultdir results
attr runnumber 1495
attr seedset 25
param *.boss.arrival_mean 20
param *.boss.service_mean 7
param *.minion.arrival_mean 10
param *.minion.service_mean 7
param *.player.recover_rate_x 100
param **.minion.arrival_distribution 0
param **.minion.service_distribution 0
param **.boss.arrival_distribution 0
param **.boss.service_distribution 0

vector 0 Network.player minion_defeated_stat:vector ETV
attr source signal_minion_defeated
vector 1 Network.player minion_jobs_queue_number_stat:vector ETV
attr source signal_minion_jobs_queue_number
vector 2 Network.player minion_response_time_stat:vector ETV
attr source signal_minion_response_time
vector 3 Network.player minion_waiting_time_stat:vector ETV
attr source signal_minion_waiting_time
vector 4 Network.player minion_jobs_number_stat:vector ETV
attr source signal_minion_jobs_number
vector 5 Network.player boss_jobs_number_stat:vector ETV
attr source signal_boss_jobs_number
vector 6 Network.player boss_jobs_queue_number_stat:vector ETV
attr source signal_boss_jobs_queue_number
vector 7 Network.player minion_recovered_stat:vector ETV
attr source signal_minion_recovered
vector 8 Network.player boss_waiting_time_stat:vector ETV
attr source signal_boss_waiting_time
vector 9 Network.player boss_defeated_stat:vector ETV
attr source signal_boss_defeated
vector 10 Network.player boss_response_time_stat:vector ETV
attr source signal_boss_response_time
vector 11 Network.player minion_throughput:vector ETV
attr source signal_minion_throughput
vector 12 Network.player boss_throughput:vector ETV
attr source signal_boss_throughput
0	173	351.73879485644	26
0	174	353.589777921873	27
0	175	359.683272484172	28
0	176	360.294094200849	29
0	179	370.726870508563	30
0	182	377.203280017014	31
0	185	403.892295958048	32
0	186	405.771851882489	33
0	198	428.353897871625	34
0	201	434.973925827155	35
0	202	437.236982528944	36
0	268	538.520309422194	37
0	271	546.613398512026	38
0	272	550.583893255145	39
0	273	555.690646977147	40
0	278	566.676325081053	41
0	279	567.024220447538	42
0	286	597.985111472406	43
0	287	599.023549728694	44
0	293	606.92782642494	45
0	294	608.034559072104	46
0	312	650.394352038014	47
0	325	675.505860854576	48
0	331	700.402344419374	49
0	350	729.861493938077	50
0	355	735.327112347174	51
0	377	790.498112313743	52
0	378	791.013752598632	53
0	379	794.624594357028	54
0	385	811.112383178741	55
0	399	829.186427277853	56
0	404	850.571342873479	57
0	405	859.299446123804	58
0	406	862.246677301997	59
0	420	888.30105188633	60
0	441	939.144310269054	61
0	449	964.277014923502	62
0	450	965.335709409083	63
0	451	970.743488835607	64
0	452	975.326165878447	65
0	453	975.43334345232	66
0	458	981.48637763732	67
0	461	999.385953407072	68
0	464	1002.247610215556	69
0	465	1002.962974844425	70
0	466	1007.717542779997	71
0	471	1016.564251046239	72
0	474	1027.735011093605	73
0	477	1028.494716975278	74
0	487	1049.991938821268	75
0	492	1053.61122886774	76
0	518	1102.876783424399	77
0	519	1103.351388360084	78
0	522	1105.608003892093	79
0	526	1122.62381884755	80
0	527	1130.437508477668	81
0	530	1137.198134563877	82
0	533	1140.11166819381	83
0	534	1141.759784952441	84
0	535	1143.016210232192	85
0	536	1143.081540503372	86
0	539	1151.541416623191	87
0	540	1155.605763321194	88
0	541	1160.286792498	89
0	548	1171.588098380669	90
0	549	1177.096329009461	91
0	550	1189.114866654683	92
0	555	1194.752327280657	93
0	558	1199.912725802979	94
0	572	1214.874033604382	95
0	578	1218.407018319798	96
0	579	1219.447105397071	97
0	580	1225.440146885678	98
0	591	1237.503956372553	99
0	592	1239.397523166401	100
0	593	1244.251187692659	101
0	594	1244.693024214645	102
0	595	1245.732601984737	103
0	603	1252.558009500293	104
0	607	1255.903356136241	105
0	608	1260.722344478733	106
0	612	1266.174189074437	107
0	615	1271.783149169544	108
0	649	1376.729186320432	109
0	654	1381.282045586187	110
0	655	1383.631579361468	111
0	669	1419.78779060495	112
0	673	1430.916693450096	113
0	676	1440.597724992144	114
0	681	1447.696767933713	115
0	687	1460.407943088408	116
0	692	1466.871225461795	117
0	695	1473.824859767423	118
0	707	1507.380530625586	119
0	708	1512.356715531712	120
0	709	1512.723885879241	121
0	712	1515.761583379373	122
0	716	1531.449094943518	123
0	717	1538.555274820708	124
0	718	1539.866318995963	125
0	719	1546.653224076976	126
0	720	1562.326046571696	127
0	725	1574.035146932729	128
0	730	1581.502040389243	129
0	741	1611.965579985959	130
0	742	1615.680767397295	131
0	745	1626.457068609161	132
0	781	1697.055944146362	133
0	782	1700.924395089341	134
0	795	1729.96878383323	135
0	798	1742.490610201619	136
0	807	1755.629404566375	137
0	832	1807.929171665092	138
0	833	1809.851118720209	139
0	834	1811.493749278915	140
0	835	1812.732479459024	141
0	839	1821.358423985989	142
0	844	1827.329078256458	143
0	845	1832.608629655509	144
0	846	1834.871965085537	145
0	849	1844.5347180375	146
0	850	1844.996742684202	147
0	851	1848.608229019258	148
0	852	1849.297362526673	149
0	853	1850.679652863246	150
0	856	1861.423923322753	151
0	866	1874.827828747722	152
0	876	1897.57460803035	153
0	877	1907.753120090835	154
0	880	1916.067026421753	155
0	886	1932.331216567195	156
0	891	1937.139515053472	157
0	892	1940.480598874912	158
0	896	1953.925260604799	159
0	897	1955.518200359166	160
0	903	1981.817781400881	161
0	904	1993.91462829342	162
0	907	1996.401563907487	163
0	908	1996.466471441089	164
0	909	2000.496179678564	165
0	910	2002.304455296888	166
0	911	2010.654489745926	167
0	912	2011.000063387852	168
0	913	2014.06727683131	169
0	914	2017.238689857525	170
0	923	2035.480202317305	171
0	931	2044.188826791121	172
0	932	2047.808617838329	173
0	940	2055.066556376573	174
0	941	2058.38960925764	175
0	942	2062.143401823436	176
0	943	2062.236708023044	177
0	956	2087.500436797683	178
0	961	2106.756503216201	179
0	965	2121.33987934443	180
0	977	2145.945080886526	181
0	980	2148.868003403627	182
0	990	2163.104892513425	183
0	999	2176.836761161917	184
0	1000	2183.450866266492	185
0	1001	2191.752986659001	186
0	1005	2197.341235649334	187
0	1006	2200.047682177695	188
0	1016	2217.601556352322	189
0	1017	2222.520313840487	190
0	1020	2224.43944672516	191
0	1021	2228.78427521149	192
0	1036	2266.033582875749	193
0	1039	2268.416802729121	194
0	1040	2272.284072330961	195
0	1046	2282.186635546041	196
0	1073	2336.940058704751	197
0	1076	2347.963651906117	198
0	1077	2348.933181578086	199
0	1082	2374.932542610305	200
0	1085	2382.230938314255	201
0	1095	2406.179186328653	202
0	1109	2431.196019147259	203
0	1113	2438.3851957365	204
0	1117	2446.284572068579	205
0	1118	2448.617469427055	206
0	1119	2451.894016696387	207
1	173	351.73879485644	16
1	174	353.589777921873	15
1	175	359.683272484172	14
1	176	360.294094200849	13
1	178	362.268301555052	13
1	179	370.726870508563	13
1	181	372.539545306647	13
1	182	377.203280017014	13
1	184	389.5577846975	13
1	185	403.892295958048	13
1	186	405.771851882489	12
1	191	414.818044092872	12
1	193	418.914461495836	13
1	195	422.465171795664	14
1	197	424.393867145197	15
1	198	428.353897871625	15
1	200	432.804436750576	15
1	201	434.973925827155	15
1	202	437.236982528944	14
1	204	437.469845809978	14
1	206	439.43759280015	15
1	208	439.494640283028	16
1	210	447.099776189344	17
1	212	450.009000750263	18
1	220	460.413136447785	19
1	227	476.292959556537	20
1	229	477.825233390619	21
1	231	477.978958605117	22
1	236	486.687089681864	23
1	241	495.821123181817	24
1	243	502.344821873946	25
1	246	511.603297954585	26
1	248	516.487729742531	27
1	250	517.598695609658	28
1	256	523.405186700692	29
1	259	528.216939838918	30
1	263	533.404800948007	31
1	265	533.776380340601	32
1	268	538.520309422194	32
1	270	539.614897092334	32
1	271	546.613398512026	32
1	272	550.583893255145	31
1	273	555.690646977147	30
1	275	561.725131358257	30
1	277	562.030994378217	31
1	278	566.676325081053	31
1	279	567.024220447538	30
1	286	597.985111472406	29
1	287	599.023549728694	28
1	289	601.622588852045	28
1	293	606.92782642494	28
1	294	608.034559072104	27
1	303	616.583918304718	27
1	305	617.202055236483	28
1	307	625.20845208981	29
1	311	647.330956320507	30
1	312	650.394352038014	30
1	316	652.128642281043	30
1	321	660.730144932448	31
1	323	668.264761222758	32
1	325	675.505860854576	32
1	327	681.831327910446	32
1	331	700.402344419374	32
1	340	713.268292223129	32
1	346	723.215787602191	33
1	349	725.14946673918	34
1	350	729.861493938077	34
1	352	733.868430710604	34
1	354	735.127497066748	35
1	355	735.327112347174	35
1	357	735.334006060362	35
1	364	755.207784703715	36
1	366	757.56534454334	37
1	368	758.343520951228	38
1	370	766.211176156565	39
1	376	783.646291317493	40
1	377	790.498112313743	40
1	378	791.013752598632	39
1	379	794.624594357028	38
1	381	798.304653878913	38
1	385	811.112383178741	38
1	389	816.391582886859	38
1	391	819.277677665164	39
1	393	820.061563309576	40
1	396	823.42882570197	41
1	398	823.543488412463	42
1	399	829.186427277853	42
1	401	842.67564930696	42
1	403	843.171970421776	43
1	404	850.571342873479	43
1	405	859.299446123804	42
1	406	862.246677301997	41
1	415	880.063361957828	41
1	419	884.481376070648	42
1	420	888.30105188633	42
1	428	906.096858491925	42
1	430	917.053825168664	43
1	432	921.509009293989	44
1	434	921.623558985843	45
1	436	930.757980628926	46
1	438	931.899950272343	47
1	440	936.281831491434	48
1	441	939.144310269054	48
1	446	959.409509175819	48
1	448	963.567546048599	49
1	449	964.277014923502	49
1	450	965.335709409083	48
1	451	970.743488835607	47
1	452	975.326165878447	46
1	453	975.43334345232	45
1	455	979.409086802269	45
1	457	981.370220921466	46
1	458	981.48637763732	46
1	460	998.054723841462	46
1	461	999.385953407072	46
1	463	1000.768798821923	46
1	464	1002.247610215556	46
1	465	1002.962974844425	45
1	466	1007.717542779997	44
1	468	1010.993038112039	44
1	470	1011.452035498437	45
1	471	1016.564251046239	45
1	473	1021.254450093468	45
1	474	1027.735011093605	45
1	476	1028.295144927556	45
1	477	1028.494716975278	45
1	479	1029.867620550508	45
1	481	1034.587716186418	46
1	486	1043.032439090477	47
1	487	1049.991938821268	47
1	489	1052.017080031089	47
1	491	1052.690370788896	48
1	492	1053.61122886774	48
1	497	1062.631322734337	48
1	501	1066.391539861803	49
1	504	1067.93005079115	50
1	506	1070.377116493317	51
1	515	1097.534105512189	52
1	518	1102.876783424399	52
1	519	1103.351388360084	51
1	521	1105.019655488875	51
1	522	1105.608003892093	51
1	526	1122.62381884755	50
1	527	1130.437508477668	49
1	529	1134.27796456258	49
1	530	1137.198134563877	49
1	532	1139.848551853526	49
1	533	1140.11166819381	49
1	534	1141.759784952441	48
1	535	1143.016210232192	47
1	536	1143.081540503372	46
1	538	1149.06904089752	46
1	539	1151.541416623191	46
1	540	1155.605763321194	45
1	541	1160.286792498	44
1	548	1171.588098380669	43
1	549	1177.096329009461	42
1	550	1189.114866654683	41
1	552	1189.599395587986	41
1	554	1194.505807403182	42
1	555	1194.752327280657	42
1	557	1196.01928749176	42
1	558	1199.912725802979	42
1	560	1200.532095542279	42
1	570	1214.331704468146	43
1	572	1214.874033604382	43
1	576	1216.617603927497	43
1	578	1218.407018319798	43
1	579	1219.447105397071	42
1	580	1225.440146885678	41
1	584	1232.169014153108	41
1	589	1235.4092257353	42
1	591	1237.503956372553	42
1	592	1239.397523166401	41
1	593	1244.251187692659	40
1	594	1244.693024214645	39
1	595	1245.732601984737	38
1	599	1248.517259157264	38
1	601	1251.34799789722	39
1	603	1252.558009500293	39
1	607	1255.903356136241	38
1	608	1260.722344478733	37
1	612	1266.174189074437	36
1	614	1270.031272383515	36
1	615	1271.783149169544	36
1	617	1271.93813285379	36
1	623	1280.061728632661	37
1	629	1314.056626373889	38
1	631	1314.642060538589	39
1	643	1346.110542516041	40
1	647	1367.889872199002	41
1	649	1376.729186320432	41
1	651	1377.002249574517	41
1	653	1380.777105870427	42
1	654	1381.282045586187	42
1	655	1383.631579361468	41
1	657	1393.91873141806	41
1	661	1402.137446976738	42
1	664	1406.298439893118	43
1	666	1409.22892971003	44
1	668	1410.194651094536	45
1	669	1419.78779060495	45
1	673	1430.916693450096	44
1	675	1437.522502562912	44
1	676	1440.597724992144	44
1	678	1443.749352849394	44
1	680	1444.09780329844	45
1	681	1447.696767933713	45
1	683	1451.204784155259	45
1	687	1460.407943088408	45
1	689	1462.805777634181	45
1	691	1463.731977581261	46
1	692	1466.871225461795	46
1	694	1469.511161625262	46
1	695	1473.824859767423	46
1	699	1477.019670783198	46
1	707	1507.380530625586	46
1	708	1512.356715531712	45
1	709	1512.723885879241	44
1	711	1515.060756568655	44
1	712	1515.761583379373	44
1	716	1531.449094943518	43
1	717	1538.555274820708	42
1	718	1539.866318995963	41
1	719	1546.653224076976	40
1	720	1562.326046571696	39
1	722	1563.543419170754	39
1	724	1570.03250521935	40
1	725	1574.035146932729	40
1	727	1575.058367380463	40
1	729	1577.78896422583	41
1	730	1581.502040389243	41
1	732	1581.877619595059	41
1	740	1608.811795845907	42
1	741	1611.965579985959	42
1	742	1615.680767397295	41
1	744	1625.182484363768	41
1	745	1626.457068609161	41
1	747	1626.652589770851	41
1	752	1640.691024145245	42
1	754	1642.577573599617	43
1	756	1646.33275066046	44
1	760	1653.325499605877	45
1	764	1663.377721449981	46
1	766	1663.952454281951	47
1	771	1671.726541129088	48
1	773	1675.260018520552	49
1	775	1678.781068984512	50
1	781	1697.055944146362	50
1	782	1700.924395089341	49
1	784	1705.05225861694	49
1	786	1706.226453516503	50
1	788	1711.11377483187	51
1	790	1714.8627502655	52
1	792	1721.06404982859	53
1	794	1727.17012513038	54
1	795	1729.96878383323	54
1	797	1735.812540871975	54
1	798	1742.490610201619	54
1	800	1746.56951169048	54
1	802	1747.778998890395	55
1	804	1750.71274830933	56
1	806	1755.30795447233	57
1	807	1755.629404566375	57
1	809	1765.555104458504	57
1	814	1770.029676397522	58
1	816	1772.262657099428	59
1	825	1793.466833075335	60
1	829	1804.185314060336	61
1	831	1807.394835518921	62
1	832	1807.929171665092	62
1	833	1809.851118720209	61
1	834	1811.493749278915	60
1	835	1812.732479459024	59
1	839	1821.358423985989	58
1	841	1822.458650725485	58
1	843	1825.002170506213	59
1	844	1827.329078256458	59
1	845	1832.608629655509	58
1	846	1834.871965085537	57
1	848	1840.125209822443	57
1	849	1844.5347180375	57
1	850	1844.996742684202	56
1	851	1848.608229019258	55
1	852	1849.297362526673	54
1	853	1850.679652863246	53
1	855	1856.943854044585	53
1	856	1861.423923322753	53
1	860	1866.36835717076	53
1	862	1866.967988551273	54
1	864	1870.664148085307	55
1	866	1874.827828747722	55
1	871	1883.763165252108	55
1	873	1895.727674013799	56
1	875	1896.05992377377	57
1	876	1897.57460803035	57
1	877	1907.753120090835	56
1	879	1915.693824578514	56
1	880	1916.067026421753	56
1	884	1924.856412670584	56
1	886	1932.331216567195	56
1	888	1934.673342550855	56
1	890	1934.983514581488	57
1	891	1937.139515053472	57
1	892	1940.480598874912	56
1	896	1953.925260604799	55
1	897	1955.518200359166	54
1	901	1975.386526062438	54
1	903	1981.817781400881	54
1	904	1993.91462829342	53
1	906	1995.019471867634	53
1	907	1996.401563907487	53
1	908	1996.466471441089	52
1	909	2000.496179678564	51
1	910	2002.304455296888	50
1	911	2010.654489745926	49
1	912	2011.000063387852	48
1	913	2014.06727683131	47
1	914	2017.238689857525	46
1	919	2032.527073200167	46
1	923	2035.480202317305	46
1	928	2038.321321843496	46
1	930	2040.144866994231	47
1	931	2044.188826791121	47
1	932	2047.808617838329	46
1	934	2048.364783550259	46
1	936	2048.599293271919	47
1	940	2055.066556376573	47
1	941	2058.38960925764	46
1	942	2062.143401823436	45
1	943	2062.236708023044	44
1	947	2065.604154607833	44
1	951	2067.356556141222	45
1	953	2068.288749076046	46
1	956	2087.500436797683	46
1	958	2093.992979575455	46
1	960	2106.082421873943	47
1	961	2106.756503216201	47
1	965	2121.33987934443	46
1	970	2136.776177976287	46
1	972	2141.646815259144	47
1	974	2144.016431336242	48
1	976	2144.192192413957	49
1	977	2145.945080886526	49
1	979	2148.663273855185	49
1	980	2148.868003403627	49
1	982	2149.186389597899	49
1	986	2157.157593129116	50
1	989	2162.868158370205	51
1	990	2163.104892513425	51
1	992	2166.040377421226	51
1	999	2176.836761161917	51
1	1000	2183.450866266492	50
1	1001	2191.752986659001	49
1	1005	2197.341235649334	48
1	1006	2200.047682177695	47
1	1010	2203.69533380782	47
1	1012	2209.868342587088	48
1	1014	2210.853110882239	49
1	1016	2217.601556352322	49
1	1017	2222.520313840487	48
1	1019	2222.765702767109	48
1	1020	2224.43944672516	48
1	1021	2228.78427521149	47
1	1023	2230.784603645069	47
1	1027	2237.723195822719	48
1	1029	2248.02628028613	49
1	1034	2260.616590731246	50
1	1036	2266.033582875749	50
1	1038	2266.419323782936	50
1	1039	2268.416802729121	50
1	1040	2272.284072330961	49
1	1042	2273.883873674355	49
1	1046	2282.186635546041	49
1	1048	2289.436867201682	49
1	1050	2289.450867187436	50
1	1056	2301.640294843342	51
1	1061	2306.660610274913	52
1	1068	2319.4066505354	53
1	1070	2326.182676171753	54
1	1072	2333.049889534637	55
1	1073	2336.940058704751	55
1	1075	2338.206266866647	55
1	1076	2347.963651906117	55
1	1077	2348.933181578086	54
1	1079	2351.433664253972	54
1	1081	2355.807840710371	55
1	1082	2374.932542610305	55
1	1084	2376.564926396232	55
1	1085	2382.230938314255	55
1	1087	2383.508692131047	55
1	1091	2391.716211887763	56
1	1094	2397.607266565843	57
1	1095	2406.179186328653	57
1	1097	2409.014576527272	57
1	1099	2409.962440350145	58
1	1101	2414.557918742161	59
1	1103	2417.753952768565	60
1	1107	2426.6975034803	61
1	1109	2431.196019147259	61
1	1113	2438.3851957365	60
1	1117	2446.284572068579	59
1	1118	2448.617469427055	58
1	1119	2451.894016696387	57
1	1121	2455.428597487807	57
1	1123	2461.949854324953	58
1	1125	2462.218887467808	59
1	1132	2468.204834621618	60
1	1134	2468.6130409442	61
1	1136	2471.443904714921	62
1	1139	2474.772656864287	63
1	1143	2490.223068541484	64
1	1146	2498.954044201238	65
2	173	351.73879485644	133.87307837872
2	174	353.589777921873	121.76528622679
2	175	359.683272484172	97.864527787905
2	176	360.294094200849	81.779055929015
2	179	370.726870508563	90.857594762722
2	182	377.203280017014	95.447295410736
2	185	403.892295958048	121.31349063192
2	186	405.771851882489	117.82041849708
2	198	428.353897871625	126.86693425283
2	201	434.973925827155	131.72443633421
2	202	437.236982528944	130.78442459543
2	268	538.520309422194	218.29306690693
2	271	546.613398512026	224.50255626086
2	272	550.583893255145	216.45466935909
2	273	555.690646977147	193.42234542209
2	278	566.676325081053	194.13677977441
2	279	567.024220447538	177.46643575004
2	286	597.985111472406	183.16706737953
2	287	599.023549728694	180.10908823286
2	293	606.92782642494	182.53395927974
2	294	608.034559072104	175.23012232153
2	312	650.394352038014	210.95675923786
2	325	675.505860854576	225.49686010431
2	331	700.402344419374	239.98920797159
2	350	729.861493938077	252.03626054746
2	355	735.327112347174	257.34815374206
2	377	790.498112313743	278.89481435916
2	378	791.013752598632	274.5260228561
2	379	794.624594357028	277.02589874737
2	385	811.112383178741	287.70719647805
2	399	829.186427277853	295.78162632985
2	404	850.571342873479	316.79496253288
2	405	859.299446123804	319.68454903147
2	406	862.246677301997	300.52154594374
2	420	888.30105188633	315.69729099156
2	441	939.144310269054	329.94342028381
2	449	964.277014923502	347.07495968702
2	450	965.335709409083	340.12725731927
2	451	970.743488835607	323.4125325151
2	452	975.326165878447	323.22670514431
2	453	975.43334345232	323.30470117128
2	458	981.48637763732	326.77523792655
2	461	999.385953407072	338.65580847462
2	464	1002.247610215556	333.9828489928
2	465	1002.962974844425	321.13164693398
2	466	1007.717542779997	321.3264627165
2	471	1016.564251046239	314.12922114026
2	474	1027.735011093605	314.46671887048
2	477	1028.494716975278	305.27892937309
2	487	1049.991938821268	316.12350811066
2	492	1053.61122886774	318.48373180099
2	518	1102.876783424399	345.31143888106
2	519	1103.351388360084	345.00786740886
2	522	1105.608003892093	339.39682773553
2	526	1122.62381884755	338.97752753006
2	527	1130.437508477668	332.13285459875
2	530	1137.198134563877	331.06801144906
2	533	1140.11166819381	328.25266925656
2	534	1141.759784952441	325.36820206558
2	535	1143.016210232192	323.73853256703
2	536	1143.081540503372	323.0199771938
2	539	1151.541416623191	328.11259092122
2	540	1155.605763321194	332.06227490873
2	541	1160.286792498	317.61114319104
2	548	1171.588098380669	291.52473642284
2	549	1177.096329009461	292.61495293881
2	550	1189.114866654683	295.5127564641
2	555	1194.752327280657	292.90743815483
2	558	1199.912725802979	293.81586731105
2	572	1214.874033604382	293.36502431039
2	578	1218.407018319798	287.64903769087
2	579	1219.447105397071	287.54715512473
2	580	1225.440146885678	289.15831539424
2	591	1237.503956372553	273.93641032395
2	592	1239.397523166401	259.98843636413
2	593	1244.251187692659	262.88096677119
2	594	1244.693024214645	246.63830037318
2	595	1245.732601984737	244.96380316281
2	603	1252.558009500293	241.10597400186
2	607	1255.903356136241	227.60821120868
2	608	1260.722344478733	230.85472392822
2	612	1266.174189074437	224.94056445623
2	615	1271.783149169544	228.75071007907
2	649	1376.729186320432	310.33764645863
2	654	1381.282045586187	313.35199479504
2	655	1383.631579361468	313.25446286815
2	669	1419.78779060495	341.33719091542
2	673	1430.916693450096	325.89703796122
2	676	1440.597724992144	334.40857647545
2	681	1447.696767933713	313.41880337113
2	687	1460.407943088408	311.33890219089
2	692	1466.871225461795	305.26512799002
2	695	1473.824859767423	310.24641734793
2	707	1507.380530625586	312.8747232224
2	708	1512.356715531712	316.33742803995
2	709	1512.723885879241	312.19179033696
2	712	1515.761583379373	314.18623789068
2	716	1531.449094943518	315.05864539105
2	717	1538.555274820708	321.93767089321
2	718	1539.866318995963	308.80402003714
2	719	1546.653224076976	314.48420992387
2	720	1562.326046571696	328.07871972073
2	725	1574.035146932729	338.62592119743
2	730	1581.502040389243	333.15985636958
2	741	1611.965579985959	358.5794073182
2	742	1615.680767397295	353.72318413986
2	745	1626.457068609161	356.42579622565
2	781	1697.055944146362	416.9942155137
2	782	1700.924395089341	386.86776871545
2	795	1729.96878383323	415.32672329464
2	798	1742.490610201619	418.75410763951
2	807	1755.629404566375	420.70966618458
2	832	1807.929171665092	460.52428747
2	833	1809.851118720209	441.96124652121
2	834	1811.493749278915	434.4914997044
2	835	1812.732479459024	431.9553735886
2	839	1821.358423985989	425.47767114655
2	844	1827.329078256458	425.19163127972
2	845	1832.608629655509	426.31018976239
2	846	1834.871965085537	425.64303537551
2	849	1844.5347180375	434.34006694296
2	850	1844.996742684202	421.1186547815
2	851	1848.608229019258	411.08572645635
2	852	1849.297362526673	405.54800967728
2	853	1850.679652863246	406.58184956481
2	856	1861.423923322753	410.21913916749
2	866	1874.827828747722	412.02205111354
2	876	1897.57460803035	428.06344640509
2	877	1907.753120090835	432.54339799313
2	880	1916.067026421753	439.04735563856
2	886	1932.331216567195	415.85214853211
2	891	1937.139515053472	373.59609588272
2	892	1940.480598874912	370.44809365556
2	896	1953.925260604799	376.13629637897
2	897	1955.518200359166	373.64058076411
2	903	1981.817781400881	382.80411525671
2	904	1993.91462829342	385.10283244751
2	907	1996.401563907487	371.21907954372
2	908	1996.466471441089	369.81388167024
2	909	2000.496179678564	369.06214183065
2	910	2002.304455296888	361.61343115164
2	911	2010.654489745926	368.07691614631
2	912	2011.000063387852	364.66731272739
2	913	2014.06727683131	363.57354863289
2	914	2017.238689857525	363.91319025165
2	923	2035.480202317305	363.75366118822
2	931	2044.188826791121	365.40775780661
2	932	2047.808617838329	342.75635922139
2	940	2055.066556376573	343.9527815447
2	941	2058.38960925764	343.52685899214
2	942	2062.143401823436	341.07935199485
2	943	2062.236708023044	335.06658289266
2	956	2087.500436797683	340.9309251072
2	961	2106.756503216201	358.97750432581
2	965	2121.33987934443	366.0319248721
2	977	2145.945080886526	379.89804393196
2	980	2148.868003403627	378.8383270061
2	990	2163.104892513425	389.58416586144
2	999	2176.836761161917	369.441925643
2	1000	2183.450866266492	368.06000914233
2	1001	2191.752986659001	369.29433593352
2	1005	2197.341235649334	357.21602582689
2	1006	2200.047682177695	343.10382813311
2	1016	2217.601556352322	351.23319918156
2	1017	2222.520313840487	355.55232528921
2	1020	2224.43944672516	353.77529863985
2	1021	2228.78427521149	348.40232123585
2	1036	2266.033582875749	369.97365910198
2	1039	2268.416802729121	352.72297815061
2	1040	2272.284072330961	352.50148008674
2	1046	2282.186635546041	347.51329299519
2	1073	2336.940058704751	391.66564282139
2	1076	2347.963651906117	382.8208594478
2	1077	2348.933181578086	373.54665551565
2	1082	2374.932542610305	379.91307074267
2	1085	2382.230938314255	352.77295081311
2	1095	2406.179186328653	371.84007383923
2	1109	2431.196019147259	392.87469730376
2	1113	2438.3851957365	390.02041218624
2	1117	2446.284572068579	393.77048562044
2	1118	2448.617469427055	383.9452588166
2	1119	2451.894016696387	386.28986208855
3	173	351.73879485644	119.91430316136
3	174	353.589777921873	91.771033225606
3	175	359.683272484172	81.168234212338
3	176	360.294094200849	80.424818455008
3	179	370.726870508563	88.970885902285
3	182	377.203280017014	94.624474690886
3	185	403.892295958048	115.94086257264
3	186	405.771851882489	106.25262913223
3	189	410.04179882869	108.55483520989
3	198	428.353897871625	125.10440837868
3	201	434.973925827155	128.52136789364
3	202	437.236982528944	130.48440661332
3	244	508.902657098304	192.44294679028
3	267	534.338281143447	214.11103862819
3	268	538.520309422194	216.40946717102
3	271	546.613398512026	212.48417461597
3	272	550.583893255145	188.31559170009
3	273	555.690646977147	183.1511016705
3	278	566.676325081053	177.11854038355
3	279	567.024220447538	160.00116910103
3	285	593.717000755597	178.89895666272
3	286	597.985111472406	179.07064997657
3	287	599.023549728694	176.55837793303
3	292	605.47893767635	181.08507053115
3	293	606.92782642494	174.12338967436
3	294	608.034559072104	170.56471326213
3	309	643.934113730844	204.49652093069
3	312	650.394352038014	210.89971175499
3	317	653.564429213722	206.46465302438
3	324	669.453502219559	219.4445014693
3	325	675.505860854576	223.51899863501
3	330	696.322509792573	235.90937334479
3	331	700.402344419374	224.10938486284
3	347	725.120355959299	247.29512256868
3	350	729.861493938077	251.88253533296
3	355	735.327112347174	248.64002266531
3	360	743.119264825472	247.29814164365
3	371	767.126453284968	264.78163141102
3	374	778.949203422273	267.34590546769
3	377	790.498112313743	274.01038257121
3	378	791.013752598632	273.41505698897
3	379	794.624594357028	275.50865834227
3	384	809.331308772659	285.92612207197
3	385	811.112383178741	282.89544333982
3	394	821.216962923195	287.81216197519
3	399	829.186427277853	295.41004693725
3	404	850.571342873479	310.95644578115
3	405	859.299446123804	297.57431476555
3	406	862.246677301997	300.21568292378
3	417	882.804460306416	310.20069941164
3	420	888.30105188633	286.67846303429
3	423	894.281385082714	291.14643481211
3	426	902.98885033663	293.78796035138
3	441	939.144310269054	322.56039196434
3	444	951.861872399221	334.65981716274
3	449	964.277014923502	339.06856283369
3	450	965.335709409083	318.00475308858
3	451	970.743488835607	318.64402810147
3	452	975.326165878447	323.1975235974
3	453	975.43334345232	320.72220374155
3	458	981.48637763732	320.75623270487
3	461	999.385953407072	331.12119218431
3	464	1002.247610215556	320.41628230511
3	465	1002.962974844425	316.57189478093
3	466	1007.717542779997	305.28251287402
3	471	1016.564251046239	303.29595882311
3	474	1027.735011093605	304.51922349141
3	477	1028.494716975278	303.3452502361
3	484	1041.528870225442	307.66043951484
3	487	1049.991938821268	314.86444175452
3	492	1053.61122886774	318.27722280738
3	495	1061.991814236972	322.17921178961
3	502	1066.693991800296	321.78533310828
3	509	1076.133668058675	320.92588335496
3	517	1101.659972913147	344.09462836981
3	518	1102.876783424399	344.53326247317
3	519	1103.351388360084	337.14021220352
3	522	1105.608003892093	332.90274678815
3	525	1108.053875760173	324.40758444268
3	526	1122.62381884755	324.31916496864
3	527	1130.437508477668	324.30738536285
3	530	1137.198134563877	325.33913562662
3	533	1140.11166819381	323.72008530695
3	534	1141.759784952441	322.48210728728
3	535	1143.016210232192	322.95464692262
3	536	1143.081540503372	319.6527148014
3	539	1151.541416623191	327.99792821073
3	540	1155.605763321194	312.93011401423
3	541	1160.286792498	317.11482207622
3	544	1162.037449107266	298.75235438518
3	547	1163.59721648817	283.53385453034
3	548	1171.588098380669	287.10672231002
3	549	1177.096329009461	283.49421881888
3	550	1189.114866654683	287.26997752886
3	555	1194.752327280657	288.65546878873
3	558	1199.912725802979	282.85890063431
3	571	1214.56346816124	293.05445886725
3	572	1214.874033604382	293.25047461854
3	577	1216.63237082355	285.87439019462
3	578	1218.407018319798	286.50706804745
3	579	1219.447105397071	283.16527390564
3	580	1225.440146885678	277.18059867942
3	585	1234.057298099049	274.64778892323
3	590	1236.605672362891	273.03812631429
3	591	1237.503956372553	258.09486957028
3	592	1239.397523166401	258.02730224494
3	593	1244.251187692659	246.1964638512
3	594	1244.693024214645	243.92422539272
3	595	1245.732601984737	234.7395638727
3	602	1252.178232297621	240.72619679918
3	603	1252.558009500293	231.30355940683
3	606	1254.528893328197	226.23374840064
3	607	1255.903356136241	226.03573558573
3	608	1260.722344478733	226.13462829231
3	611	1263.966448928966	222.73282431076
3	612	1266.174189074437	223.14174998396
3	615	1271.783149169544	219.76606913846
3	632	1323.356548672327	270.66617788343
3	635	1329.34646728857	273.59048954292
3	638	1340.581036721057	277.94971398672
3	641	1345.37992963785	280.36120876153
3	648	1369.088597956301	302.6970580945
3	649	1376.729186320432	308.79913552928
3	654	1381.282045586187	310.90492909287
3	655	1383.631579361468	308.35635123279
3	662	1406.198246687596	327.74764699807
3	669	1419.78779060495	322.25368509276
3	672	1426.622295986843	321.60264049797
3	673	1430.916693450096	324.7275449334
3	676	1440.597724992144	306.31976042956
3	681	1447.696767933713	307.84821608019
3	686	1457.660709015532	308.59166811801
3	687	1460.407943088408	298.80184561663
3	692	1466.871225461795	303.29278304231
3	695	1473.824859767423	284.22546417944
3	706	1506.504935751161	311.99912834798
3	707	1507.380530625586	311.36124313383
3	708	1512.356715531712	311.82461998943
3	709	1512.723885879241	311.14854039054
3	712	1515.761583379373	301.42987891123
3	715	1522.543890064445	306.15344051198
3	716	1531.449094943518	314.83149101602
3	717	1538.555274820708	307.49297586189
3	718	1539.866318995963	307.69730484285
3	719	1546.653224076976	312.40589722601
3	720	1562.326046571696	326.9168208364
3	725	1574.035146932729	325.69296291307
3	730	1581.502040389243	332.98478123198
3	735	1593.317826077541	341.96982818032
3	738	1605.414026255056	352.0278535873
3	741	1611.965579985959	350.00799672853
3	742	1615.680767397295	345.64949501378
3	745	1626.457068609161	354.51893575537
3	750	1639.6300085472	362.16283161246
3	780	1694.100769307375	414.03904067471
3	781	1697.055944146362	382.99931777247
3	782	1700.924395089341	386.28233455075
3	795	1729.96878383323	406.23228127112
3	798	1742.490610201619	407.57087181982
3	807	1755.629404566375	410.43598202459
3	812	1766.648565770773	420.53802325473
3	827	1802.9334953873	455.5286111922
3	832	1807.929171665092	440.03929946609
3	833	1809.851118720209	432.84886914569
3	834	1811.493749278915	430.71664340849
3	835	1812.732479459024	418.81374804096
3	838	1820.733706228265	424.85295338883
3	839	1821.358423985989	419.22097700925
3	844	1827.329078256458	421.03063836334
3	845	1832.608629655509	423.37969994548
3	846	1834.871965085537	424.677313991
3	849	1844.5347180375	420.65663013479
3	850	1844.996742684202	407.47424012129
3	851	1848.608229019258	404.85887616986
3	852	1849.297362526673	405.19955922823
3	853	1850.679652863246	399.47486870799
3	856	1861.423923322753	404.44818301501
3	865	1872.623997779626	409.81822014544
3	866	1874.827828747722	411.09585116646
3	869	1883.31275389039	413.80159226513
3	876	1897.57460803035	422.36488593264
3	877	1907.753120090835	430.73344930764
3	880	1916.067026421753	401.0062698531
3	885	1925.353496659504	408.87442862442
3	886	1932.331216567195	368.78779739644
3	891	1937.139515053472	367.10700983412
3	892	1940.480598874912	365.42223149445
3	895	1949.739874963519	371.95091073769
3	896	1953.925260604799	372.04764100974
3	897	1955.518200359166	365.01777557954
3	902	1978.229045009394	379.21537886523
3	903	1981.817781400881	373.00598555497
3	904	1993.91462829342	368.73214392965
3	907	1996.401563907487	369.74897413664
3	908	1996.466471441089	365.03243359317
3	909	2000.496179678564	359.80515553332
3	910	2002.304455296888	359.72688169727
3	911	2010.654489745926	364.32173908547
3	912	2011.000063387852	360.50633518943
3	913	2014.06727683131	360.74177722543
3	914	2017.238689857525	353.86096840754
3	917	2031.211339645892	367.25888536394
3	922	2034.895743247851	363.16920211876
3	923	2035.480202317305	360.22018379675
3	926	2037.647353932944	358.86628494843
3	931	2044.188826791121	339.13656817418
3	932	2047.808617838329	341.58216432183
3	939	2052.789246126188	341.67547129432
3	940	2055.066556376573	340.20380611107
3	941	2058.38960925764	337.32555942905
3	942	2062.143401823436	334.97327669306
3	943	2062.236708023044	326.42416715107
3	955	2074.574587551874	328.00507586139
3	956	2087.500436797683	339.72143790729
3	961	2106.756503216201	356.04375490687
3	964	2112.95992022709	357.65196575476
3	965	2121.33987934443	355.78477488593
3	968	2131.564496582116	365.51745962755
3	977	2145.945080886526	375.915404489
3	980	2148.868003403627	376.6053463042
3	987	2161.935067817421	388.41434116543
3	990	2163.104892513425	369.63805943809
3	995	2168.889835715163	364.70452165483
3	998	2176.021344433025	368.6265089141
3	999	2176.836761161917	361.44590403776
3	1000	2183.450866266492	360.99221554101
3	1001	2191.752986659001	366.75081615279
3	1004	2194.406522251831	354.28131242939
3	1005	2197.341235649334	340.39738160475
3	1006	2200.047682177695	337.96734954546
3	1015	2213.879706936637	347.51134976588
3	1016	2217.601556352322	350.63356780105
3	1017	2222.520313840487	351.85616575518
3	1020	2224.43944672516	344.05749274953
3	1021	2228.78427521149	345.02110995938
3	1030	2256.224716005105	360.49704199131
3	1035	2260.762285266076	364.70236149231
3	1036	2266.033582875749	350.33975829723
3	1039	2268.416802729121	348.6342104849
3	1040	2272.284072330961	347.42765966038
3	1045	2281.071107809101	346.39776525825
3	1046	2282.186635546041	347.20312096455
3	1066	2311.902511721395	366.62809583803
3	1073	2336.940058704751	371.79726624644
3	1076	2347.963651906117	372.57712584368
3	1077	2348.933181578086	353.91370971045
3	1082	2374.932542610305	345.47455510916
3	1085	2382.230938314255	349.70386511409
3	1092	2396.696011671231	362.3568991818
3	1095	2406.179186328653	369.89096587279
3	1108	2429.655385675463	391.33406383197
3	1109	2431.196019147259	391.05115215303
3	1112	2433.184187332683	384.81940378242
3	1113	2438.3851957365	389.78590246458
3	1116	2442.482802792873	389.96871634473
3	1117	2446.284572068579	381.61236145812
3	1118	2448.617469427055	383.01331481922
3	1119	2451.894016696387	384.53746055517
3	1128	2466.191951131049	397.903202055
3	1137	2472.370478222097	378.37749864664
3	1144	2491.018386382419	384.93596450848
4	178	362.268301555052	14
4	181	372.539545306647	14
4	184	389.5577846975	14
4	191	414.818044092872	13
4	193	418.914461495836	14
4	195	422.465171795664	15
4	197	424.393867145197	16
4	200	432.804436750576	16
4	204	437.469845809978	15
4	206	439.43759280015	16
4	208	439.494640283028	17
4	210	447.099776189344	18
4	212	450.009000750263	19
4	220	460.413136447785	20
4	227	476.292959556537	21
4	229	477.825233390619	22
4	231	477.978958605117	23
4	236	486.687089681864	24
4	241	495.821123181817	25
4	243	502.344821873946	26
4	246	511.603297954585	27
4	248	516.487729742531	28
4	250	517.598695609658	29
4	256	523.405186700692	30
4	259	528.216939838918	31
4	263	533.404800948007	32
4	265	533.776380340601	33
4	270	539.614897092334	33
4	275	561.725131358257	31
4	277	562.030994378217	32
4	289	601.622588852045	29
4	303	616.583918304718	28
4	305	617.202055236483	29
4	307	625.20845208981	30
4	311	647.330956320507	31
4	316	652.128642281043	31
4	321	660.730144932448	32
4	323	668.264761222758	33
4	327	681.831327910446	33
4	340	713.268292223129	33
4	346	723.215787602191	34
4	349	725.14946673918	35
4	352	733.868430710604	35
4	354	735.127497066748	36
4	357	735.334006060362	36
4	364	755.207784703715	37
4	366	757.56534454334	38
4	368	758.343520951228	39
4	370	766.211176156565	40
4	376	783.646291317493	41
4	381	798.304653878913	39
4	389	816.391582886859	39
4	391	819.277677665164	40
4	393	820.061563309576	41
4	396	823.42882570197	42
4	398	823.543488412463	43
4	401	842.67564930696	43
4	403	843.171970421776	44
4	415	880.063361957828	42
4	419	884.481376070648	43
4	428	906.096858491925	43
4	430	917.053825168664	44
4	432	921.509009293989	45
4	434	921.623558985843	46
4	436	930.757980628926	47
4	438	931.899950272343	48
4	440	936.281831491434	49
4	446	959.409509175819	49
4	448	963.567546048599	50
4	455	979.409086802269	46
4	457	981.370220921466	47
4	460	998.054723841462	47
4	463	1000.768798821923	47
4	468	1010.993038112039	45
4	470	1011.452035498437	46
4	473	1021.254450093468	46
4	476	1028.295144927556	46
4	479	1029.867620550508	46
4	481	1034.587716186418	47
4	486	1043.032439090477	48
4	489	1052.017080031089	48
4	491	1052.690370788896	49
4	497	1062.631322734337	49
4	501	1066.391539861803	50
4	504	1067.93005079115	51
4	506	1070.377116493317	52
4	515	1097.534105512189	53
4	521	1105.019655488875	52
4	529	1134.27796456258	50
4	532	1139.848551853526	50
4	538	1149.06904089752	47
4	552	1189.599395587986	42
4	554	1194.505807403182	43
4	557	1196.01928749176	43
4	560	1200.532095542279	43
4	570	1214.331704468146	44
4	576	1216.617603927497	44
4	584	1232.169014153108	42
4	589	1235.4092257353	43
4	599	1248.517259157264	39
4	601	1251.34799789722	40
4	614	1270.031272383515	37
4	617	1271.93813285379	37
4	623	1280.061728632661	38
4	629	1314.056626373889	39
4	631	1314.642060538589	40
4	643	1346.110542516041	41
4	647	1367.889872199002	42
4	651	1377.002249574517	42
4	653	1380.777105870427	43
4	657	1393.91873141806	42
4	661	1402.137446976738	43
4	664	1406.298439893118	44
4	666	1409.22892971003	45
4	668	1410.194651094536	46
4	675	1437.522502562912	45
4	678	1443.749352849394	45
4	680	1444.09780329844	46
4	683	1451.204784155259	46
4	689	1462.805777634181	46
4	691	1463.731977581261	47
4	694	1469.511161625262	47
4	699	1477.019670783198	47
4	711	1515.060756568655	45
4	722	1563.543419170754	40
4	724	1570.03250521935	41
4	727	1575.058367380463	41
4	729	1577.78896422583	42
4	732	1581.877619595059	42
4	740	1608.811795845907	43
4	744	1625.182484363768	42
4	747	1626.652589770851	42
4	752	1640.691024145245	43
4	754	1642.577573599617	44
4	756	1646.33275066046	45
4	760	1653.325499605877	46
4	764	1663.377721449981	47
4	766	1663.952454281951	48
4	771	1671.726541129088	49
4	773	1675.260018520552	50
4	775	1678.781068984512	51
4	784	1705.05225861694	50
4	786	1706.226453516503	51
4	788	1711.11377483187	52
4	790	1714.8627502655	53
4	792	1721.06404982859	54
4	794	1727.17012513038	55
4	797	1735.812540871975	55
4	800	1746.56951169048	55
4	802	1747.778998890395	56
4	804	1750.71274830933	57
4	806	1755.30795447233	58
4	809	1765.555104458504	58
4	814	1770.029676397522	59
4	816	1772.262657099428	60
4	825	1793.466833075335	61
4	829	1804.185314060336	62
4	831	1807.394835518921	63
4	841	1822.458650725485	59
4	843	1825.002170506213	60
4	848	1840.125209822443	58
4	855	1856.943854044585	54
4	860	1866.36835717076	54
4	862	1866.967988551273	55
4	864	1870.664148085307	56
4	871	1883.763165252108	56
4	873	1895.727674013799	57
4	875	1896.05992377377	58
4	879	1915.693824578514	57
4	884	1924.856412670584	57
4	888	1934.673342550855	57
4	890	1934.983514581488	58
4	901	1975.386526062438	55
4	906	1995.019471867634	54
4	919	2032.527073200167	47
4	928	2038.321321843496	47
4	930	2040.144866994231	48
4	934	2048.364783550259	47
4	936	2048.599293271919	48
4	947	2065.604154607833	45
4	951	2067.356556141222	46
4	953	2068.288749076046	47
4	958	2093.992979575455	47
4	960	2106.082421873943	48
4	970	2136.776177976287	47
4	972	2141.646815259144	48
4	974	2144.016431336242	49
4	976	2144.192192413957	50
4	979	2148.663273855185	50
4	982	2149.186389597899	50
4	986	2157.157593129116	51
4	989	2162.868158370205	52
4	992	2166.040377421226	52
4	1010	2203.69533380782	48
4	1012	2209.868342587088	49
4	1014	2210.853110882239	50
4	1019	2222.765702767109	49
4	1023	2230.784603645069	48
4	1027	2237.723195822719	49
4	1029	2248.02628028613	50
4	1034	2260.616590731246	51
4	1038	2266.419323782936	51
4	1042	2273.883873674355	50
4	1048	2289.436867201682	50
4	1050	2289.450867187436	51
4	1056	2301.640294843342	52
4	1061	2306.660610274913	53
4	1068	2319.4066505354	54
4	1070	2326.182676171753	55
4	1072	2333.049889534637	56
4	1075	2338.206266866647	56
4	1079	2351.433664253972	55
4	1081	2355.807840710371	56
4	1084	2376.564926396232	56
4	1087	2383.508692131047	56
4	1091	2391.716211887763	57
4	1094	2397.607266565843	58
4	1097	2409.014576527272	58
4	1099	2409.962440350145	59
4	1101	2414.557918742161	60
4	1103	2417.753952768565	61
4	1107	2426.6975034803	62
4	1121	2455.428597487807	58
4	1123	2461.949854324953	59
4	1125	2462.218887467808	60
4	1132	2468.204834621618	61
4	1134	2468.6130409442	62
4	1136	2471.443904714921	63
4	1139	2474.772656864287	64
4	1143	2490.223068541484	65
4	1146	2498.954044201238	66
5	188	407.023051346512	1
5	214	451.986862219571	1
5	216	452.241254781419	2
5	218	456.269153484022	3
5	222	462.788085686888	4
5	224	471.750175842528	5
5	234	485.838955213216	4
5	252	519.115936014759	1
5	254	522.251961692532	2
5	261	530.364669045925	2
5	281	572.603760894772	1
5	283	587.239462929909	2
5	291	603.134950270608	1
5	296	609.200889985245	1
5	298	610.173953034799	2
5	301	612.980541173579	2
5	314	652.09946073414	1
5	319	654.711139710773	1
5	329	686.391080063499	1
5	333	702.435029905981	1
5	335	711.955453553369	2
5	338	712.551934658254	2
5	343	721.347548185523	2
5	359	739.812602447366	1
5	362	744.908658692014	1
5	373	772.705257103947	1
5	383	806.13012311482	1
5	387	811.858998937252	1
5	408	863.28509472209	1
5	410	867.68999344566	2
5	413	876.537854406773	2
5	422	893.602110190585	1
5	425	901.844889125823	1
5	443	948.259548206261	1
5	483	1041.233624618206	1
5	494	1055.755977745646	1
5	499	1065.018720876321	1
5	508	1075.275228128681	1
5	511	1078.450599689527	1
5	513	1093.025662129838	2
5	524	1106.189148516697	1
5	543	1161.606097471778	1
5	546	1163.578442419488	1
5	562	1201.575345488697	1
5	564	1205.21468365384	2
5	567	1209.074318248075	2
5	574	1216.39044955247	1
5	582	1231.062298958818	1
5	587	1234.247326850965	1
5	597	1248.342184019664	1
5	605	1253.386172667756	1
5	610	1261.957583257431	1
5	619	1277.467176934737	1
5	621	1278.936722892472	2
5	626	1306.576914852068	2
5	634	1323.736502562113	1
5	637	1334.919738381796	1
5	640	1345.193422541783	1
5	645	1347.404884195096	1
5	659	1395.880752839439	1
5	671	1423.878087902705	1
5	685	1456.975740307744	1
5	697	1475.209722097707	1
5	701	1478.042304220319	2
5	704	1491.383258494281	2
5	714	1516.479068035088	1
5	734	1590.50042477963	1
5	737	1599.013666144167	1
5	749	1631.434037847915	1
5	758	1650.493728198422	1
5	762	1658.593476369919	2
5	769	1665.372692648625	2
5	778	1681.278513467016	2
5	811	1766.04703695457	1
5	818	1773.520726651988	1
5	820	1779.875668708269	2
5	822	1781.162383615031	3
5	837	1815.390857124158	1
5	858	1862.080332632237	1
5	868	1880.381953975635	1
5	882	1919.782592244217	1
5	894	1945.274415883366	1
5	899	1965.142792458315	1
5	916	2029.457987501145	1
5	921	2034.339112489427	1
5	925	2036.288220455867	1
5	938	2052.514086448142	1
5	945	2064.672210610458	1
5	949	2066.987813455407	2
5	963	2109.822365075834	1
5	967	2125.829693711752	1
5	984	2149.756655770248	1
5	994	2167.166571253802	1
5	997	2174.916574713006	1
5	1003	2192.895363616005	1
5	1008	2201.892852908397	1
5	1025	2232.882083632135	1
5	1032	2259.340022759345	1
5	1044	2277.162737970621	1
5	1052	2296.648678655655	1
5	1054	2298.575357641728	2
5	1059	2303.500581520958	2
5	1063	2307.262137981784	3
5	1089	2388.40867807511	1
5	1105	2422.686534544323	1
5	1111	2432.913250480392	1
5	1115	2438.546595932053	1
5	1127	2463.754640204455	1
5	1130	2467.837102292445	1
5	1141	2475.119593842137	1
6	188	407.023051346512	0
6	189	410.04179882869	0
6	214	451.986862219571	0
6	216	452.241254781419	1
6	218	456.269153484022	2
6	222	462.788085686888	3
6	224	471.750175842528	4
6	225	472.667561133152	4
6	232	478.803213410388	3
6	234	485.838955213216	3
6	237	486.725742886367	3
6	238	487.308421175732	2
6	239	493.881309469618	1
6	244	508.902657098304	0
6	252	519.115936014759	0
6	254	522.251961692532	1
6	257	526.926886809571	1
6	261	530.364669045925	1
6	266	534.282178684857	1
6	267	534.338281143447	0
6	281	572.603760894772	0
6	283	587.239462929909	1
6	284	590.844783648104	1
6	285	593.717000755597	0
6	291	603.134950270608	0
6	292	605.47893767635	0
6	296	609.200889985245	0
6	298	610.173953034799	1
6	299	612.295129175484	1
6	301	612.980541173579	1
6	308	639.274572616547	1
6	309	643.934113730844	0
6	314	652.09946073414	0
6	317	653.564429213722	0
6	319	654.711139710773	0
6	324	669.453502219559	0
6	329	686.391080063499	0
6	330	696.322509792573	0
6	333	702.435029905981	0
6	335	711.955453553369	1
6	336	712.277901020474	1
6	338	712.551934658254	1
6	341	714.395332580781	1
6	343	721.347548185523	1
6	344	721.363900339421	1
6	347	725.120355959299	0
6	359	739.812602447366	0
6	360	743.119264825472	0
6	362	744.908658692014	0
6	371	767.126453284968	0
6	373	772.705257103947	0
6	374	778.949203422273	0
6	383	806.13012311482	0
6	384	809.331308772659	0
6	387	811.858998937252	0
6	394	821.216962923195	0
6	408	863.28509472209	0
6	410	867.68999344566	1
6	411	874.159161232517	1
6	413	876.537854406773	1
6	416	880.506082111176	1
6	417	882.804460306416	0
6	422	893.602110190585	0
6	423	894.281385082714	0
6	425	901.844889125823	0
6	426	902.98885033663	0
6	443	948.259548206261	0
6	444	951.861872399221	0
6	483	1041.233624618206	0
6	484	1041.528870225442	0
6	494	1055.755977745646	0
6	495	1061.991814236972	0
6	499	1065.018720876321	0
6	502	1066.693991800296	0
6	508	1075.275228128681	0
6	509	1076.133668058675	0
6	511	1078.450599689527	0
6	513	1093.025662129838	1
6	516	1098.220589681534	1
6	517	1101.659972913147	0
6	524	1106.189148516697	0
6	525	1108.053875760173	0
6	543	1161.606097471778	0
6	544	1162.037449107266	0
6	546	1163.578442419488	0
6	547	1163.59721648817	0
6	562	1201.575345488697	0
6	564	1205.21468365384	1
6	565	1207.714126369555	1
6	567	1209.074318248075	1
6	568	1213.286723863631	1
6	571	1214.56346816124	0
6	574	1216.39044955247	0
6	577	1216.63237082355	0
6	582	1231.062298958818	0
6	585	1234.057298099049	0
6	587	1234.247326850965	0
6	590	1236.605672362891	0
6	597	1248.342184019664	0
6	602	1252.178232297621	0
6	605	1253.386172667756	0
6	606	1254.528893328197	0
6	610	1261.957583257431	0
6	611	1263.966448928966	0
6	619	1277.467176934737	0
6	621	1278.936722892472	1
6	624	1302.953973797392	1
6	626	1306.576914852068	1
6	627	1313.240269252668	1
6	632	1323.356548672327	0
6	634	1323.736502562113	0
6	635	1329.34646728857	0
6	637	1334.919738381796	0
6	638	1340.581036721057	0
6	640	1345.193422541783	0
6	641	1345.37992963785	0
6	645	1347.404884195096	0
6	648	1369.088597956301	0
6	659	1395.880752839439	0
6	662	1406.198246687596	0
6	671	1423.878087902705	0
6	672	1426.622295986843	0
6	685	1456.975740307744	0
6	686	1457.660709015532	0
6	697	1475.209722097707	0
6	701	1478.042304220319	1
6	702	1490.323679570983	1
6	704	1491.383258494281	1
6	705	1498.817039828376	1
6	706	1506.504935751161	0
6	714	1516.479068035088	0
6	715	1522.543890064445	0
6	734	1590.50042477963	0
6	735	1593.317826077541	0
6	737	1599.013666144167	0
6	738	1605.414026255056	0
6	749	1631.434037847915	0
6	750	1639.6300085472	0
6	758	1650.493728198422	0
6	762	1658.593476369919	1
6	767	1664.121330430388	1
6	769	1665.372692648625	1
6	776	1679.442231069494	1
6	778	1681.278513467016	1
6	779	1685.050003158974	1
6	780	1694.100769307375	0
6	811	1766.04703695457	0
6	812	1766.648565770773	0
6	818	1773.520726651988	0
6	820	1779.875668708269	1
6	822	1781.162383615031	2
6	823	1790.137916395212	2
6	826	1799.394473271234	1
6	827	1802.9334953873	0
6	837	1815.390857124158	0
6	838	1820.733706228265	0
6	858	1862.080332632237	0
6	865	1872.623997779626	0
6	868	1880.381953975635	0
6	869	1883.31275389039	0
6	882	1919.782592244217	0
6	885	1925.353496659504	0
6	894	1945.274415883366	0
6	895	1949.739874963519	0
6	899	1965.142792458315	0
6	902	1978.229045009394	0
6	916	2029.457987501145	0
6	917	2031.211339645892	0
6	921	2034.339112489427	0
6	922	2034.895743247851	0
6	925	2036.288220455867	0
6	926	2037.647353932944	0
6	938	2052.514086448142	0
6	939	2052.789246126188	0
6	945	2064.672210610458	0
6	949	2066.987813455407	1
6	954	2069.176526191647	1
6	955	2074.574587551874	0
6	963	2109.822365075834	0
6	964	2112.95992022709	0
6	967	2125.829693711752	0
6	968	2131.564496582116	0
6	984	2149.756655770248	0
6	987	2161.935067817421	0
6	994	2167.166571253802	0
6	995	2168.889835715163	0
6	997	2174.916574713006	0
6	998	2176.021344433025	0
6	1003	2192.895363616005	0
6	1004	2194.406522251831	0
6	1008	2201.892852908397	0
6	1015	2213.879706936637	0
6	1025	2232.882083632135	0
6	1030	2256.224716005105	0
6	1032	2259.340022759345	0
6	1035	2260.762285266076	0
6	1044	2277.162737970621	0
6	1045	2281.071107809101	0
6	1052	2296.648678655655	0
6	1054	2298.575357641728	1
6	1057	2302.443645544718	1
6	1059	2303.500581520958	1
6	1063	2307.262137981784	2
6	1064	2309.791149215133	2
6	1065	2310.718576677854	1
6	1066	2311.902511721395	0
6	1089	2388.40867807511	0
6	1092	2396.696011671231	0
6	1105	2422.686534544323	0
6	1108	2429.655385675463	0
6	1111	2432.913250480392	0
6	1112	2433.184187332683	0
6	1115	2438.546595932053	0
6	1116	2442.482802792873	0
6	1127	2463.754640204455	0
6	1128	2466.191951131049	0
6	1130	2467.837102292445	0
6	1137	2472.370478222097	0
6	1141	2475.119593842137	0
6	1144	2491.018386382419	0
7	188	407.023051346512	17
7	214	451.986862219571	18
7	252	519.115936014759	19
7	281	572.603760894772	20
7	291	603.134950270608	21
7	296	609.200889985245	22
7	314	652.09946073414	23
7	319	654.711139710773	24
7	329	686.391080063499	25
7	333	702.435029905981	26
7	359	739.812602447366	27
7	362	744.908658692014	28
7	373	772.705257103947	29
7	383	806.13012311482	30
7	387	811.858998937252	31
7	408	863.28509472209	32
7	422	893.602110190585	33
7	425	901.844889125823	34
7	443	948.259548206261	35
7	483	1041.233624618206	36
7	494	1055.755977745646	37
7	499	1065.018720876321	38
7	508	1075.275228128681	39
7	511	1078.450599689527	40
7	524	1106.189148516697	41
7	543	1161.606097471778	42
7	546	1163.578442419488	43
7	562	1201.575345488697	44
7	574	1216.39044955247	45
7	582	1231.062298958818	46
7	587	1234.247326850965	47
7	597	1248.342184019664	48
7	605	1253.386172667756	49
7	610	1261.957583257431	50
7	619	1277.467176934737	51
7	634	1323.736502562113	52
7	637	1334.919738381796	53
7	640	1345.193422541783	54
7	645	1347.404884195096	55
7	659	1395.880752839439	56
7	671	1423.878087902705	57
7	685	1456.975740307744	58
7	697	1475.209722097707	59
7	714	1516.479068035088	60
7	734	1590.50042477963	61
7	737	1599.013666144167	62
7	749	1631.434037847915	63
7	758	1650.493728198422	64
7	811	1766.04703695457	65
7	818	1773.520726651988	66
7	837	1815.390857124158	67
7	858	1862.080332632237	68
7	868	1880.381953975635	69
7	882	1919.782592244217	70
7	894	1945.274415883366	71
7	899	1965.142792458315	72
7	916	2029.457987501145	73
7	921	2034.339112489427	74
7	925	2036.288220455867	75
7	938	2052.514086448142	76
7	945	2064.672210610458	77
7	963	2109.822365075834	78
7	967	2125.829693711752	79
7	984	2149.756655770248	80
7	994	2167.166571253802	81
7	997	2174.916574713006	82
7	1003	2192.895363616005	83
7	1008	2201.892852908397	84
7	1025	2232.882083632135	85
7	1032	2259.340022759345	86
7	1044	2277.162737970621	87
7	1052	2296.648678655655	88
7	1089	2388.40867807511	89
7	1105	2422.686534544323	90
7	1111	2432.913250480392	91
7	1115	2438.546595932053	92
7	1127	2463.754640204455	93
7	1130	2467.837102292445	94
7	1141	2475.119593842137	95
8	188	407.023051346512	0
8	214	451.986862219571	0
8	225	472.667561133152	20.426306351733
8	232	478.803213410388	22.534059926366
8	237	486.725742886367	23.937657199479
8	238	487.308421175732	15.558245333204
8	239	493.881309469618	8.042354256402
8	252	519.115936014759	0
8	257	526.926886809571	4.674925117039
8	266	534.282178684857	3.917509638932
8	281	572.603760894772	0
8	284	590.844783648104	3.605320718195
8	291	603.134950270608	0
8	296	609.200889985245	0
8	299	612.295129175484	2.121176140685
8	308	639.274572616547	26.294031442968
8	314	652.09946073414	0
8	319	654.711139710773	0
8	329	686.391080063499	0
8	333	702.435029905981	0
8	336	712.277901020474	0.322447467105
8	341	714.395332580781	1.843397922527
8	344	721.363900339421	0.016352153898
8	359	739.812602447366	0
8	362	744.908658692014	0
8	373	772.705257103947	0
8	383	806.13012311482	0
8	387	811.858998937252	0
8	408	863.28509472209	0
8	411	874.159161232517	6.469167786857
8	416	880.506082111176	3.968227704403
8	422	893.602110190585	0
8	425	901.844889125823	0
8	443	948.259548206261	0
8	483	1041.233624618206	0
8	494	1055.755977745646	0
8	499	1065.018720876321	0
8	508	1075.275228128681	0
8	511	1078.450599689527	0
8	516	1098.220589681534	5.194927551696
8	524	1106.189148516697	0
8	543	1161.606097471778	0
8	546	1163.578442419488	0
8	562	1201.575345488697	0
8	565	1207.714126369555	2.499442715715
8	568	1213.286723863631	4.212405615556
8	574	1216.39044955247	0
8	582	1231.062298958818	0
8	587	1234.247326850965	0
8	597	1248.342184019664	0
8	605	1253.386172667756	0
8	610	1261.957583257431	0
8	619	1277.467176934737	0
8	624	1302.953973797392	24.01725090492
8	627	1313.240269252668	6.6633544006
8	634	1323.736502562113	0
8	637	1334.919738381796	0
8	640	1345.193422541783	0
8	645	1347.404884195096	0
8	659	1395.880752839439	0
8	671	1423.878087902705	0
8	685	1456.975740307744	0
8	697	1475.209722097707	0
8	702	1490.323679570983	12.281375350664
8	705	1498.817039828376	7.433781334095
8	714	1516.479068035088	0
8	734	1590.50042477963	0
8	737	1599.013666144167	0
8	749	1631.434037847915	0
8	758	1650.493728198422	0
8	767	1664.121330430388	5.527854060469
8	776	1679.442231069494	14.069538420869
8	779	1685.050003158974	3.771489691958
8	811	1766.04703695457	0
8	818	1773.520726651988	0
8	823	1790.137916395212	10.262247686943
8	826	1799.394473271234	18.232089656203
8	837	1815.390857124158	0
8	858	1862.080332632237	0
8	868	1880.381953975635	0
8	882	1919.782592244217	0
8	894	1945.274415883366	0
8	899	1965.142792458315	0
8	916	2029.457987501145	0
8	921	2034.339112489427	0
8	925	2036.288220455867	0
8	938	2052.514086448142	0
8	945	2064.672210610458	0
8	954	2069.176526191647	2.18871273624
8	963	2109.822365075834	0
8	967	2125.829693711752	0
8	984	2149.756655770248	0
8	994	2167.166571253802	0
8	997	2174.916574713006	0
8	1003	2192.895363616005	0
8	1008	2201.892852908397	0
8	1025	2232.882083632135	0
8	1032	2259.340022759345	0
8	1044	2277.162737970621	0
8	1052	2296.648678655655	0
8	1057	2302.443645544718	3.86828790299
8	1064	2309.791149215133	6.290567694175
8	1065	2310.718576677854	3.45643869607
8	1089	2388.40867807511	0
8	1105	2422.686534544323	0
8	1111	2432.913250480392	0
8	1115	2438.546595932053	0
8	1127	2463.754640204455	0
8	1130	2467.837102292445	0
8	1141	2475.119593842137	0
9	189	410.04179882869	22
9	225	472.667561133152	23
9	232	478.803213410388	24
9	237	486.725742886367	25
9	238	487.308421175732	26
9	239	493.881309469618	27
9	244	508.902657098304	28
9	257	526.926886809571	29
9	266	534.282178684857	30
9	267	534.338281143447	31
9	284	590.844783648104	32
9	285	593.717000755597	33
9	292	605.47893767635	34
9	299	612.295129175484	35
9	308	639.274572616547	36
9	309	643.934113730844	37
9	317	653.564429213722	38
9	324	669.453502219559	39
9	330	696.322509792573	40
9	336	712.277901020474	41
9	341	714.395332580781	42
9	344	721.363900339421	43
9	347	725.120355959299	44
9	360	743.119264825472	45
9	371	767.126453284968	46
9	374	778.949203422273	47
9	384	809.331308772659	48
9	394	821.216962923195	49
9	411	874.159161232517	50
9	416	880.506082111176	51
9	417	882.804460306416	52
9	423	894.281385082714	53
9	426	902.98885033663	54
9	444	951.861872399221	55
9	484	1041.528870225442	56
9	495	1061.991814236972	57
9	502	1066.693991800296	58
9	509	1076.133668058675	59
9	516	1098.220589681534	60
9	517	1101.659972913147	61
9	525	1108.053875760173	62
9	544	1162.037449107266	63
9	547	1163.59721648817	64
9	565	1207.714126369555	65
9	568	1213.286723863631	66
9	571	1214.56346816124	67
9	577	1216.63237082355	68
9	585	1234.057298099049	69
9	590	1236.605672362891	70
9	602	1252.178232297621	71
9	606	1254.528893328197	72
9	611	1263.966448928966	73
9	624	1302.953973797392	74
9	627	1313.240269252668	75
9	632	1323.356548672327	76
9	635	1329.34646728857	77
9	638	1340.581036721057	78
9	641	1345.37992963785	79
9	648	1369.088597956301	80
9	662	1406.198246687596	81
9	672	1426.622295986843	82
9	686	1457.660709015532	83
9	702	1490.323679570983	84
9	705	1498.817039828376	85
9	706	1506.504935751161	86
9	715	1522.543890064445	87
9	735	1593.317826077541	88
9	738	1605.414026255056	89
9	750	1639.6300085472	90
9	767	1664.121330430388	91
9	776	1679.442231069494	92
9	779	1685.050003158974	93
9	780	1694.100769307375	94
9	812	1766.648565770773	95
9	823	1790.137916395212	96
9	826	1799.394473271234	97
9	827	1802.9334953873	98
9	838	1820.733706228265	99
9	865	1872.623997779626	100
9	869	1883.31275389039	101
9	885	1925.353496659504	102
9	895	1949.739874963519	103
9	902	1978.229045009394	104
9	917	2031.211339645892	105
9	922	2034.895743247851	106
9	926	2037.647353932944	107
9	939	2052.789246126188	108
9	954	2069.176526191647	109
9	955	2074.574587551874	110
9	964	2112.95992022709	111
9	968	2131.564496582116	112
9	987	2161.935067817421	113
9	995	2168.889835715163	114
9	998	2176.021344433025	115
9	1004	2194.406522251831	116
9	1015	2213.879706936637	117
9	1030	2256.224716005105	118
9	1035	2260.762285266076	119
9	1045	2281.071107809101	120
9	1057	2302.443645544718	121
9	1064	2309.791149215133	122
9	1065	2310.718576677854	123
9	1066	2311.902511721395	124
9	1092	2396.696011671231	125
9	1108	2429.655385675463	126
9	1112	2433.184187332683	127
9	1116	2442.482802792873	128
9	1128	2466.191951131049	129
9	1137	2472.370478222097	130
9	1144	2491.018386382419	131
10	189	410.04179882869	3.018747482178
10	225	472.667561133152	20.680698913581
10	232	478.803213410388	26.561958628969
10	237	486.725742886367	30.456589402345
10	238	487.308421175732	24.520335488844
10	239	493.881309469618	22.13113362709
10	244	508.902657098304	23.063701885088
10	257	526.926886809571	7.810950794812
10	266	534.282178684857	12.030216992325
10	267	534.338281143447	3.973612097522
10	284	590.844783648104	18.241022753332
10	285	593.717000755597	6.477537825688
10	292	605.47893767635	2.343987405742
10	299	612.295129175484	3.094239190239
10	308	639.274572616547	29.100619581748
10	309	643.934113730844	30.953572557265
10	317	653.564429213722	1.464968479582
10	324	669.453502219559	14.742362508786
10	330	696.322509792573	9.931429729074
10	336	712.277901020474	9.842871114493
10	341	714.395332580781	2.439879027412
10	344	721.363900339421	8.811965681167
10	347	725.120355959299	3.772807773776
10	360	743.119264825472	3.306662378106
10	371	767.126453284968	22.217794592954
10	374	778.949203422273	6.243946318326
10	384	809.331308772659	3.201185657839
10	394	821.216962923195	9.357963985943
10	411	874.159161232517	10.874066510427
10	416	880.506082111176	12.816088665516
10	417	882.804460306416	6.266605899643
10	423	894.281385082714	0.679274892129
10	426	902.98885033663	1.143961210807
10	444	951.861872399221	3.60232419296
10	484	1041.528870225442	0.295245607236
10	495	1061.991814236972	6.235836491326
10	502	1066.693991800296	1.675270923975
10	509	1076.133668058675	0.858439929994
10	516	1098.220589681534	19.769989992007
10	517	1101.659972913147	8.634310783309
10	525	1108.053875760173	1.864727243476
10	544	1162.037449107266	0.431351635488
10	547	1163.59721648817	0.018774068682
10	565	1207.714126369555	6.138780880858
10	568	1213.286723863631	8.072040209791
10	571	1214.56346816124	5.489149913165
10	577	1216.63237082355	0.24192127108
10	585	1234.057298099049	2.994999140231
10	590	1236.605672362891	2.358345511926
10	602	1252.178232297621	3.836048277957
10	606	1254.528893328197	1.142720660441
10	611	1263.966448928966	2.008865671535
10	624	1302.953973797392	25.486796862655
10	627	1313.240269252668	34.303546360196
10	632	1323.356548672327	16.779633820259
10	635	1329.34646728857	5.609964726457
10	638	1340.581036721057	5.661298339261
10	641	1345.37992963785	0.186507096067
10	648	1369.088597956301	21.683713761205
10	662	1406.198246687596	10.317493848157
10	672	1426.622295986843	2.744208084138
10	686	1457.660709015532	0.684968707788
10	702	1490.323679570983	15.113957473276
10	705	1498.817039828376	20.774735608057
10	706	1506.504935751161	15.12167725688
10	715	1522.543890064445	6.064822029357
10	735	1593.317826077541	2.817401297911
10	738	1605.414026255056	6.400360110889
10	750	1639.6300085472	8.195970699285
10	767	1664.121330430388	13.627602231966
10	776	1679.442231069494	20.848754699575
10	779	1685.050003158974	19.677310510349
10	780	1694.100769307375	12.822255840359
10	812	1766.648565770773	0.601528816203
10	823	1790.137916395212	16.617189743224
10	826	1799.394473271234	19.518804562965
10	827	1802.9334953873	21.771111772269
10	838	1820.733706228265	5.342849104107
10	865	1872.623997779626	10.543665147389
10	869	1883.31275389039	2.930799914755
10	885	1925.353496659504	5.570904415287
10	895	1949.739874963519	4.465459080153
10	902	1978.229045009394	13.086252551079
10	917	2031.211339645892	1.753352144747
10	922	2034.895743247851	0.556630758424
10	926	2037.647353932944	1.359133477077
10	939	2052.789246126188	0.275159678046
10	954	2069.176526191647	4.504315581189
10	955	2074.574587551874	7.586774096467
10	964	2112.95992022709	3.137555151256
10	968	2131.564496582116	5.734802870364
10	987	2161.935067817421	12.178412047173
10	995	2168.889835715163	1.723264461361
10	998	2176.021344433025	1.104769720019
10	1004	2194.406522251831	1.511158635826
10	1015	2213.879706936637	11.98685402824
10	1030	2256.224716005105	23.34263237297
10	1035	2260.762285266076	1.422262506731
10	1045	2281.071107809101	3.90836983848
10	1057	2302.443645544718	5.794966889063
10	1064	2309.791149215133	11.215791573405
10	1065	2310.718576677854	7.217995156896
10	1066	2311.902511721395	4.640373739611
10	1092	2396.696011671231	8.287333596121
10	1108	2429.655385675463	6.96885113114
10	1112	2433.184187332683	0.270936852291
10	1116	2442.482802792873	3.93620686082
10	1128	2466.191951131049	2.437310926594
10	1137	2472.370478222097	4.533375929652
10	1144	2491.018386382419	15.898792540282
11	1147	2500	0.0828
12	1147	2500	0.0524

