file 65898 1678524146                                           
version 2
run experiments_medium_game_mode1-715-20230311-09:42:26-12264
attr configname experiments_medium_game_mode1
attr datetime 20230311-09:42:26
attr experiment experiments_medium_game_mode1
attr inifile omnetpp.ini
attr iterationvars "$0=6, $1=4, $2=100"
attr iterationvarsf 6,4,100-
attr measurement "$0=6, $1=4, $2=100"
attr network Network
attr processid 12264
attr repetition 25
attr replication #25
attr resultdir results
attr runnumber 715
attr seedset 25
param *.boss.arrival_mean 20
param *.boss.service_mean 6
param *.minion.arrival_mean 10
param *.minion.service_mean 4
param *.player.recover_rate_x 100
param **.minion.arrival_distribution 0
param **.minion.service_distribution 0
param **.boss.arrival_distribution 0
param **.boss.service_distribution 0

vector 0 Network.player minion_defeated_stat:vector ETV
attr source signal_minion_defeated
vector 1 Network.player minion_jobs_queue_number_stat:vector ETV
attr source signal_minion_jobs_queue_number
vector 2 Network.player minion_response_time_stat:vector ETV
attr source signal_minion_response_time
vector 3 Network.player minion_waiting_time_stat:vector ETV
attr source signal_minion_waiting_time
vector 4 Network.player minion_jobs_number_stat:vector ETV
attr source signal_minion_jobs_number
vector 5 Network.player boss_jobs_number_stat:vector ETV
attr source signal_boss_jobs_number
vector 6 Network.player boss_jobs_queue_number_stat:vector ETV
attr source signal_boss_jobs_queue_number
vector 7 Network.player boss_waiting_time_stat:vector ETV
attr source signal_boss_waiting_time
vector 8 Network.player boss_defeated_stat:vector ETV
attr source signal_boss_defeated
vector 9 Network.player boss_response_time_stat:vector ETV
attr source signal_boss_response_time
vector 10 Network.player minion_recovered_stat:vector ETV
attr source signal_minion_recovered
vector 11 Network.player minion_throughput:vector ETV
attr source signal_minion_throughput
vector 12 Network.player boss_throughput:vector ETV
attr source signal_boss_throughput
0	2019 6326 188 1207 351.710563600215 2494.015796706175 230 41 270 35765 6575355
1	8345 11919 188 1209 351.710563600215 2498.954044201238 461 0 14 1326 10488
2	20264 9019 188 1207 351.710563600215 2494.015796706175 230 0.037090019201 117.41579605266 5165.344176105 260547.29242094
3	29283 10111 188 1207 351.710563600215 2494.015796706175 284 0 111.57727930092 5658.767468561 299176.10785241
4	39394 5977 191 1209 362.268301555052 2498.954044201238 231 1 15 895 6805
5	45371 2838 200 1200 407.023051346512 2475.119593842137 110 1 4 145 233
6	48209 5676 200 1201 407.023051346512 2488.747130305236 220 0 3 70 106
7	53885 3209 200 1200 407.023051346512 2475.119593842137 110 0 21.997791067068 194.37812585221 2630.7283514638
8	57094 2980 201 1201 409.610549188379 2488.747130305236 110 22 131 8415 754655
9	60074 4285 201 1201 409.610549188379 2488.747130305236 110 0.01609205887 29.193104600492 804.83517006507 11072.090798222
10	64359 1499 228 1200 451.986862219571 2475.119593842137 54 17 70 2349 115299
11	65858 19 1210 1210 2500 2500 1 0.108 0.108 0.108 0.011664
12	65877 20 1210 1210 2500 2500 1 0.0524 0.0524 0.0524 0.00274576

