version 2
run experiments_medium_game_mode1-100-20230311-09:40:18-9167
attr configname experiments_medium_game_mode1
attr datetime 20230311-09:40:18
attr experiment experiments_medium_game_mode1
attr inifile omnetpp.ini
attr iterationvars "$0=5, $1=4, $2=100"
attr iterationvarsf 5,4,100-
attr measurement "$0=5, $1=4, $2=100"
attr network Network
attr processid 9167
attr repetition 10
attr replication #10
attr resultdir results
attr runnumber 100
attr seedset 10
param *.boss.arrival_mean 20
param *.boss.service_mean 5
param *.minion.arrival_mean 10
param *.minion.service_mean 4
param *.player.recover_rate_x 100
param **.minion.arrival_distribution 0
param **.minion.service_distribution 0
param **.boss.arrival_distribution 0
param **.boss.service_distribution 0

vector 0 Network.player boss_defeated_stat:vector ETV
attr source signal_boss_defeated
vector 1 Network.player boss_jobs_queue_number_stat:vector ETV
attr source signal_boss_jobs_queue_number
vector 2 Network.player boss_response_time_stat:vector ETV
attr source signal_boss_response_time
vector 3 Network.player boss_waiting_time_stat:vector ETV
attr source signal_boss_waiting_time
vector 4 Network.player minion_waiting_time_stat:vector ETV
attr source signal_minion_waiting_time
vector 5 Network.player minion_defeated_stat:vector ETV
attr source signal_minion_defeated
vector 6 Network.player minion_jobs_queue_number_stat:vector ETV
attr source signal_minion_jobs_queue_number
vector 7 Network.player minion_response_time_stat:vector ETV
attr source signal_minion_response_time
vector 8 Network.player minion_jobs_number_stat:vector ETV
attr source signal_minion_jobs_number
vector 9 Network.player boss_jobs_number_stat:vector ETV
attr source signal_boss_jobs_number
vector 10 Network.player minion_recovered_stat:vector ETV
attr source signal_minion_recovered
vector 11 Network.player minion_throughput:vector ETV
attr source signal_minion_throughput
vector 12 Network.player boss_throughput:vector ETV
attr source signal_boss_throughput
0	172	352.130554891321	21
0	173	352.927689561948	22
0	200	427.922919793437	23
0	210	445.483634846768	24
0	219	482.623445529356	25
0	240	540.103626412954	26
0	245	542.013573484638	27
0	252	557.490400795264	28
0	257	567.564240005452	29
0	290	646.909364677438	30
0	293	648.158271931021	31
0	302	671.369134696912	32
0	305	675.974953750651	33
0	312	696.644158598497	34
0	319	709.074450502644	35
0	320	709.99936697877	36
0	323	719.026131063424	37
0	328	721.782126274418	38
0	337	735.243146366857	39
0	347	746.149996156744	40
0	360	769.235542157537	41
0	369	774.842505725638	42
0	374	792.625640676717	43
0	375	795.211284919797	44
0	376	797.645015244678	45
0	405	864.02193246501	46
0	416	879.470842626838	47
0	423	883.519975797881	48
0	424	886.470748365759	49
0	425	889.271801544583	50
0	440	918.474901203841	51
0	447	932.95499797957	52
0	452	937.087903064749	53
0	461	947.606060377701	54
0	469	972.108184800654	55
0	480	1043.600519331667	56
0	483	1062.221824855093	57
0	500	1081.038108023486	58
0	501	1082.559230913177	59
0	515	1115.313296374902	60
0	519	1132.025868897564	61
0	536	1157.541163817664	62
0	539	1162.464871918121	63
0	548	1173.464526148622	64
0	551	1176.691994143815	65
0	556	1185.400207500366	66
0	589	1236.666448394572	67
0	603	1289.511834275859	68
0	647	1375.167026068546	69
0	648	1377.69368177718	70
0	658	1417.619102109601	71
0	671	1427.988499731937	72
0	674	1440.036739162998	73
0	681	1456.578615065705	74
0	684	1460.303509453435	75
0	687	1468.230073820141	76
0	688	1468.779253897226	77
0	689	1469.409634268323	78
0	692	1471.453467039569	79
0	715	1507.316685374657	80
0	718	1522.609004646605	81
0	719	1523.441984212979	82
0	722	1531.210066004728	83
0	737	1567.576103112115	84
0	746	1577.589139781897	85
0	749	1582.284351675076	86
0	762	1622.46648597697	87
0	767	1628.346919896378	88
0	776	1637.754840745315	89
0	785	1650.508499260933	90
0	789	1660.160481604531	91
0	807	1700.170177386142	92
0	810	1711.523055494311	93
0	811	1712.247154016955	94
0	817	1721.093426455114	95
0	826	1732.758106249994	96
0	833	1743.012305475494	97
0	845	1769.6307411483	98
0	848	1794.866584043362	99
0	849	1798.667656412332	100
0	876	1838.428117013513	101
0	888	1870.554069809943	102
0	900	1901.502933920921	103
0	911	1915.148518538969	104
0	924	1970.720577979858	105
0	939	1984.144565598209	106
0	956	2024.355491593225	107
0	972	2076.29129546134	108
0	980	2098.671634418581	109
0	996	2122.330683742636	110
0	1013	2171.702190838223	111
0	1017	2177.321565411803	112
0	1020	2184.459929526471	113
0	1026	2198.68276874378	114
0	1029	2206.276254096687	115
0	1036	2222.368884794303	116
0	1037	2227.071288079485	117
0	1052	2280.791082649515	118
0	1064	2292.542934325833	119
0	1085	2334.577343896308	120
0	1090	2336.882941233333	121
0	1104	2371.58812348353	122
0	1105	2372.698603190795	123
0	1121	2396.475871631733	124
0	1136	2428.323044603587	125
0	1144	2441.693118966685	126
0	1147	2448.594707483831	127
1	172	352.130554891321	1
1	173	352.927689561948	0
1	199	419.824288542282	0
1	200	427.922919793437	0
1	209	445.426883461239	0
1	210	445.483634846768	0
1	218	481.155473799364	0
1	219	482.623445529356	0
1	239	536.946986058516	0
1	240	540.103626412954	0
1	242	541.720738592907	0
1	244	541.736319955185	1
1	245	542.013573484638	1
1	247	545.749899725905	1
1	252	557.490400795264	1
1	257	567.564240005452	0
1	287	642.852204457678	0
1	289	646.904432915695	1
1	290	646.909364677438	1
1	293	648.158271931021	0
1	301	666.123998518003	0
1	302	671.369134696912	0
1	304	673.379073049835	0
1	305	675.974953750651	0
1	311	692.296201596188	0
1	312	696.644158598497	0
1	316	707.174758416955	0
1	318	707.316586279335	1
1	319	709.074450502644	1
1	320	709.99936697877	0
1	322	718.627327699064	0
1	323	719.026131063424	0
1	325	719.093978241006	0
1	328	721.782126274418	0
1	330	725.978438086876	0
1	337	735.243146366857	0
1	342	740.857761909457	0
1	347	746.149996156744	0
1	353	759.785179545867	0
1	360	769.235542157537	0
1	362	769.99705848	0
1	366	773.001749095169	1
1	368	773.957541426202	2
1	369	774.842505725638	2
1	373	780.867851638882	2
1	374	792.625640676717	2
1	375	795.211284919797	1
1	376	797.645015244678	0
1	400	853.673845421965	0
1	404	862.799389841877	1
1	405	864.02193246501	1
1	413	868.098797839271	1
1	416	879.470842626838	1
1	420	880.277491819915	1
1	422	882.177038103687	2
1	423	883.519975797881	2
1	424	886.470748365759	1
1	425	889.271801544583	0
1	439	912.935758198835	0
1	440	918.474901203841	0
1	446	932.202672012874	0
1	447	932.95499797957	0
1	451	936.657389288969	0
1	452	937.087903064749	0
1	460	946.297682443241	0
1	461	947.606060377701	0
1	464	960.738265453186	0
1	469	972.108184800654	0
1	479	1042.502595974247	0
1	480	1043.600519331667	0
1	482	1060.452690583967	0
1	483	1062.221824855093	0
1	491	1073.028472791389	0
1	493	1073.979749661901	1
1	500	1081.038108023486	1
1	501	1082.559230913177	0
1	514	1113.293494763991	0
1	515	1115.313296374902	0
1	518	1132.000155132253	0
1	519	1132.025868897564	0
1	533	1154.808071207918	0
1	536	1157.541163817664	0
1	538	1158.547296278815	0
1	539	1162.464871918121	0
1	541	1170.522199205898	0
1	545	1171.867477851254	1
1	547	1172.13455232041	2
1	548	1173.464526148622	2
1	551	1176.691994143815	1
1	556	1185.400207500366	0
1	588	1231.608305717097	0
1	589	1236.666448394572	0
1	602	1288.624242739881	0
1	603	1289.511834275859	0
1	644	1356.036850805122	0
1	646	1372.606487445524	1
1	647	1375.167026068546	1
1	648	1377.69368177718	0
1	655	1405.653119015198	0
1	657	1415.389328740932	1
1	658	1417.619102109601	1
1	662	1422.655085990457	1
1	664	1422.976987813847	2
1	668	1425.03253417898	3
1	671	1427.988499731937	3
1	673	1430.283059070374	3
1	674	1440.036739162998	3
1	680	1453.338074498799	3
1	681	1456.578615065705	3
1	683	1458.853815662555	3
1	684	1460.303509453435	3
1	687	1468.230073820141	2
1	688	1468.779253897226	1
1	689	1469.409634268323	0
1	691	1470.455632448849	0
1	692	1471.453467039569	0
1	706	1493.449335598144	0
1	708	1496.052380205525	1
1	715	1507.316685374657	1
1	717	1514.884379549808	1
1	718	1522.609004646605	1
1	719	1523.441984212979	0
1	721	1528.555324124831	0
1	722	1531.210066004728	0
1	734	1564.373909976404	0
1	736	1565.073784446035	1
1	737	1567.576103112115	1
1	739	1568.88161662372	1
1	746	1577.589139781897	1
1	749	1582.284351675076	0
1	761	1616.890074396541	0
1	762	1622.46648597697	0
1	764	1626.810805176556	0
1	767	1628.346919896378	0
1	771	1632.799960695581	0
1	775	1636.823592669957	1
1	776	1637.754840745315	1
1	785	1650.508499260933	0
1	788	1658.548708404319	0
1	789	1660.160481604531	0
1	798	1686.708174305305	0
1	800	1694.179105853179	1
1	807	1700.170177386142	1
1	809	1705.252233173425	1
1	810	1711.523055494311	1
1	811	1712.247154016955	0
1	816	1719.93445107556	0
1	817	1721.093426455114	0
1	821	1724.59685573388	0
1	826	1732.758106249994	0
1	832	1740.42133159935	0
1	833	1743.012305475494	0
1	838	1757.194056480443	0
1	840	1761.281828584842	1
1	842	1761.918109262225	2
1	845	1769.6307411483	2
1	848	1794.866584043362	1
1	849	1798.667656412332	0
1	875	1831.77425238343	0
1	876	1838.428117013513	0
1	887	1868.713537013691	0
1	888	1870.554069809943	0
1	899	1898.558444776125	0
1	900	1901.502933920921	0
1	910	1910.506246022932	0
1	911	1915.148518538969	0
1	923	1966.608133512492	0
1	924	1970.720577979858	0
1	934	1976.663636876505	0
1	939	1984.144565598209	0
1	955	2021.706676798273	0
1	956	2024.355491593225	0
1	971	2073.959348802285	0
1	972	2076.29129546134	0
1	977	2092.180436930985	0
1	980	2098.671634418581	0
1	993	2118.166042985004	0
1	996	2122.330683742636	0
1	1012	2169.154750841632	0
1	1013	2171.702190838223	0
1	1016	2177.061307273094	0
1	1017	2177.321565411803	0
1	1019	2178.914416394662	0
1	1020	2184.459929526471	0
1	1025	2195.814478513715	0
1	1026	2198.68276874378	0
1	1028	2200.177172437229	0
1	1029	2206.276254096687	0
1	1031	2214.891347264506	0
1	1033	2215.816986545285	1
1	1036	2222.368884794303	1
1	1037	2227.071288079485	0
1	1051	2280.78927417951	0
1	1052	2280.791082649515	0
1	1063	2288.659915777357	0
1	1064	2292.542934325833	0
1	1082	2325.886460952761	0
1	1085	2334.577343896308	0
1	1087	2335.729066720743	0
1	1090	2336.882941233333	0
1	1097	2363.241703758442	0
1	1099	2369.572912620892	1
1	1104	2371.58812348353	1
1	1105	2372.698603190795	0
1	1116	2385.090107213244	0
1	1121	2396.475871631733	0
1	1133	2420.381264551342	0
1	1136	2428.323044603587	0
1	1143	2438.055371942036	0
1	1144	2441.693118966685	0
1	1146	2446.879911890008	0
1	1147	2448.594707483831	0
2	172	352.130554891321	3.538716429871
2	173	352.927689561948	3.174547102125
2	200	427.922919793437	8.098631251155
2	210	445.483634846768	0.056751385529
2	219	482.623445529356	1.467971729992
2	240	540.103626412954	3.156640354438
2	245	542.013573484638	0.292834891731
2	252	557.490400795264	15.754080840079
2	257	567.564240005452	21.814340279547
2	290	646.909364677438	4.05716021976
2	293	648.158271931021	1.253839015326
2	302	671.369134696912	5.245136178909
2	305	675.974953750651	2.595880700816
2	312	696.644158598497	4.347957002309
2	319	709.074450502644	1.899692085689
2	320	709.99936697877	2.682780699435
2	323	719.026131063424	0.39880336436
2	328	721.782126274418	2.688148033412
2	337	735.243146366857	9.264708279981
2	347	746.149996156744	5.292234247287
2	360	769.235542157537	9.45036261167
2	369	774.842505725638	4.845447245638
2	374	792.625640676717	19.623891581548
2	375	795.211284919797	21.253743493595
2	376	797.645015244678	16.777163605796
2	405	864.02193246501	10.348087043045
2	416	879.470842626838	16.671452784961
2	423	883.519975797881	15.42117795861
2	424	886.470748365759	6.193256545844
2	425	889.271801544583	7.094763440896
2	440	918.474901203841	5.539143005006
2	447	932.95499797957	0.752325966696
2	452	937.087903064749	0.43051377578
2	461	947.606060377701	1.30837793446
2	469	972.108184800654	11.369919347468
2	480	1043.600519331667	1.09792335742
2	483	1062.221824855093	1.769134271126
2	500	1081.038108023486	8.009635232097
2	501	1082.559230913177	8.579481251276
2	515	1115.313296374902	2.019801610911
2	519	1132.025868897564	0.025713765311
2	536	1157.541163817664	2.733092609746
2	539	1162.464871918121	3.917575639306
2	548	1173.464526148622	2.942326942724
2	551	1176.691994143815	4.824516292561
2	556	1185.400207500366	13.265655179956
2	589	1236.666448394572	5.058142677475
2	603	1289.511834275859	0.887591535978
2	647	1375.167026068546	19.130175263424
2	648	1377.69368177718	5.087194331656
2	658	1417.619102109601	11.965983094403
2	671	1427.988499731937	12.599170991005
2	674	1440.036739162998	17.381653172541
2	681	1456.578615065705	33.601627251858
2	684	1460.303509453435	35.270975274455
2	687	1468.230073820141	37.947014749767
2	688	1468.779253897226	15.441179398427
2	689	1469.409634268323	10.555818605768
2	692	1471.453467039569	0.99783459072
2	715	1507.316685374657	13.867349776513
2	718	1522.609004646605	26.55662444108
2	719	1523.441984212979	8.557604663171
2	722	1531.210066004728	2.654741879897
2	737	1567.576103112115	3.202193135711
2	746	1577.589139781897	12.515355335862
2	749	1582.284351675076	13.402735051356
2	762	1622.46648597697	5.576411580429
2	767	1628.346919896378	1.536114719822
2	776	1637.754840745315	4.954880049734
2	785	1650.508499260933	13.684906590976
2	789	1660.160481604531	1.611773200212
2	807	1700.170177386142	13.462003080837
2	810	1711.523055494311	17.343949641132
2	811	1712.247154016955	6.99492084353
2	817	1721.093426455114	1.158975379554
2	826	1732.758106249994	8.161250516114
2	833	1743.012305475494	2.590973876144
2	845	1769.6307411483	12.436684667857
2	848	1794.866584043362	33.58475545852
2	849	1798.667656412332	36.749547150107
2	876	1838.428117013513	6.653864630083
2	888	1870.554069809943	1.840532796252
2	900	1901.502933920921	2.944489144796
2	911	1915.148518538969	4.642272516037
2	924	1970.720577979858	4.112444467366
2	939	1984.144565598209	7.480928721704
2	956	2024.355491593225	2.648814794952
2	972	2076.29129546134	2.331946659055
2	980	2098.671634418581	6.491197487596
2	996	2122.330683742636	4.164640757632
2	1013	2171.702190838223	2.547439996591
2	1017	2177.321565411803	0.260258138709
2	1020	2184.459929526471	5.545513131809
2	1026	2198.68276874378	2.868290230065
2	1029	2206.276254096687	6.099081659458
2	1036	2222.368884794303	7.477537529797
2	1037	2227.071288079485	11.2543015342
2	1052	2280.791082649515	0.001808470005
2	1064	2292.542934325833	3.883018548476
2	1085	2334.577343896308	8.690882943547
2	1090	2336.882941233333	1.15387451259
2	1104	2371.58812348353	8.346419725088
2	1105	2372.698603190795	3.125690569903
2	1121	2396.475871631733	11.385764418489
2	1136	2428.323044603587	7.941780052245
2	1144	2441.693118966685	3.637747024649
2	1147	2448.594707483831	1.714795593823
3	172	352.130554891321	2.377412431498
3	199	419.824288542282	0
3	209	445.426883461239	0
3	218	481.155473799364	0
3	239	536.946986058516	0
3	242	541.720738592907	0
3	245	542.013573484638	0.277253529453
3	252	557.490400795264	11.740501069359
3	287	642.852204457678	0
3	290	646.909364677438	0.004931761743
3	301	666.123998518003	0
3	304	673.379073049835	0
3	311	692.296201596188	0
3	316	707.174758416955	0
3	319	709.074450502644	1.757864223309
3	322	718.627327699064	0
3	325	719.093978241006	0
3	330	725.978438086876	0
3	342	740.857761909457	0
3	353	759.785179545867	0
3	362	769.99705848	0
3	369	774.842505725638	1.840756630469
3	374	792.625640676717	18.668099250515
3	375	795.211284919797	14.343433280915
3	400	853.673845421965	0
3	405	864.02193246501	1.222542623133
3	416	879.470842626838	11.372044787567
3	423	883.519975797881	3.242483977966
3	424	886.470748365759	4.293710262072
3	439	912.935758198835	0
3	446	932.202672012874	0
3	451	936.657389288969	0
3	460	946.297682443241	0
3	464	960.738265453186	0
3	479	1042.502595974247	0
3	482	1060.452690583967	0
3	491	1073.028472791389	0
3	500	1081.038108023486	7.058358361585
3	514	1113.293494763991	0
3	518	1132.000155132253	0
3	533	1154.808071207918	0
3	538	1158.547296278815	0
3	541	1170.522199205898	0
3	548	1173.464526148622	1.597048297368
3	551	1176.691994143815	4.557441823405
3	588	1231.608305717097	0
3	602	1288.624242739881	0
3	644	1356.036850805122	0
3	647	1375.167026068546	2.560538623022
3	655	1405.653119015198	0
3	658	1417.619102109601	2.229773368669
3	671	1427.988499731937	5.33341374148
3	674	1440.036739162998	17.059751349151
3	681	1456.578615065705	31.546080886725
3	684	1460.303509453435	30.020450383061
3	687	1468.230073820141	14.891999321342
3	688	1468.779253897226	9.925438234671
3	691	1470.455632448849	0
3	706	1493.449335598144	0
3	715	1507.316685374657	11.264305169132
3	718	1522.609004646605	7.724625096797
3	721	1528.555324124831	0
3	734	1564.373909976404	0
3	737	1567.576103112115	2.50231866608
3	746	1577.589139781897	8.707523158177
3	761	1616.890074396541	0
3	764	1626.810805176556	0
3	771	1632.799960695581	0
3	776	1637.754840745315	0.931248075358
3	788	1658.548708404319	0
3	798	1686.708174305305	0
3	807	1700.170177386142	5.991071532963
3	810	1711.523055494311	6.270822320886
3	816	1719.93445107556	0
3	821	1724.59685573388	0
3	832	1740.42133159935	0
3	838	1757.194056480443	0
3	845	1769.6307411483	8.348912563458
3	848	1794.866584043362	32.948474781137
3	875	1831.77425238343	0
3	887	1868.713537013691	0
3	899	1898.558444776125	0
3	910	1910.506246022932	0
3	923	1966.608133512492	0
3	934	1976.663636876505	0
3	955	2021.706676798273	0
3	971	2073.959348802285	0
3	977	2092.180436930985	0
3	993	2118.166042985004	0
3	1012	2169.154750841632	0
3	1016	2177.061307273094	0
3	1019	2178.914416394662	0
3	1025	2195.814478513715	0
3	1028	2200.177172437229	0
3	1031	2214.891347264506	0
3	1036	2222.368884794303	6.551898249018
3	1051	2280.78927417951	0
3	1063	2288.659915777357	0
3	1082	2325.886460952761	0
3	1087	2335.729066720743	0
3	1097	2363.241703758442	0
3	1104	2371.58812348353	2.015210862638
3	1116	2385.090107213244	0
3	1133	2420.381264551342	0
3	1143	2438.055371942036	0
3	1146	2446.879911890008	0
4	173	352.927689561948	3.587545911907
4	176	367.376450425266	0
4	179	384.176460755635	0
4	182	386.436038687455	0
4	185	391.952056832985	0
4	188	397.101099743094	3.234983921135
4	191	404.473974224828	0
4	194	410.436848643051	0
4	197	418.962261761174	0
4	200	427.922919793437	8.098631251155
4	203	432.366168304785	2.323497253051
4	206	441.443807283647	0
4	212	473.00260902335	0
4	215	475.369278079737	0
4	221	493.286867919828	0
4	224	501.939221806893	0
4	227	509.038289566614	0
4	230	518.619025209951	0
4	233	528.562184431506	0
4	236	530.429555878113	0.020069257641
4	257	567.564240005452	19.134552767574
4	258	571.068733788036	18.216542941718
4	261	575.876388039497	17.094225383429
4	262	576.297969527066	16.512844475314
4	265	588.092948462178	13.940765171109
4	268	593.50209551172	11.724954778495
4	271	597.405151668667	5.496628201743
4	272	597.752606366867	2.506721447178
4	275	599.744693744301	0
4	278	614.054973155262	0
4	281	614.378474382384	0.176683242685
4	284	639.373022439287	0
4	293	648.158271931021	0.976718503531
4	296	658.412344747376	0
4	299	662.241880940892	0
4	302	671.369134696912	5.245136178909
4	305	675.974953750651	2.595880700816
4	312	696.644158598497	16.909068928704
4	313	702.404637174359	21.103122302972
4	314	703.72422205713	11.428020460942
4	320	709.99936697877	2.824608561815
4	323	719.026131063424	0.39880336436
4	328	721.782126274418	2.688148033412
4	337	735.243146366857	15.48908949639
4	338	736.105648416218	10.127210329342
4	347	746.149996156744	18.43545534155
4	350	749.641241875267	21.078083223752
4	351	752.189170887302	21.549849034673
4	360	769.235542157537	31.183625089036
4	376	797.645015244678	56.787253335221
4	379	811.289620964415	68.146408639714
4	380	817.519645333333	71.475778127947
4	381	821.102206958079	72.313468577294
4	384	822.086257686073	62.301078140206
4	387	823.327104532908	62.153628748283
4	388	829.175839240085	67.628928224602
4	391	830.878237815632	68.71847675359
4	392	840.503660181368	70.506601701368
4	397	846.327485460595	75.761809378204
4	398	851.44084353169	72.384455141499
4	425	889.271801544583	84.606413809782
4	426	891.019119272213	69.877642152577
4	427	891.439396722437	68.324926714445
4	430	893.90921338641	64.075310828499
4	431	898.631657382741	56.654908009476
4	432	899.752617578633	54.998657768819
4	433	902.936485881569	49.262640459604
4	436	910.609760768153	53.125687094315
4	437	911.938600049067	47.848073991708
4	440	918.474901203841	54.068807729332
4	441	925.476176921051	61.06612640544
4	442	925.702371201219	52.549818605531
4	447	932.95499797957	52.774477318719
4	452	937.087903064749	44.944769768556
4	453	937.704094510025	31.802950373168
4	454	938.064316715042	25.128558516207
4	455	939.379107249952	9.41477471242
4	456	940.693522601865	8.490850588991
4	457	943.898998210334	10.881922321625
4	458	946.04135885029	9.383969561321
4	461	947.606060377701	1.30837793446
4	469	972.108184800654	5.069732430019
4	470	975.087371333758	4.320609749067
4	473	988.829171470794	0
4	476	1033.712953239657	0
4	485	1063.897103797653	0
4	488	1067.586911926352	0.381854435218
4	501	1082.559230913177	8.295383892077
4	502	1087.267200351709	11.196778166566
4	503	1093.026029926143	14.792707098382
4	506	1100.820633055485	0
4	509	1101.546159844437	0.003639002632
4	512	1111.342333799117	0
4	515	1115.313296374902	2.019801610911
4	521	1137.351662066246	0
4	524	1143.757808395093	0
4	527	1148.722540957953	0
4	530	1153.082599322034	2.476999030247
4	536	1157.541163817664	1.6901927695
4	539	1162.464871918121	3.917575639306
4	556	1185.400207500366	14.878008294468
4	559	1191.040790623804	19.276578602995
4	564	1194.071812902694	20.433394909729
4	567	1198.646102846363	15.602115305049
4	570	1204.801529612599	20.337929313916
4	573	1212.752123113227	26.457432256204
4	574	1213.908492590143	20.480699038533
4	585	1223.607801423901	29.65557240251
4	586	1227.727231798565	29.608567049083
4	589	1236.666448394572	32.42510515565
4	590	1236.990758795398	26.644438306719
4	591	1244.072658078849	29.740034127479
4	592	1244.681163398028	29.850322234512
4	593	1244.791047162459	24.84196024027
4	594	1247.392176353675	24.477880551864
4	595	1248.49491498596	25.201644185609
4	598	1251.058133926774	19.449828209677
4	599	1255.585884822371	6.897679985415
4	605	1290.898130123353	0
4	608	1292.546543373523	0.723381250361
4	611	1294.576402543527	0
4	614	1304.070144681555	0
4	617	1306.680098463399	0.839183319885
4	620	1319.757161600396	0
4	623	1323.432945874271	0
4	626	1329.748623566149	0
4	629	1332.046926227553	1.36442039229
4	632	1340.718512005517	0
4	635	1345.187440574485	0
4	638	1350.785968730655	0
4	641	1352.787163565094	1.914982714276
4	650	1382.607022192613	0
4	653	1400.916642425074	0
4	689	1469.409634268323	63.756515253125
4	692	1471.453467039569	49.346110435775
4	693	1473.353495958523	48.381881392592
4	696	1487.206772509415	60.977243818492
4	701	1488.117873034344	36.646169331202
4	704	1492.658235810864	40.380401526301
4	719	1523.441984212979	60.476810538682
4	722	1531.210066004728	60.754433555879
4	723	1531.653817712618	46.137294464021
4	724	1536.510216504899	48.787678051076
4	725	1541.944760512218	54.100664818866
4	726	1547.291230538173	57.371823618981
4	727	1553.152767783931	59.703432185787
4	728	1554.618927345643	51.005431618537
4	729	1559.209127120473	54.905899110128
4	730	1560.199745548074	54.46102156574
4	731	1560.622116529045	32.066792404214
4	749	1582.284351675076	10.504539952393
4	750	1584.450577034852	11.071976969412
4	751	1585.285795089819	10.418420346279
4	754	1590.907293873866	9.957192332506
4	755	1593.801725564252	4.389713269115
4	758	1606.774891541585	0
4	767	1628.346919896378	1.435866684513
4	785	1650.508499260933	18.460876246408
4	786	1650.641115236067	17.841154540486
4	789	1660.160481604531	26.357776672509
4	790	1662.245206611831	17.697661996533
4	791	1663.098266932473	17.898445666641
4	792	1674.028431351069	23.990566153383
4	795	1681.106150525012	30.82314626611
4	796	1684.97564349574	26.426935091421
4	811	1712.247154016955	35.043335345576
4	814	1718.069556153318	31.361381848013
4	817	1721.093426455114	26.865173008691
4	818	1721.454609309723	25.701759189345
4	819	1724.445764317587	27.517196327126
4	826	1732.758106249994	15.690808434716
4	833	1743.012305475494	23.077854399934
4	834	1752.322631477459	27.725775743579
4	835	1754.088922815431	28.350899883399
4	836	1756.356673910594	23.822871489294
4	849	1798.667656412332	62.94860898731
4	850	1799.26165783303	62.114574266176
4	855	1801.974121451201	61.552789851851
4	856	1805.464748867878	48.270692387435
4	857	1807.440803956371	38.508052126031
4	858	1810.292650884052	20.460112248758
4	859	1812.936780260597	12.734855214762
4	860	1813.292084602806	11.894260683437
4	863	1813.933515979372	0.516248080423
4	866	1820.845952050105	0
4	869	1824.15490200118	3.045901959107
4	872	1826.103845023538	1.655606226007
4	878	1851.763375986915	0
4	881	1854.273851162206	0.510750110941
4	884	1862.929282670394	1.313548305752
4	890	1872.60282119802	0
4	893	1879.356073586884	0
4	896	1886.688361683324	0
4	902	1902.442019052124	0
4	905	1905.861314486726	0
4	908	1909.777407995839	0
4	911	1915.148518538969	4.642272516037
4	914	1922.182695436346	0
4	917	1930.15861388626	0
4	920	1963.91214132306	0
4	926	1973.318976600654	0
4	929	1973.54184181622	0.180532048656
4	932	1975.337256094285	0.220673973303
4	939	1984.144565598209	7.480928721704
4	940	1984.702786912139	7.129819838878
4	943	1986.259920227695	7.183285036399
4	944	1986.772795796929	1.510852506045
4	947	1989.30345486024	0
4	950	2015.354681933544	0
4	953	2020.548439221487	0
4	956	2024.355491593225	2.648814794952
4	959	2025.731305222948	0.00549048581
4	962	2032.01908448859	0
4	965	2055.502620266609	0
4	968	2060.575503583687	0
4	974	2084.709706378142	0
4	980	2098.671634418581	5.731789869745
4	983	2099.709500261136	0.672410846193
4	986	2102.591137611019	0
4	989	2116.368780264422	0
4	996	2122.330683742636	5.848082693867
4	997	2122.710292874619	4.544249889615
4	1000	2127.85665528542	8.532591643708
4	1001	2129.464796295307	5.790521650051
4	1004	2138.040682945383	0
4	1007	2150.885637978048	0
4	1010	2167.367114672204	0
4	1013	2171.702190838223	2.547439996591
4	1022	2186.034893997877	0
4	1037	2227.071288079485	5.844208149164
4	1040	2238.889269602652	0
4	1043	2254.483068097837	0
4	1046	2271.075409916749	0
4	1049	2280.771826103366	0
4	1052	2280.791082649515	0.001808470005
4	1055	2284.322161844573	0.45807714858
4	1058	2286.141136445363	1.771386604073
4	1061	2288.442495856882	0
4	1064	2292.542934325833	3.883018548476
4	1067	2297.580246024688	0
4	1070	2309.781809862415	0
4	1079	2324.573755637712	11.80094288284
4	1080	2325.402424454933	11.881101226678
4	1085	2334.577343896308	16.244776442612
4	1090	2336.882941233333	18.014388781158
4	1093	2348.561654533191	22.67519358043
4	1094	2348.647864254608	20.741132821605
4	1095	2349.045200025561	13.316133304818
4	1105	2372.698603190795	35.832702757061
4	1106	2375.747720148702	35.943895649471
4	1107	2377.850725466035	14.609021707593
4	1110	2381.689680247956	10.541913427948
4	1111	2382.562587348568	11.410552968601
4	1112	2383.133098578758	2.245894797053
4	1121	2396.475871631733	13.286887371926
4	1122	2396.657690243402	11.567583030158
4	1127	2409.531737886368	23.134064126699
4	1128	2410.473098528313	19.354466317873
4	1129	2415.411914489487	14.820608591104
4	1136	2428.323044603587	20.80711625166
4	1141	2436.099503494533	17.969494778533
4	1144	2441.693118966685	21.311854415343
4	1147	2448.594707483831	24.715880344378
4	1148	2454.537285467747	24.5037160944
4	1149	2455.480584540901	19.935526802067
4	1154	2461.209404831814	23.154032889778
4	1155	2461.771286492402	14.891374602394
4	1158	2464.43794548381	6.746487314215
4	1159	2466.101474167433	4.962520177289
4	1160	2470.546619309547	8.252964728654
4	1163	2474.006969716915	0.44944191947
4	1166	2474.41331895417	0
4	1169	2483.741642028005	0.427258752629
4	1172	2487.898238471302	0
5	174	353.497354907362	36
5	177	372.84684896733	37
5	180	386.191536885633	38
5	183	388.467444191791	39
5	188	397.101099743094	40
5	189	400.849385009455	41
5	192	407.30026245638	42
5	195	415.651380214303	43
5	203	432.366168304785	44
5	204	434.557219828509	45
5	207	444.800276399575	46
5	213	475.005504408435	47
5	216	477.566550839805	48
5	222	494.343889514736	49
5	225	503.067692358783	50
5	228	511.369471276252	51
5	231	523.399619331604	52
5	236	530.429555878113	53
5	237	530.894158059805	54
5	258	571.068733788036	55
5	261	575.876388039497	56
5	262	576.297969527066	57
5	265	588.092948462178	58
5	268	593.50209551172	59
5	271	597.405151668667	60
5	272	597.752606366867	61
5	273	599.327549156237	62
5	276	600.284418418708	63
5	281	614.378474382384	64
5	282	615.938169562789	65
5	285	642.539446362132	66
5	294	652.277535394665	67
5	297	660.925800173028	68
5	313	702.404637174359	69
5	314	703.72422205713	70
5	338	736.105648416218	71
5	350	749.641241875267	72
5	351	752.189170887302	73
5	379	811.289620964415	74
5	380	817.519645333333	75
5	381	821.102206958079	76
5	384	822.086257686073	77
5	387	823.327104532908	78
5	388	829.175839240085	79
5	391	830.878237815632	80
5	392	840.503660181368	81
5	397	846.327485460595	82
5	398	851.44084353169	83
5	426	891.019119272213	84
5	427	891.439396722437	85
5	430	893.90921338641	86
5	431	898.631657382741	87
5	432	899.752617578633	88
5	433	902.936485881569	89
5	436	910.609760768153	90
5	437	911.938600049067	91
5	441	925.476176921051	92
5	442	925.702371201219	93
5	453	937.704094510025	94
5	454	938.064316715042	95
5	455	939.379107249952	96
5	456	940.693522601865	97
5	457	943.898998210334	98
5	458	946.04135885029	99
5	462	951.955263083784	100
5	470	975.087371333758	101
5	471	979.177850816372	102
5	474	998.073978548507	103
5	477	1034.841180324005	104
5	488	1067.586911926352	105
5	489	1069.442870391369	106
5	502	1087.267200351709	107
5	503	1093.026029926143	108
5	504	1094.35448843856	109
5	509	1101.546159844437	110
5	510	1102.840820113185	111
5	516	1118.211138342046	112
5	522	1138.031434028918	113
5	525	1146.264728552097	114
5	530	1153.082599322034	115
5	531	1153.825972176424	116
5	559	1191.040790623804	117
5	564	1194.071812902694	118
5	567	1198.646102846363	119
5	570	1204.801529612599	120
5	573	1212.752123113227	121
5	574	1213.908492590143	122
5	585	1223.607801423901	123
5	586	1227.727231798565	124
5	590	1236.990758795398	125
5	591	1244.072658078849	126
5	592	1244.681163398028	127
5	593	1244.791047162459	128
5	594	1247.392176353675	129
5	595	1248.49491498596	130
5	598	1251.058133926774	131
5	599	1255.585884822371	132
5	600	1256.824651208991	133
5	608	1292.546543373523	134
5	609	1294.460050755115	135
5	612	1298.010762217959	136
5	617	1306.680098463399	137
5	618	1313.594272661826	138
5	621	1321.308167868799	139
5	624	1329.336746883346	140
5	629	1332.046926227553	141
5	630	1332.597837227794	142
5	633	1343.986730322812	143
5	636	1345.754393408228	144
5	641	1352.787163565094	145
5	642	1355.62260682555	146
5	651	1386.060514460722	147
5	693	1473.353495958523	148
5	696	1487.206772509415	149
5	701	1488.117873034344	150
5	704	1492.658235810864	151
5	723	1531.653817712618	152
5	724	1536.510216504899	153
5	725	1541.944760512218	154
5	726	1547.291230538173	155
5	727	1553.152767783931	156
5	728	1554.618927345643	157
5	729	1559.209127120473	158
5	730	1560.199745548074	159
5	731	1560.622116529045	160
5	732	1562.328691497768	161
5	750	1584.450577034852	162
5	751	1585.285795089819	163
5	754	1590.907293873866	164
5	755	1593.801725564252	165
5	756	1601.606055900343	166
5	759	1614.509916885173	167
5	786	1650.641115236067	168
5	790	1662.245206611831	169
5	791	1663.098266932473	170
5	792	1674.028431351069	171
5	795	1681.106150525012	172
5	796	1684.97564349574	173
5	814	1718.069556153318	174
5	818	1721.454609309723	175
5	819	1724.445764317587	176
5	834	1752.322631477459	177
5	835	1754.088922815431	178
5	836	1756.356673910594	179
5	850	1799.26165783303	180
5	855	1801.974121451201	181
5	856	1805.464748867878	182
5	857	1807.440803956371	183
5	858	1810.292650884052	184
5	859	1812.936780260597	185
5	860	1813.292084602806	186
5	863	1813.933515979372	187
5	864	1815.024533235386	188
5	869	1824.15490200118	189
5	872	1826.103845023538	190
5	873	1829.134176341027	191
5	881	1854.273851162206	192
5	884	1862.929282670394	193
5	885	1865.248658227991	194
5	891	1873.132684250425	195
5	894	1880.415647536981	196
5	897	1886.931059555948	197
5	903	1904.485633457106	198
5	906	1907.493154892666	199
5	912	1919.868865907272	200
5	915	1926.326038828931	201
5	918	1931.77703171659	202
5	921	1965.652989017297	203
5	929	1973.54184181622	204
5	932	1975.337256094285	205
5	940	1984.702786912139	206
5	943	1986.259920227695	207
5	944	1986.772795796929	208
5	945	1987.518640360282	209
5	948	1993.613287657028	210
5	951	2017.014205078386	211
5	959	2025.731305222948	212
5	960	2029.04272291714	213
5	963	2033.346882396312	214
5	966	2060.333477936344	215
5	969	2061.336283768717	216
5	975	2091.32889260312	217
5	983	2099.709500261136	218
5	984	2101.390249344819	219
5	987	2110.561831371253	220
5	997	2122.710292874619	221
5	1000	2127.85665528542	222
5	1001	2129.464796295307	223
5	1002	2136.113235063069	224
5	1005	2139.188478890043	225
5	1008	2153.875194912461	226
5	1014	2175.126854296642	227
5	1023	2187.694109745135	228
5	1038	2229.184308151294	229
5	1041	2240.780607130469	230
5	1044	2254.838509018352	231
5	1047	2273.424016186693	232
5	1055	2284.322161844573	233
5	1058	2286.141136445363	234
5	1059	2287.468701285075	235
5	1065	2295.006420773249	236
5	1068	2298.589296336078	237
5	1079	2324.573755637712	238
5	1080	2325.402424454933	239
5	1093	2348.561654533191	240
5	1094	2348.647864254608	241
5	1095	2349.045200025561	242
5	1106	2375.747720148702	243
5	1107	2377.850725466035	244
5	1110	2381.689680247956	245
5	1111	2382.562587348568	246
5	1112	2383.133098578758	247
5	1122	2396.657690243402	248
5	1127	2409.531737886368	249
5	1128	2410.473098528313	250
5	1129	2415.411914489487	251
5	1141	2436.099503494533	252
5	1148	2454.537285467747	253
5	1149	2455.480584540901	254
5	1154	2461.209404831814	255
5	1155	2461.771286492402	256
5	1158	2464.43794548381	257
5	1159	2466.101474167433	258
5	1160	2470.546619309547	259
5	1163	2474.006969716915	260
5	1164	2474.393064898213	261
5	1169	2483.741642028005	262
5	1170	2487.714351182517	263
5	1173	2495.433894606295	264
6	174	353.497354907362	0
6	176	367.376450425266	0
6	177	372.84684896733	0
6	179	384.176460755635	0
6	180	386.191536885633	0
6	182	386.436038687455	0
6	183	388.467444191791	0
6	185	391.952056832985	0
6	187	393.866115821959	1
6	188	397.101099743094	1
6	189	400.849385009455	0
6	191	404.473974224828	0
6	192	407.30026245638	0
6	194	410.436848643051	0
6	195	415.651380214303	0
6	197	418.962261761174	0
6	202	430.042671051734	1
6	203	432.366168304785	1
6	204	434.557219828509	0
6	206	441.443807283647	0
6	207	444.800276399575	0
6	212	473.00260902335	0
6	213	475.005504408435	0
6	215	475.369278079737	0
6	216	477.566550839805	0
6	221	493.286867919828	0
6	222	494.343889514736	0
6	224	501.939221806893	0
6	225	503.067692358783	0
6	227	509.038289566614	0
6	228	511.369471276252	0
6	230	518.619025209951	0
6	231	523.399619331604	0
6	233	528.562184431506	0
6	235	530.409486620472	1
6	236	530.429555878113	1
6	237	530.894158059805	0
6	249	548.429687237878	0
6	251	552.852190846318	1
6	254	558.782162656068	2
6	256	559.785125051752	3
6	258	571.068733788036	3
6	260	574.152183291069	3
6	261	575.876388039497	3
6	262	576.297969527066	2
6	264	581.777140733225	2
6	265	588.092948462178	2
6	267	591.908523466924	2
6	268	593.50209551172	2
6	270	595.245884919689	2
6	271	597.405151668667	2
6	272	597.752606366867	1
6	273	599.327549156237	0
6	275	599.744693744301	0
6	276	600.284418418708	0
6	278	614.054973155262	0
6	280	614.201791139699	1
6	281	614.378474382384	1
6	282	615.938169562789	0
6	284	639.373022439287	0
6	285	642.539446362132	0
6	292	647.18155342749	0
6	294	652.277535394665	0
6	296	658.412344747376	0
6	297	660.925800173028	0
6	299	662.241880940892	0
6	307	679.735089669793	1
6	309	681.301514871387	2
6	313	702.404637174359	2
6	314	703.72422205713	1
6	327	719.754056870467	1
6	332	727.714540815194	2
6	334	728.563158651515	3
6	336	730.639321852629	4
6	338	736.105648416218	4
6	340	738.051917068501	4
6	344	743.143212324701	5
6	346	746.043867205386	6
6	349	748.788738380785	7
6	350	749.641241875267	7
6	351	752.189170887302	6
6	355	761.173475784625	6
6	357	761.546911015483	7
6	359	762.159761062042	8
6	364	770.565676082391	9
6	371	779.056388390191	10
6	378	804.665387734801	11
6	379	811.289620964415	11
6	380	817.519645333333	10
6	381	821.102206958079	9
6	383	821.141477119636	9
6	384	822.086257686073	9
6	386	823.114470007992	9
6	387	823.327104532908	9
6	388	829.175839240085	8
6	390	829.833902557911	8
6	391	830.878237815632	8
6	392	840.503660181368	7
6	394	841.976749373265	7
6	396	844.753959809814	8
6	397	846.327485460595	8
6	398	851.44084353169	7
6	402	857.484073673838	7
6	407	864.090526057359	8
6	409	864.406093474509	9
6	411	864.410050515611	10
6	415	873.152552595688	11
6	418	880.180520660851	12
6	426	891.019119272213	12
6	427	891.439396722437	11
6	429	892.143133296193	11
6	430	893.90921338641	11
6	431	898.631657382741	10
6	432	899.752617578633	9
6	433	902.936485881569	8
6	435	905.901144136857	8
6	436	910.609760768153	8
6	437	911.938600049067	7
6	441	925.476176921051	6
6	442	925.702371201219	5
6	444	929.964332537532	5
6	449	933.017075888709	6
6	453	937.704094510025	6
6	454	938.064316715042	5
6	455	939.379107249952	4
6	456	940.693522601865	3
6	457	943.898998210334	2
6	458	946.04135885029	1
6	462	951.955263083784	0
6	466	967.038452370635	0
6	468	970.766761584691	1
6	470	975.087371333758	1
6	471	979.177850816372	0
6	473	988.829171470794	0
6	474	998.073978548507	0
6	476	1033.712953239657	0
6	477	1034.841180324005	0
6	485	1063.897103797653	0
6	487	1067.205057491134	1
6	488	1067.586911926352	1
6	489	1069.442870391369	0
6	495	1074.2638470211	0
6	497	1076.070422185143	1
6	499	1078.233322827761	2
6	502	1087.267200351709	2
6	503	1093.026029926143	1
6	504	1094.35448843856	0
6	506	1100.820633055485	0
6	508	1101.542520841805	1
6	509	1101.546159844437	1
6	510	1102.840820113185	0
6	512	1111.342333799117	0
6	516	1118.211138342046	0
6	521	1137.351662066246	0
6	522	1138.031434028918	0
6	524	1143.757808395093	0
6	525	1146.264728552097	0
6	527	1148.722540957953	0
6	529	1150.605600291787	1
6	530	1153.082599322034	1
6	531	1153.825972176424	0
6	535	1155.850971048164	0
6	543	1171.764212020809	1
6	550	1173.638417992965	2
6	553	1183.043987541314	3
6	555	1184.463600298683	4
6	558	1186.294690857023	5
6	559	1191.040790623804	5
6	561	1193.42779355161	5
6	563	1193.952229021391	6
6	564	1194.071812902694	6
6	566	1198.118664749482	6
6	567	1198.646102846363	6
6	569	1204.241343238922	6
6	570	1204.801529612599	6
6	572	1210.346320488679	6
6	573	1212.752123113227	6
6	574	1213.908492590143	5
6	576	1214.33262395137	5
6	578	1214.830841163516	6
6	580	1219.949086922189	7
6	582	1222.914295801811	8
6	584	1223.293270800351	9
6	585	1223.607801423901	9
6	586	1227.727231798565	8
6	590	1236.990758795398	7
6	591	1244.072658078849	6
6	592	1244.681163398028	5
6	593	1244.791047162459	4
6	594	1247.392176353675	3
6	595	1248.49491498596	2
6	597	1248.688204836956	2
6	598	1251.058133926774	2
6	599	1255.585884822371	1
6	600	1256.824651208991	0
6	605	1290.898130123353	0
6	607	1291.823162123162	1
6	608	1292.546543373523	1
6	609	1294.460050755115	0
6	611	1294.576402543527	0
6	612	1298.010762217959	0
6	614	1304.070144681555	0
6	616	1305.840915143514	1
6	617	1306.680098463399	1
6	618	1313.594272661826	0
6	620	1319.757161600396	0
6	621	1321.308167868799	0
6	623	1323.432945874271	0
6	624	1329.336746883346	0
6	626	1329.748623566149	0
6	628	1330.682505835263	1
6	629	1332.046926227553	1
6	630	1332.597837227794	0
6	632	1340.718512005517	0
6	633	1343.986730322812	0
6	635	1345.187440574485	0
6	636	1345.754393408228	0
6	638	1350.785968730655	0
6	640	1350.872180850818	1
6	641	1352.787163565094	1
6	642	1355.62260682555	0
6	650	1382.607022192613	0
6	651	1386.060514460722	0
6	653	1400.916642425074	0
6	660	1422.107356603794	1
6	666	1424.971614565931	2
6	670	1426.229528690923	3
6	676	1451.471703703142	4
6	678	1452.277834284563	5
6	686	1462.965173674297	6
6	693	1473.353495958523	6
6	695	1485.516523248597	6
6	696	1487.206772509415	6
6	698	1487.722538453823	6
6	700	1487.844095693352	7
6	701	1488.117873034344	7
6	703	1489.919406919192	7
6	704	1492.658235810864	7
6	710	1503.613495727106	7
6	712	1504.303228010345	8
6	714	1505.738723982334	9
6	723	1531.653817712618	9
6	724	1536.510216504899	8
6	725	1541.944760512218	7
6	726	1547.291230538173	6
6	727	1553.152767783931	5
6	728	1554.618927345643	4
6	729	1559.209127120473	3
6	730	1560.199745548074	2
6	731	1560.622116529045	1
6	732	1562.328691497768	0
6	741	1571.779811722683	0
6	743	1573.37860006544	1
6	745	1574.86737474354	2
6	748	1580.95010154136	3
6	750	1584.450577034852	3
6	751	1585.285795089819	2
6	753	1589.412012295137	2
6	754	1590.907293873866	2
6	755	1593.801725564252	1
6	756	1601.606055900343	0
6	758	1606.774891541585	0
6	759	1614.509916885173	0
6	766	1626.911053211865	0
6	769	1632.047623014525	1
6	773	1633.802704932022	2
6	778	1644.547544615298	3
6	780	1645.199821265832	4
6	782	1650.037865197686	5
6	784	1650.283004258902	6
6	786	1650.641115236067	6
6	790	1662.245206611831	5
6	791	1663.098266932473	4
6	792	1674.028431351069	3
6	794	1677.203818671379	3
6	795	1681.106150525012	3
6	796	1684.97564349574	2
6	802	1694.228253446423	2
6	804	1695.752850120378	3
6	806	1696.928567990461	4
6	813	1717.067297815278	5
6	814	1718.069556153318	5
6	818	1721.454609309723	4
6	819	1724.445764317587	3
6	823	1725.738022932032	3
6	825	1732.5338024213	4
6	828	1735.719047425022	5
6	830	1737.147083566854	6
6	834	1752.322631477459	6
6	835	1754.088922815431	5
6	836	1756.356673910594	4
6	844	1768.93275183034	4
6	847	1789.832538635294	5
6	850	1799.26165783303	5
6	852	1800.201925045835	5
6	854	1801.397823919369	6
6	855	1801.974121451201	6
6	856	1805.464748867878	5
6	857	1807.440803956371	4
6	858	1810.292650884052	3
6	859	1812.936780260597	2
6	860	1813.292084602806	1
6	862	1813.417267898949	1
6	863	1813.933515979372	1
6	864	1815.024533235386	0
6	866	1820.845952050105	0
6	868	1821.109000042073	1
6	869	1824.15490200118	1
6	871	1824.448238797531	1
6	872	1826.103845023538	1
6	873	1829.134176341027	0
6	878	1851.763375986915	0
6	880	1853.763101051265	1
6	881	1854.273851162206	1
6	883	1861.615734364642	1
6	884	1862.929282670394	1
6	885	1865.248658227991	0
6	890	1872.60282119802	0
6	891	1873.132684250425	0
6	893	1879.356073586884	0
6	894	1880.415647536981	0
6	896	1886.688361683324	0
6	897	1886.931059555948	0
6	902	1902.442019052124	0
6	903	1904.485633457106	0
6	905	1905.861314486726	0
6	906	1907.493154892666	0
6	908	1909.777407995839	0
6	912	1919.868865907272	0
6	914	1922.182695436346	0
6	915	1926.326038828931	0
6	917	1930.15861388626	0
6	918	1931.77703171659	0
6	920	1963.91214132306	0
6	921	1965.652989017297	0
6	926	1973.318976600654	0
6	928	1973.361309767564	1
6	929	1973.54184181622	1
6	931	1975.116582120982	1
6	932	1975.337256094285	1
6	936	1977.572967073261	1
6	938	1979.076635191296	2
6	940	1984.702786912139	2
6	942	1985.261943290884	2
6	943	1986.259920227695	2
6	944	1986.772795796929	1
6	945	1987.518640360282	0
6	947	1989.30345486024	0
6	948	1993.613287657028	0
6	950	2015.354681933544	0
6	951	2017.014205078386	0
6	953	2020.548439221487	0
6	958	2025.725814737138	1
6	959	2025.731305222948	1
6	960	2029.04272291714	0
6	962	2032.01908448859	0
6	963	2033.346882396312	0
6	965	2055.502620266609	0
6	966	2060.333477936344	0
6	968	2060.575503583687	0
6	969	2061.336283768717	0
6	974	2084.709706378142	0
6	975	2091.32889260312	0
6	979	2092.939844548836	0
6	982	2099.037089414943	1
6	983	2099.709500261136	1
6	984	2101.390249344819	0
6	986	2102.591137611019	0
6	987	2110.561831371253	0
6	989	2116.368780264422	0
6	991	2116.482601048769	1
6	995	2119.324063641712	2
6	997	2122.710292874619	2
6	999	2123.674274645256	2
6	1000	2127.85665528542	2
6	1001	2129.464796295307	1
6	1002	2136.113235063069	0
6	1004	2138.040682945383	0
6	1005	2139.188478890043	0
6	1007	2150.885637978048	0
6	1008	2153.875194912461	0
6	1010	2167.367114672204	0
6	1014	2175.126854296642	0
6	1022	2186.034893997877	0
6	1023	2187.694109745135	0
6	1035	2221.227079930321	0
6	1038	2229.184308151294	0
6	1040	2238.889269602652	0
6	1041	2240.780607130469	0
6	1043	2254.483068097837	0
6	1044	2254.838509018352	0
6	1046	2271.075409916749	0
6	1047	2273.424016186693	0
6	1049	2280.771826103366	0
6	1054	2283.864084695993	1
6	1055	2284.322161844573	1
6	1057	2284.36974984129	1
6	1058	2286.141136445363	1
6	1059	2287.468701285075	0
6	1061	2288.442495856882	0
6	1065	2295.006420773249	0
6	1067	2297.580246024688	0
6	1068	2298.589296336078	0
6	1070	2309.781809862415	0
6	1072	2312.772812754872	1
6	1074	2313.521323228255	2
6	1076	2318.332567453696	3
6	1078	2318.868552452175	4
6	1079	2324.573755637712	4
6	1080	2325.402424454933	3
6	1084	2327.906731433003	3
6	1089	2336.865900433734	4
6	1092	2339.803824499231	5
6	1093	2348.561654533191	5
6	1094	2348.647864254608	4
6	1095	2349.045200025561	3
6	1101	2371.147766820008	3
6	1103	2371.152034379967	4
6	1106	2375.747720148702	4
6	1107	2377.850725466035	3
6	1109	2380.887203781705	3
6	1110	2381.689680247956	3
6	1111	2382.562587348568	2
6	1112	2383.133098578758	1
6	1114	2383.188984259807	1
6	1118	2386.397673759669	2
6	1120	2391.11863221044	3
6	1122	2396.657690243402	3
6	1124	2400.591305898383	3
6	1126	2407.515928351927	4
6	1127	2409.531737886368	4
6	1128	2410.473098528313	3
6	1129	2415.411914489487	2
6	1131	2418.130008716	2
6	1135	2423.878827139453	3
6	1138	2430.033569373347	4
6	1140	2435.545057738834	5
6	1141	2436.099503494533	5
6	1148	2454.537285467747	4
6	1149	2455.480584540901	3
6	1151	2457.691458169595	3
6	1153	2461.138953990144	4
6	1154	2461.209404831814	4
6	1155	2461.771286492402	3
6	1157	2462.293654580893	3
6	1158	2464.43794548381	3
6	1159	2466.101474167433	2
6	1160	2470.546619309547	1
6	1162	2473.557527797445	1
6	1163	2474.006969716915	1
6	1164	2474.393064898213	0
6	1166	2474.41331895417	0
6	1168	2483.314383275376	1
6	1169	2483.741642028005	1
6	1170	2487.714351182517	0
6	1172	2487.898238471302	0
6	1173	2495.433894606295	0
7	174	353.497354907362	4.157211257321
7	177	372.84684896733	5.470398542064
7	180	386.191536885633	2.015076129998
7	183	388.467444191791	2.031405504336
7	188	397.101099743094	5.149042910109
7	189	400.849385009455	6.983269187496
7	192	407.30026245638	2.826288231552
7	195	415.651380214303	5.214531571252
7	203	432.366168304785	12.541879762503
7	204	434.557219828509	4.514548776775
7	207	444.800276399575	3.356469115928
7	213	475.005504408435	2.002895385085
7	216	477.566550839805	2.197272760068
7	222	494.343889514736	1.057021594908
7	225	503.067692358783	1.12847055189
7	228	511.369471276252	2.331181709638
7	231	523.399619331604	4.780594121653
7	236	530.429555878113	1.867371446607
7	237	530.894158059805	0.484671439333
7	258	571.068733788036	22.639046550158
7	261	575.876388039497	23.024197193179
7	262	576.297969527066	17.515806870998
7	265	588.092948462178	28.307823410426
7	268	593.50209551172	19.349912220651
7	271	597.405151668667	15.628010935442
7	272	597.752606366867	5.844082899943
7	273	599.327549156237	4.081664236548
7	276	600.284418418708	0.539724674407
7	281	614.378474382384	0.323501227122
7	282	615.938169562789	1.73637842309
7	285	642.539446362132	3.166423922845
7	294	652.277535394665	5.095981967175
7	297	660.925800173028	2.513455425652
7	313	702.404637174359	22.669547504566
7	314	703.72422205713	22.422707185743
7	338	736.105648416218	16.351591545751
7	350	749.641241875267	21.926701060073
7	351	752.189170887302	23.626012235787
7	379	811.289620964415	70.431859054958
7	380	817.519645333333	74.376433008632
7	381	821.102206958079	75.058339752693
7	384	822.086257686073	73.297519305288
7	387	823.327104532908	63.541924987041
7	388	829.175839240085	68.00236345546
7	391	830.878237815632	69.331326800149
7	392	840.503660181368	78.343899119326
7	397	846.327485460595	76.330426980595
7	398	851.44084353169	80.875167449299
7	426	891.019119272213	86.353731537412
7	427	891.439396722437	70.297919602801
7	430	893.90921338641	70.794743378418
7	431	898.631657382741	68.79775482483
7	432	899.752617578633	57.775868205368
7	433	902.936485881569	58.182526071755
7	436	910.609760768153	56.935915346188
7	437	911.938600049067	54.454526375229
7	441	925.476176921051	61.070083446542
7	442	925.702371201219	61.292320685608
7	453	937.704094510025	45.560961213832
7	454	938.064316715042	32.163172578185
7	455	939.379107249952	26.443349051117
7	456	940.693522601865	10.729190064333
7	457	943.898998210334	11.69632619746
7	458	946.04135885029	13.024282961581
7	462	951.955263083784	5.657580640543
7	470	975.087371333758	8.048918963123
7	471	979.177850816372	8.411089231681
7	474	998.073978548507	9.244807077713
7	477	1034.841180324005	1.128227084348
7	488	1067.586911926352	3.689808128699
7	489	1069.442870391369	2.237812900235
7	502	1087.267200351709	13.003353330609
7	503	1093.026029926143	16.955607741
7	504	1094.35448843856	16.121165610799
7	509	1101.546159844437	0.725526788952
7	510	1102.840820113185	1.29829927138
7	516	1118.211138342046	4.917643578055
7	522	1138.031434028918	0.679771962672
7	525	1146.264728552097	2.506920157004
7	530	1153.082599322034	4.360058364081
7	531	1153.825972176424	3.220371884637
7	559	1191.040790623804	20.518591417906
7	564	1194.071812902694	22.307600881885
7	567	1198.646102846363	25.007684853398
7	570	1204.801529612599	21.757542071285
7	573	1212.752123113227	28.288522814544
7	574	1213.908492590143	27.61380173312
7	585	1223.607801423901	30.180007872291
7	586	1227.727231798565	33.775002777174
7	590	1236.990758795398	32.749415556476
7	591	1244.072658078849	33.72633759017
7	592	1244.681163398028	30.348539446658
7	593	1244.791047162459	29.960205998943
7	594	1247.392176353675	27.443089431486
7	595	1248.49491498596	25.580619184149
7	598	1251.058133926774	27.764863126423
7	599	1255.585884822371	23.977579105274
7	600	1256.824651208991	8.136446372035
7	608	1292.546543373523	1.64841325017
7	609	1294.460050755115	2.636888631953
7	612	1298.010762217959	3.434359674432
7	617	1306.680098463399	2.609953781844
7	618	1313.594272661826	7.753357518312
7	621	1321.308167868799	1.551006268403
7	624	1329.336746883346	5.903801009075
7	629	1332.046926227553	2.298302661404
7	630	1332.597837227794	1.915331392531
7	633	1343.986730322812	3.268218317295
7	636	1345.754393408228	0.566952833743
7	641	1352.787163565094	2.001194834439
7	642	1355.62260682555	4.750425974732
7	651	1386.060514460722	3.453492268109
7	693	1473.353495958523	51.246139354729
7	696	1487.206772509415	62.235157943484
7	701	1488.117873034344	61.888344343421
7	704	1492.658235810864	41.186532107722
7	723	1531.653817712618	61.198185263769
7	724	1536.510216504899	50.993693256302
7	725	1541.944760512218	54.222222058395
7	726	1547.291230538173	59.447134844821
7	727	1553.152767783931	63.233360864739
7	728	1554.618927345643	61.169591747499
7	729	1559.209127120473	55.595631393367
7	730	1560.199745548074	55.896517537729
7	731	1560.622116529045	54.883392546711
7	732	1562.328691497768	33.773367372937
7	750	1584.450577034852	12.670765312169
7	751	1585.285795089819	11.907195024379
7	754	1590.907293873866	16.039919130326
7	755	1593.801725564252	12.851624022892
7	756	1601.606055900343	12.194043605206
7	759	1614.509916885173	7.735025343588
7	786	1650.641115236067	18.593492221542
7	790	1662.245206611831	28.442501679809
7	791	1663.098266932473	18.550722317175
7	792	1674.028431351069	28.828610085237
7	795	1681.106150525012	31.068285327326
7	796	1684.97564349574	34.692639236838
7	814	1718.069556153318	40.865737481939
7	818	1721.454609309723	27.2263558633
7	819	1724.445764317587	28.692914197209
7	834	1752.322631477459	32.388180401899
7	835	1754.088922815431	29.492067081551
7	836	1756.356673910594	30.618650978562
7	850	1799.26165783303	63.542610408008
7	855	1801.974121451201	64.827037884347
7	856	1805.464748867878	65.043417268528
7	857	1807.440803956371	50.246747475928
7	858	1810.292650884052	41.359899053712
7	859	1812.936780260597	23.104241625303
7	860	1813.292084602806	13.090159556971
7	863	1813.933515979372	12.535692060003
7	864	1815.024533235386	1.607265336437
7	869	1824.15490200118	3.308949951075
7	872	1826.103845023538	4.994844981465
7	873	1829.134176341027	4.685937543496
7	881	1854.273851162206	2.510475175291
7	884	1862.929282670394	9.166181619129
7	885	1865.248658227991	3.632923863349
7	891	1873.132684250425	0.529863052405
7	894	1880.415647536981	1.059573950097
7	897	1886.931059555948	0.242697872624
7	903	1904.485633457106	2.043614404982
7	906	1907.493154892666	1.63184040594
7	912	1919.868865907272	9.36261988434
7	915	1926.326038828931	4.143343392585
7	918	1931.77703171659	1.61841783033
7	921	1965.652989017297	1.740847694237
7	929	1973.54184181622	0.222865215566
7	932	1975.337256094285	1.975946326721
7	940	1984.702786912139	8.039150035634
7	943	1986.259920227695	8.686953154434
7	944	1986.772795796929	7.696160605633
7	945	1987.518640360282	2.256697069398
7	948	1993.613287657028	4.309832796788
7	951	2017.014205078386	1.659523144842
7	959	2025.731305222948	4.024628424675
7	960	2029.04272291714	3.316908180002
7	963	2033.346882396312	1.327797907722
7	966	2060.333477936344	4.830857669735
7	969	2061.336283768717	0.76078018503
7	975	2091.32889260312	6.619186224978
7	983	2099.709500261136	6.7696557123
7	984	2101.390249344819	2.353159929876
7	987	2110.561831371253	7.970693760234
7	997	2122.710292874619	6.22769182585
7	1000	2127.85665528542	9.690612300416
7	1001	2129.464796295307	10.140732653595
7	1002	2136.113235063069	12.438960417813
7	1005	2139.188478890043	1.14779594466
7	1008	2153.875194912461	2.989556934413
7	1014	2175.126854296642	5.97210345501
7	1023	2187.694109745135	1.659215747258
7	1038	2229.184308151294	7.957228220973
7	1041	2240.780607130469	1.891337527817
7	1044	2254.838509018352	0.355440920515
7	1047	2273.424016186693	2.348606269944
7	1055	2284.322161844573	3.532887665063
7	1058	2286.141136445363	2.27705174937
7	1059	2287.468701285075	3.098951443785
7	1065	2295.006420773249	6.346504995892
7	1068	2298.589296336078	1.00905031139
7	1079	2324.573755637712	14.791945775297
7	1080	2325.402424454933	12.629611700061
7	1093	2348.561654533191	29.693102081016
7	1094	2348.647864254608	22.761403301847
7	1095	2349.045200025561	21.138468592558
7	1106	2375.747720148702	38.881819714968
7	1107	2377.850725466035	38.046900966804
7	1110	2381.689680247956	18.447976489514
7	1111	2382.562587348568	11.41482052856
7	1112	2383.133098578758	11.981064198791
7	1122	2396.657690243402	13.468705983595
7	1127	2409.531737886368	24.441630673124
7	1128	2410.473098528313	24.075424768644
7	1129	2415.411914489487	24.293282279047
7	1141	2436.099503494533	28.583575142606
7	1148	2454.537285467747	30.658458328294
7	1149	2455.480584540901	25.447015167554
7	1154	2461.209404831814	25.66434709298
7	1155	2461.771286492402	23.715914550366
7	1158	2464.43794548381	17.558033593802
7	1159	2466.101474167433	8.410015997838
7	1160	2470.546619309547	9.407665319403
7	1163	2474.006969716915	11.713315136022
7	1164	2474.393064898213	0.835537100768
7	1169	2483.741642028005	9.328323073835
7	1170	2487.714351182517	4.399967907141
7	1173	2495.433894606295	7.535656134993
8	176	367.376450425266	1
8	179	384.176460755635	1
8	182	386.436038687455	1
8	185	391.952056832985	1
8	187	393.866115821959	2
8	191	404.473974224828	1
8	194	410.436848643051	1
8	197	418.962261761174	1
8	202	430.042671051734	2
8	206	441.443807283647	1
8	212	473.00260902335	1
8	215	475.369278079737	1
8	221	493.286867919828	1
8	224	501.939221806893	1
8	227	509.038289566614	1
8	230	518.619025209951	1
8	233	528.562184431506	1
8	235	530.409486620472	2
8	249	548.429687237878	1
8	251	552.852190846318	2
8	254	558.782162656068	3
8	256	559.785125051752	4
8	260	574.152183291069	4
8	264	581.777140733225	3
8	267	591.908523466924	3
8	270	595.245884919689	3
8	275	599.744693744301	1
8	278	614.054973155262	1
8	280	614.201791139699	2
8	284	639.373022439287	1
8	292	647.18155342749	1
8	296	658.412344747376	1
8	299	662.241880940892	1
8	307	679.735089669793	2
8	309	681.301514871387	3
8	327	719.754056870467	2
8	332	727.714540815194	3
8	334	728.563158651515	4
8	336	730.639321852629	5
8	340	738.051917068501	5
8	344	743.143212324701	6
8	346	746.043867205386	7
8	349	748.788738380785	8
8	355	761.173475784625	7
8	357	761.546911015483	8
8	359	762.159761062042	9
8	364	770.565676082391	10
8	371	779.056388390191	11
8	378	804.665387734801	12
8	383	821.141477119636	10
8	386	823.114470007992	10
8	390	829.833902557911	9
8	394	841.976749373265	8
8	396	844.753959809814	9
8	402	857.484073673838	8
8	407	864.090526057359	9
8	409	864.406093474509	10
8	411	864.410050515611	11
8	415	873.152552595688	12
8	418	880.180520660851	13
8	429	892.143133296193	12
8	435	905.901144136857	9
8	444	929.964332537532	6
8	449	933.017075888709	7
8	466	967.038452370635	1
8	468	970.766761584691	2
8	473	988.829171470794	1
8	476	1033.712953239657	1
8	485	1063.897103797653	1
8	487	1067.205057491134	2
8	495	1074.2638470211	1
8	497	1076.070422185143	2
8	499	1078.233322827761	3
8	506	1100.820633055485	1
8	508	1101.542520841805	2
8	512	1111.342333799117	1
8	521	1137.351662066246	1
8	524	1143.757808395093	1
8	527	1148.722540957953	1
8	529	1150.605600291787	2
8	535	1155.850971048164	1
8	543	1171.764212020809	2
8	550	1173.638417992965	3
8	553	1183.043987541314	4
8	555	1184.463600298683	5
8	558	1186.294690857023	6
8	561	1193.42779355161	6
8	563	1193.952229021391	7
8	566	1198.118664749482	7
8	569	1204.241343238922	7
8	572	1210.346320488679	7
8	576	1214.33262395137	6
8	578	1214.830841163516	7
8	580	1219.949086922189	8
8	582	1222.914295801811	9
8	584	1223.293270800351	10
8	597	1248.688204836956	3
8	605	1290.898130123353	1
8	607	1291.823162123162	2
8	611	1294.576402543527	1
8	614	1304.070144681555	1
8	616	1305.840915143514	2
8	620	1319.757161600396	1
8	623	1323.432945874271	1
8	626	1329.748623566149	1
8	628	1330.682505835263	2
8	632	1340.718512005517	1
8	635	1345.187440574485	1
8	638	1350.785968730655	1
8	640	1350.872180850818	2
8	650	1382.607022192613	1
8	653	1400.916642425074	1
8	660	1422.107356603794	2
8	666	1424.971614565931	3
8	670	1426.229528690923	4
8	676	1451.471703703142	5
8	678	1452.277834284563	6
8	686	1462.965173674297	7
8	695	1485.516523248597	7
8	698	1487.722538453823	7
8	700	1487.844095693352	8
8	703	1489.919406919192	8
8	710	1503.613495727106	8
8	712	1504.303228010345	9
8	714	1505.738723982334	10
8	741	1571.779811722683	1
8	743	1573.37860006544	2
8	745	1574.86737474354	3
8	748	1580.95010154136	4
8	753	1589.412012295137	3
8	758	1606.774891541585	1
8	766	1626.911053211865	1
8	769	1632.047623014525	2
8	773	1633.802704932022	3
8	778	1644.547544615298	4
8	780	1645.199821265832	5
8	782	1650.037865197686	6
8	784	1650.283004258902	7
8	794	1677.203818671379	4
8	802	1694.228253446423	3
8	804	1695.752850120378	4
8	806	1696.928567990461	5
8	813	1717.067297815278	6
8	823	1725.738022932032	4
8	825	1732.5338024213	5
8	828	1735.719047425022	6
8	830	1737.147083566854	7
8	844	1768.93275183034	5
8	847	1789.832538635294	6
8	852	1800.201925045835	6
8	854	1801.397823919369	7
8	862	1813.417267898949	2
8	866	1820.845952050105	1
8	868	1821.109000042073	2
8	871	1824.448238797531	2
8	878	1851.763375986915	1
8	880	1853.763101051265	2
8	883	1861.615734364642	2
8	890	1872.60282119802	1
8	893	1879.356073586884	1
8	896	1886.688361683324	1
8	902	1902.442019052124	1
8	905	1905.861314486726	1
8	908	1909.777407995839	1
8	914	1922.182695436346	1
8	917	1930.15861388626	1
8	920	1963.91214132306	1
8	926	1973.318976600654	1
8	928	1973.361309767564	2
8	931	1975.116582120982	2
8	936	1977.572967073261	2
8	938	1979.076635191296	3
8	942	1985.261943290884	3
8	947	1989.30345486024	1
8	950	2015.354681933544	1
8	953	2020.548439221487	1
8	958	2025.725814737138	2
8	962	2032.01908448859	1
8	965	2055.502620266609	1
8	968	2060.575503583687	1
8	974	2084.709706378142	1
8	979	2092.939844548836	1
8	982	2099.037089414943	2
8	986	2102.591137611019	1
8	989	2116.368780264422	1
8	991	2116.482601048769	2
8	995	2119.324063641712	3
8	999	2123.674274645256	3
8	1004	2138.040682945383	1
8	1007	2150.885637978048	1
8	1010	2167.367114672204	1
8	1022	2186.034893997877	1
8	1035	2221.227079930321	1
8	1040	2238.889269602652	1
8	1043	2254.483068097837	1
8	1046	2271.075409916749	1
8	1049	2280.771826103366	1
8	1054	2283.864084695993	2
8	1057	2284.36974984129	2
8	1061	2288.442495856882	1
8	1067	2297.580246024688	1
8	1070	2309.781809862415	1
8	1072	2312.772812754872	2
8	1074	2313.521323228255	3
8	1076	2318.332567453696	4
8	1078	2318.868552452175	5
8	1084	2327.906731433003	4
8	1089	2336.865900433734	5
8	1092	2339.803824499231	6
8	1101	2371.147766820008	4
8	1103	2371.152034379967	5
8	1109	2380.887203781705	4
8	1114	2383.188984259807	2
8	1118	2386.397673759669	3
8	1120	2391.11863221044	4
8	1124	2400.591305898383	4
8	1126	2407.515928351927	5
8	1131	2418.130008716	3
8	1135	2423.878827139453	4
8	1138	2430.033569373347	5
8	1140	2435.545057738834	6
8	1151	2457.691458169595	4
8	1153	2461.138953990144	5
8	1157	2462.293654580893	4
8	1162	2473.557527797445	2
8	1166	2474.41331895417	1
8	1168	2483.314383275376	2
8	1172	2487.898238471302	1
9	199	419.824288542282	1
9	209	445.426883461239	1
9	218	481.155473799364	1
9	239	536.946986058516	1
9	242	541.720738592907	1
9	244	541.736319955185	2
9	247	545.749899725905	2
9	287	642.852204457678	1
9	289	646.904432915695	2
9	301	666.123998518003	1
9	304	673.379073049835	1
9	311	692.296201596188	1
9	316	707.174758416955	1
9	318	707.316586279335	2
9	322	718.627327699064	1
9	325	719.093978241006	1
9	330	725.978438086876	1
9	342	740.857761909457	1
9	353	759.785179545867	1
9	362	769.99705848	1
9	366	773.001749095169	2
9	368	773.957541426202	3
9	373	780.867851638882	3
9	400	853.673845421965	1
9	404	862.799389841877	2
9	413	868.098797839271	2
9	420	880.277491819915	2
9	422	882.177038103687	3
9	439	912.935758198835	1
9	446	932.202672012874	1
9	451	936.657389288969	1
9	460	946.297682443241	1
9	464	960.738265453186	1
9	479	1042.502595974247	1
9	482	1060.452690583967	1
9	491	1073.028472791389	1
9	493	1073.979749661901	2
9	514	1113.293494763991	1
9	518	1132.000155132253	1
9	533	1154.808071207918	1
9	538	1158.547296278815	1
9	541	1170.522199205898	1
9	545	1171.867477851254	2
9	547	1172.13455232041	3
9	588	1231.608305717097	1
9	602	1288.624242739881	1
9	644	1356.036850805122	1
9	646	1372.606487445524	2
9	655	1405.653119015198	1
9	657	1415.389328740932	2
9	662	1422.655085990457	2
9	664	1422.976987813847	3
9	668	1425.03253417898	4
9	673	1430.283059070374	4
9	680	1453.338074498799	4
9	683	1458.853815662555	4
9	691	1470.455632448849	1
9	706	1493.449335598144	1
9	708	1496.052380205525	2
9	717	1514.884379549808	2
9	721	1528.555324124831	1
9	734	1564.373909976404	1
9	736	1565.073784446035	2
9	739	1568.88161662372	2
9	761	1616.890074396541	1
9	764	1626.810805176556	1
9	771	1632.799960695581	1
9	775	1636.823592669957	2
9	788	1658.548708404319	1
9	798	1686.708174305305	1
9	800	1694.179105853179	2
9	809	1705.252233173425	2
9	816	1719.93445107556	1
9	821	1724.59685573388	1
9	832	1740.42133159935	1
9	838	1757.194056480443	1
9	840	1761.281828584842	2
9	842	1761.918109262225	3
9	875	1831.77425238343	1
9	887	1868.713537013691	1
9	899	1898.558444776125	1
9	910	1910.506246022932	1
9	923	1966.608133512492	1
9	934	1976.663636876505	1
9	955	2021.706676798273	1
9	971	2073.959348802285	1
9	977	2092.180436930985	1
9	993	2118.166042985004	1
9	1012	2169.154750841632	1
9	1016	2177.061307273094	1
9	1019	2178.914416394662	1
9	1025	2195.814478513715	1
9	1028	2200.177172437229	1
9	1031	2214.891347264506	1
9	1033	2215.816986545285	2
9	1051	2280.78927417951	1
9	1063	2288.659915777357	1
9	1082	2325.886460952761	1
9	1087	2335.729066720743	1
9	1097	2363.241703758442	1
9	1099	2369.572912620892	2
9	1116	2385.090107213244	1
9	1133	2420.381264551342	1
9	1143	2438.055371942036	1
9	1146	2446.879911890008	1
10	199	419.824288542282	5
10	301	666.123998518003	6
10	304	673.379073049835	7
10	311	692.296201596188	8
10	316	707.174758416955	9
10	322	718.627327699064	10
10	325	719.093978241006	11
10	330	725.978438086876	12
10	342	740.857761909457	13
10	353	759.785179545867	14
10	362	769.99705848	15
10	400	853.673845421965	16
10	439	912.935758198835	17
10	446	932.202672012874	18
10	451	936.657389288969	19
10	460	946.297682443241	20
10	514	1113.293494763991	21
10	538	1158.547296278815	22
10	541	1170.522199205898	23
10	588	1231.608305717097	24
10	655	1405.653119015198	25
10	691	1470.455632448849	26
10	706	1493.449335598144	27
10	721	1528.555324124831	28
10	771	1632.799960695581	29
10	788	1658.548708404319	30
10	798	1686.708174305305	31
10	816	1719.93445107556	32
10	821	1724.59685573388	33
10	832	1740.42133159935	34
10	838	1757.194056480443	35
10	910	1910.506246022932	36
10	934	1976.663636876505	37
10	955	2021.706676798273	38
10	993	2118.166042985004	39
10	1012	2169.154750841632	40
10	1051	2280.78927417951	41
10	1063	2288.659915777357	42
10	1082	2325.886460952761	43
10	1087	2335.729066720743	44
10	1097	2363.241703758442	45
10	1116	2385.090107213244	46
10	1133	2420.381264551342	47
10	1143	2438.055371942036	48
10	1146	2446.879911890008	49
11	1174	2500	0.1056
12	1174	2500	0.0508

