version 2
run experiments_medium_game_mode1-143-20230311-09:40:26-9385
attr configname experiments_medium_game_mode1
attr datetime 20230311-09:40:26
attr experiment experiments_medium_game_mode1
attr inifile omnetpp.ini
attr iterationvars "$0=5, $1=5, $2=0"
attr iterationvarsf 5,5,0-
attr measurement "$0=5, $1=5, $2=0"
attr network Network
attr processid 9385
attr repetition 23
attr replication #23
attr resultdir results
attr runnumber 143
attr seedset 23
param *.boss.arrival_mean 20
param *.boss.service_mean 5
param *.minion.arrival_mean 10
param *.minion.service_mean 5
param *.player.recover_rate_x 0
param **.minion.arrival_distribution 0
param **.minion.service_distribution 0
param **.boss.arrival_distribution 0
param **.boss.service_distribution 0

vector 0 Network.player minion_jobs_number_stat:vector ETV
attr source signal_minion_jobs_number
vector 1 Network.player minion_jobs_queue_number_stat:vector ETV
attr source signal_minion_jobs_queue_number
vector 2 Network.player boss_defeated_stat:vector ETV
attr source signal_boss_defeated
vector 3 Network.player boss_jobs_queue_number_stat:vector ETV
attr source signal_boss_jobs_queue_number
vector 4 Network.player boss_response_time_stat:vector ETV
attr source signal_boss_response_time
vector 5 Network.player minion_waiting_time_stat:vector ETV
attr source signal_minion_waiting_time
vector 6 Network.player minion_defeated_stat:vector ETV
attr source signal_minion_defeated
vector 7 Network.player minion_response_time_stat:vector ETV
attr source signal_minion_response_time
vector 8 Network.player boss_jobs_number_stat:vector ETV
attr source signal_boss_jobs_number
vector 9 Network.player boss_waiting_time_stat:vector ETV
attr source signal_boss_waiting_time
vector 10 Network.player minion_recovered_stat:vector ETV
attr source signal_minion_recovered
vector 11 Network.player minion_throughput:vector ETV
attr source signal_minion_throughput
vector 12 Network.player boss_throughput:vector ETV
attr source signal_boss_throughput
0	162	351.409402957577	2
0	169	370.777473116595	1
0	173	378.488229332204	1
0	176	391.078058889789	1
0	179	397.97888353961	1
0	182	413.278209427464	1
0	184	414.494555353125	2
0	190	434.906945211122	1
0	194	437.0912865596	1
0	196	438.966175237987	2
0	202	474.26066636912	1
0	206	480.065795011029	1
0	210	497.231086362742	2
0	217	512.07678505048	1
0	220	518.945557114013	2
0	227	544.217495540561	1
0	251	623.258149908015	1
0	253	627.605220061232	2
0	256	628.739338523454	3
0	258	630.00688768246	4
0	266	647.708836715768	4
0	268	652.384505225663	5
0	273	664.273518268876	3
0	275	666.288154121382	4
0	278	674.347348270964	4
0	280	674.425555408986	5
0	282	675.899256176373	6
0	285	700.760062923818	6
0	294	710.865589497593	7
0	297	724.828608809006	8
0	300	730.709122944328	9
0	302	731.848271043627	10
0	312	749.208050082966	3
0	317	760.492420943954	3
0	321	765.748292279184	3
0	329	773.490385942751	3
0	331	780.212356192121	4
0	333	787.654960188613	5
0	335	788.323488024282	6
0	339	797.85556685412	7
0	341	798.413781185913	8
0	349	811.294243343722	5
0	352	813.120722125919	5
0	354	813.826106259941	6
0	356	816.68276717622	7
0	360	822.977483888458	6
0	362	824.741693647157	7
0	367	830.931395268176	7
0	369	834.658069146762	8
0	381	852.005555808404	9
0	385	869.703654029265	8
0	387	874.30463029789	9
0	395	900.13962826778	4
0	398	904.889434806243	4
0	401	918.145831209117	4
0	403	918.838667467392	5
0	406	930.432183228779	5
0	408	934.017006555342	6
0	411	934.29913745827	6
0	421	954.82279783654	2
0	427	961.626707293467	2
0	429	968.280150071091	3
0	431	971.793722177781	4
0	434	974.151422278521	4
0	436	976.9459914137	5
0	438	978.394934346698	6
0	442	986.421336995351	5
0	444	987.326568608815	6
0	448	1001.036176797824	7
0	456	1016.748146059837	6
0	458	1020.510218106742	7
0	465	1033.999585119216	8
0	472	1043.756563453189	5
0	475	1051.620915736899	5
0	492	1088.408374112451	3
0	496	1090.63607194241	2
0	500	1095.507883561552	1
0	503	1108.151485015426	1
0	506	1119.147686660366	1
0	508	1119.446801457123	2
0	513	1123.425782964743	3
0	516	1126.517568189753	3
0	520	1131.053028010706	2
0	524	1151.019326435675	1
0	527	1152.885612349416	1
0	533	1169.793818019991	1
0	536	1172.430706127412	1
0	540	1176.785421987816	2
0	543	1183.600650372988	3
0	549	1198.630166700021	4
0	560	1232.03765163287	1
0	567	1249.526440271864	1
0	573	1254.309630554597	2
0	578	1263.305969080765	3
0	582	1267.464390136375	4
0	589	1282.299306329868	5
0	593	1287.698133590899	6
0	599	1293.601948324288	7
0	611	1323.21393942098	4
0	614	1329.212402018474	4
0	630	1363.610044111697	2
0	639	1369.946213549631	3
0	643	1382.460755315621	4
0	645	1384.501614716769	5
0	647	1387.20796223363	6
0	649	1387.325471994752	7
0	652	1393.722248568077	8
0	664	1425.17509749129	2
0	666	1425.196467057224	3
0	671	1453.829994229033	1
0	674	1490.750988451092	1
0	676	1491.240197052635	2
0	680	1496.543116832561	1
0	689	1525.251530865329	1
0	691	1526.464473774889	2
0	696	1534.15076374501	2
0	698	1538.820365119803	3
0	700	1540.897024957448	4
0	703	1561.95395168398	5
0	707	1565.233562054768	4
0	709	1566.62855413384	5
0	713	1575.187227612997	4
0	722	1588.772610919627	1
0	728	1595.274226142937	1
0	731	1601.208194458292	1
0	734	1622.917714708643	1
0	737	1623.024578515748	1
0	740	1625.660580289895	1
0	742	1633.273764316155	2
0	755	1678.424632632454	1
0	767	1697.969204775388	1
0	770	1707.218097800071	1
0	773	1712.437322052799	1
0	781	1734.191289418866	2
0	784	1740.94459471947	2
0	789	1746.967370311295	3
0	794	1757.017947266365	4
0	800	1768.826021958188	1
0	802	1771.13144291321	2
0	808	1800.299456396917	1
0	810	1802.158581269757	2
0	813	1805.623758910247	3
0	816	1806.711460360698	3
0	823	1817.133171535299	2
0	827	1825.812863346784	1
0	832	1827.864274009818	1
0	836	1833.258109085254	1
0	840	1838.116738802052	2
0	842	1848.699091873847	3
0	845	1848.942959488875	4
0	848	1855.407628382954	4
0	850	1863.515189732285	5
0	852	1867.17014373062	6
0	856	1883.03084663504	5
0	866	1918.146279260694	1
0	869	1924.655666632118	1
0	871	1925.505450703021	2
0	873	1925.829975339095	3
0	876	1935.226545363888	3
0	878	1935.58879072287	4
0	880	1935.70359640184	5
0	890	1977.715694456812	1
0	893	1999.230398836984	1
0	899	2011.407925776068	1
0	902	2034.806196267955	1
0	907	2055.555497537374	1
0	914	2089.775272916261	1
0	918	2090.88877186885	2
0	920	2095.110096941955	3
0	924	2102.439649176249	3
0	927	2106.021876466934	3
0	929	2109.291786164653	4
0	931	2114.395459772272	5
0	933	2115.168904883532	6
0	935	2116.267823271359	7
0	939	2122.901772868527	8
0	941	2123.062148492924	9
0	953	2148.457985402315	9
0	957	2151.828213339695	9
0	961	2160.367110380213	8
0	965	2162.102240589715	9
0	967	2162.187808588662	10
0	969	2166.088356402654	11
0	975	2189.531676080038	9
0	980	2194.994834075687	10
0	983	2197.694611454535	10
0	991	2209.48532261622	8
0	993	2211.311621876526	9
0	999	2221.220665968171	6
0	1006	2243.478928328736	4
0	1008	2246.199873964957	5
0	1011	2250.397060634754	6
0	1016	2260.291567120752	7
0	1020	2273.128379691331	6
0	1022	2278.94146497112	7
0	1027	2283.518189796709	5
0	1031	2292.05464674669	4
0	1037	2322.682949916442	1
0	1043	2365.592731081332	1
0	1046	2367.633303705858	1
0	1055	2394.973432391493	1
0	1060	2396.233325765036	1
0	1062	2396.432639650882	2
0	1068	2406.724507506172	3
0	1070	2415.544886743746	4
0	1073	2427.390809023039	5
0	1077	2432.409733102057	6
0	1094	2460.200756621562	1
0	1096	2460.798367668201	2
0	1100	2463.437583920972	3
0	1104	2468.036643076955	4
0	1106	2468.171923063472	5
0	1108	2469.518480614558	6
0	1113	2483.984285460263	6
0	1115	2485.431446660174	7
0	1122	2495.212845808239	5
1	162	351.409402957577	1
1	164	354.745298861905	1
1	165	355.621405360392	0
1	169	370.777473116595	0
1	171	378.21855177439	0
1	173	378.488229332204	0
1	174	379.0478053305	0
1	176	391.078058889789	0
1	177	395.672258410588	0
1	179	397.97888353961	0
1	180	398.28111222174	0
1	182	413.278209427464	0
1	184	414.494555353125	1
1	185	423.457998035782	1
1	186	427.136239674636	0
1	190	434.906945211122	0
1	192	435.51647866194	0
1	194	437.0912865596	0
1	196	438.966175237987	1
1	197	446.170150118243	1
1	198	450.379135005729	0
1	202	474.26066636912	0
1	204	477.476402219787	0
1	206	480.065795011029	0
1	210	497.231086362742	1
1	212	498.573846895132	1
1	213	502.06611523952	0
1	217	512.07678505048	0
1	220	518.945557114013	1
1	221	523.748215032551	1
1	222	524.002017061228	0
1	227	544.217495540561	0
1	231	554.065734429809	0
1	251	623.258149908015	0
1	253	627.605220061232	1
1	256	628.739338523454	2
1	258	630.00688768246	3
1	264	647.284781948284	3
1	266	647.708836715768	3
1	268	652.384505225663	4
1	269	654.826250937798	4
1	270	659.957356343142	3
1	271	660.442859357592	2
1	273	664.273518268876	2
1	275	666.288154121382	3
1	276	670.496040685551	3
1	278	674.347348270964	3
1	280	674.425555408986	4
1	282	675.899256176373	5
1	283	686.488878893726	5
1	285	700.760062923818	5
1	294	710.865589497593	6
1	297	724.828608809006	7
1	300	730.709122944328	8
1	302	731.848271043627	9
1	303	734.956010509194	9
1	304	736.122763224902	8
1	305	737.707804079696	7
1	306	738.322216231215	6
1	307	741.567917582311	5
1	308	743.55615849172	4
1	309	743.953975794118	3
1	310	747.200100125911	2
1	312	749.208050082966	2
1	313	749.593914719693	2
1	317	760.492420943954	2
1	319	764.052339421237	2
1	321	765.748292279184	2
1	325	769.965173762652	2
1	329	773.490385942751	2
1	331	780.212356192121	3
1	333	787.654960188613	4
1	335	788.323488024282	5
1	339	797.85556685412	6
1	341	798.413781185913	7
1	344	805.095265581857	7
1	345	806.611453657032	6
1	346	808.962934901553	5
1	347	809.741729845035	4
1	349	811.294243343722	4
1	350	811.374598265616	4
1	352	813.120722125919	4
1	354	813.826106259941	5
1	356	816.68276717622	6
1	357	817.743522032474	6
1	358	819.707070762367	5
1	360	822.977483888458	5
1	362	824.741693647157	6
1	363	828.064612278081	6
1	367	830.931395268176	6
1	369	834.658069146762	7
1	381	852.005555808404	8
1	382	854.586029439895	8
1	383	866.393165076685	7
1	385	869.703654029265	7
1	387	874.30463029789	8
1	388	881.170581809985	8
1	389	892.800047280764	7
1	390	896.370818705692	6
1	391	899.403386821175	5
1	392	899.422272051859	4
1	393	899.827123786359	3
1	395	900.13962826778	3
1	396	902.961220438017	3
1	398	904.889434806243	3
1	399	908.103505742451	3
1	401	918.145831209117	3
1	403	918.838667467392	4
1	404	921.197064861439	4
1	406	930.432183228779	4
1	408	934.017006555342	5
1	409	934.193608018733	5
1	411	934.29913745827	5
1	412	934.875873150084	5
1	413	935.550515949653	4
1	414	936.521249007834	3
1	418	948.381947550468	2
1	419	949.001837071287	1
1	421	954.82279783654	1
1	422	957.841677953716	1
1	427	961.626707293467	1
1	429	968.280150071091	2
1	431	971.793722177781	3
1	432	972.747531155591	3
1	434	974.151422278521	3
1	436	976.9459914137	4
1	438	978.394934346698	5
1	439	981.651942036799	5
1	440	985.975295397267	4
1	442	986.421336995351	4
1	444	987.326568608815	5
1	448	1001.036176797824	6
1	450	1007.596727755539	6
1	451	1009.587957130566	5
1	456	1016.748146059837	5
1	458	1020.510218106742	6
1	465	1033.999585119216	7
1	467	1038.513912528665	7
1	468	1038.898018663957	6
1	469	1041.927317308888	5
1	470	1042.073853935233	4
1	472	1043.756563453189	4
1	473	1048.449087912074	4
1	475	1051.620915736899	4
1	476	1053.193231228183	4
1	486	1069.978287542407	3
1	490	1087.660111638994	2
1	492	1088.408374112451	2
1	493	1089.001743699827	2
1	494	1089.274141172805	1
1	496	1090.63607194241	1
1	497	1094.960872854303	1
1	498	1095.44652396854	0
1	500	1095.507883561552	0
1	501	1107.388426089847	0
1	503	1108.151485015426	0
1	504	1111.188004135695	0
1	506	1119.147686660366	0
1	508	1119.446801457123	1
1	513	1123.425782964743	2
1	514	1124.043164635032	2
1	516	1126.517568189753	2
1	517	1127.417125346712	2
1	518	1127.481819486213	1
1	520	1131.053028010706	1
1	521	1133.549425494738	1
1	522	1146.199216354636	0
1	524	1151.019326435675	0
1	525	1152.209935154801	0
1	527	1152.885612349416	0
1	528	1153.80597788305	0
1	533	1169.793818019991	0
1	534	1169.948103675573	0
1	536	1172.430706127412	0
1	540	1176.785421987816	1
1	543	1183.600650372988	2
1	549	1198.630166700021	3
1	552	1209.877622600489	3
1	553	1210.864816943006	2
1	554	1211.535893488918	1
1	555	1212.981207557815	0
1	560	1232.03765163287	0
1	561	1234.951572701345	0
1	567	1249.526440271864	0
1	573	1254.309630554597	1
1	578	1263.305969080765	2
1	582	1267.464390136375	3
1	589	1282.299306329868	4
1	593	1287.698133590899	5
1	599	1293.601948324288	6
1	606	1301.687077791614	6
1	607	1313.376521041433	5
1	608	1316.813334461389	4
1	609	1318.47797491767	3
1	611	1323.21393942098	3
1	612	1323.355046747829	3
1	614	1329.212402018474	3
1	615	1330.20764169808	3
1	616	1331.440517787294	2
1	617	1332.581560654469	1
1	630	1363.610044111697	1
1	639	1369.946213549631	2
1	643	1382.460755315621	3
1	645	1384.501614716769	4
1	647	1387.20796223363	5
1	649	1387.325471994752	6
1	652	1393.722248568077	7
1	653	1396.212998678126	7
1	654	1398.949171843767	6
1	655	1399.898687884109	5
1	656	1402.370550415878	4
1	657	1409.764817061364	3
1	661	1413.620024801752	2
1	662	1415.409063808176	1
1	664	1425.17509749129	1
1	666	1425.196467057224	2
1	667	1443.98389841427	2
1	668	1450.954723138723	1
1	669	1452.17064507393	0
1	671	1453.829994229033	0
1	672	1461.579759006061	0
1	674	1490.750988451092	0
1	676	1491.240197052635	1
1	677	1492.375247604659	1
1	678	1495.271359882116	0
1	680	1496.543116832561	0
1	681	1500.550404996234	0
1	689	1525.251530865329	0
1	691	1526.464473774889	1
1	692	1527.022555481036	1
1	696	1534.15076374501	1
1	698	1538.820365119803	2
1	700	1540.897024957448	3
1	703	1561.95395168398	4
1	704	1562.353416986165	4
1	705	1564.172682960354	3
1	707	1565.233562054768	3
1	709	1566.62855413384	4
1	710	1568.871681405247	4
1	711	1573.059930962436	3
1	713	1575.187227612997	3
1	714	1580.43621016335	3
1	715	1583.163349748635	2
1	716	1583.36873079875	1
1	717	1583.476450745867	0
1	722	1588.772610919627	0
1	726	1594.337077632272	0
1	728	1595.274226142937	0
1	729	1595.332608893135	0
1	731	1601.208194458292	0
1	732	1610.852829810985	0
1	734	1622.917714708643	0
1	735	1622.99474611383	0
1	737	1623.024578515748	0
1	738	1623.668900735656	0
1	740	1625.660580289895	0
1	742	1633.273764316155	1
1	746	1638.464670840405	1
1	747	1639.79200683604	0
1	755	1678.424632632454	0
1	765	1697.85683527399	0
1	767	1697.969204775388	0
1	768	1700.926736682028	0
1	770	1707.218097800071	0
1	771	1707.357530495226	0
1	773	1712.437322052799	0
1	781	1734.191289418866	1
1	782	1735.075717543005	1
1	784	1740.94459471947	1
1	789	1746.967370311295	2
1	794	1757.017947266365	3
1	795	1760.404728546581	3
1	796	1765.208869339016	2
1	797	1765.555284901153	1
1	798	1765.56106850425	0
1	800	1768.826021958188	0
1	802	1771.13144291321	1
1	803	1774.21150120169	1
1	804	1776.508318353131	0
1	808	1800.299456396917	0
1	810	1802.158581269757	1
1	813	1805.623758910247	2
1	814	1805.833412222915	2
1	816	1806.711460360698	2
1	820	1809.971476821869	2
1	821	1810.482988284101	1
1	823	1817.133171535299	1
1	824	1817.677819888028	1
1	825	1822.045686841596	0
1	827	1825.812863346784	0
1	828	1826.288400501512	0
1	832	1827.864274009818	0
1	834	1830.33984057032	0
1	836	1833.258109085254	0
1	840	1838.116738802052	1
1	842	1848.699091873847	2
1	845	1848.942959488875	3
1	846	1849.943182759941	3
1	848	1855.407628382954	3
1	850	1863.515189732285	4
1	852	1867.17014373062	5
1	853	1875.465781900268	5
1	854	1878.669375470715	4
1	856	1883.03084663504	4
1	857	1885.537737303111	4
1	858	1885.714524157922	3
1	859	1887.241010013019	2
1	863	1892.70032208559	1
1	864	1898.88274278379	0
1	866	1918.146279260694	0
1	867	1920.481916574888	0
1	869	1924.655666632118	0
1	871	1925.505450703021	1
1	873	1925.829975339095	2
1	874	1928.960492459551	2
1	876	1935.226545363888	2
1	878	1935.58879072287	3
1	880	1935.70359640184	4
1	881	1935.72202702998	4
1	882	1936.939134553398	3
1	883	1943.475046698499	2
1	884	1944.937370332707	1
1	888	1956.688089721793	0
1	890	1977.715694456812	0
1	891	1982.378485877539	0
1	893	1999.230398836984	0
1	897	2009.657984444918	0
1	899	2011.407925776068	0
1	900	2011.516563584932	0
1	902	2034.806196267955	0
1	903	2034.873939068185	0
1	907	2055.555497537374	0
1	909	2061.999868086871	0
1	914	2089.775272916261	0
1	918	2090.88877186885	1
1	920	2095.110096941955	2
1	922	2099.073045955064	2
1	924	2102.439649176249	2
1	925	2103.597075537723	2
1	927	2106.021876466934	2
1	929	2109.291786164653	3
1	931	2114.395459772272	4
1	933	2115.168904883532	5
1	935	2116.267823271359	6
1	939	2122.901772868527	7
1	941	2123.062148492924	8
1	949	2147.45768030883	8
1	953	2148.457985402315	8
1	955	2149.011615255816	8
1	957	2151.828213339695	8
1	958	2157.811515041008	8
1	959	2160.233348398984	7
1	961	2160.367110380213	7
1	965	2162.102240589715	8
1	967	2162.187808588662	9
1	969	2166.088356402654	10
1	971	2175.465635573979	10
1	972	2176.494950855434	9
1	973	2184.548675447426	8
1	975	2189.531676080038	8
1	980	2194.994834075687	9
1	981	2196.291987961239	9
1	983	2197.694611454535	9
1	984	2197.758201584233	9
1	985	2197.895270923893	8
1	986	2198.384997596092	7
1	991	2209.48532261622	7
1	993	2211.311621876526	8
1	994	2211.468526373712	8
1	995	2214.068867824568	7
1	996	2217.317059615723	6
1	997	2217.727951255381	5
1	999	2221.220665968171	5
1	1000	2222.702424244811	5
1	1001	2230.651537452959	4
1	1002	2238.433543958067	3
1	1006	2243.478928328736	3
1	1008	2246.199873964957	4
1	1011	2250.397060634754	5
1	1016	2260.291567120752	6
1	1017	2268.412748743476	6
1	1018	2269.70776545048	5
1	1020	2273.128379691331	5
1	1022	2278.94146497112	6
1	1023	2280.981448417641	6
1	1024	2281.460107794216	5
1	1025	2281.99307952369	4
1	1027	2283.518189796709	4
1	1028	2286.96832753093	4
1	1029	2288.217228817075	3
1	1031	2292.05464674669	3
1	1032	2298.913453010777	3
1	1033	2302.322570055746	2
1	1034	2304.608056437416	1
1	1035	2306.061415145578	0
1	1037	2322.682949916442	0
1	1038	2327.164880012071	0
1	1043	2365.592731081332	0
1	1044	2366.619925412216	0
1	1046	2367.633303705858	0
1	1047	2368.398127830235	0
1	1055	2394.973432391493	0
1	1056	2395.115081198251	0
1	1060	2396.233325765036	0
1	1062	2396.432639650882	1
1	1068	2406.724507506172	2
1	1070	2415.544886743746	3
1	1073	2427.390809023039	4
1	1077	2432.409733102057	5
1	1087	2445.47469831521	5
1	1088	2445.628260002707	4
1	1089	2446.557058570624	3
1	1090	2455.375911206585	2
1	1091	2459.06873105887	1
1	1092	2460.078954348641	0
1	1094	2460.200756621562	0
1	1096	2460.798367668201	1
1	1100	2463.437583920972	2
1	1104	2468.036643076955	3
1	1106	2468.171923063472	4
1	1108	2469.518480614558	5
1	1111	2480.422185283561	5
1	1113	2483.984285460263	5
1	1115	2485.431446660174	6
1	1116	2490.481519039704	6
1	1117	2491.191048835032	5
1	1118	2493.177252712125	4
1	1122	2495.212845808239	4
2	163	354.391711756925	19
2	170	373.3503823188	20
2	191	435.246067625146	21
2	203	475.573483370378	22
2	211	497.389959668988	23
2	218	515.637787819003	24
2	225	543.349760304772	25
2	230	552.315110413448	26
2	234	561.314179017221	27
2	237	571.639344725412	28
2	240	577.266129880566	29
2	243	585.631333342443	30
2	254	627.957214401887	31
2	261	638.45058921521	32
2	262	639.92975504414	33
2	263	646.332374315243	34
2	292	708.219846073877	35
2	295	716.822894196326	36
2	298	725.667719156309	37
2	318	763.09561225445	38
2	324	768.842885175314	39
2	342	802.750842834259	40
2	343	804.068775740687	41
2	372	837.062481398205	42
2	373	840.858612957655	43
2	378	842.858311965784	44
2	379	844.740996750382	45
2	417	945.22841368201	46
2	425	960.136077027266	47
2	449	1007.589359165426	48
2	454	1011.457793862984	49
2	463	1027.727053434085	50
2	466	1035.772440049185	51
2	481	1059.974762695936	52
2	484	1061.507260652125	53
2	485	1061.948672731049	54
2	489	1082.512032779503	55
2	511	1122.893805630146	56
2	531	1161.228495530366	57
2	541	1180.398190526266	58
2	550	1207.570826613536	59
2	551	1209.70196817525	60
2	558	1223.549691517047	61
2	574	1258.240649607711	62
2	583	1270.059980480456	63
2	586	1278.74738638924	64
2	587	1281.033555903918	65
2	594	1288.807760900384	66
2	597	1290.996376617985	67
2	602	1296.303719627777	68
2	603	1299.325790761795	69
2	604	1300.46486819118	70
2	605	1300.490947235072	71
2	626	1360.38753291373	72
2	631	1364.781030750836	73
2	632	1367.509423650636	74
2	633	1367.845264774261	75
2	640	1376.283262678593	76
2	641	1377.058988604236	77
2	650	1393.096768103594	78
2	660	1412.768386475035	79
2	684	1506.068517444296	80
2	687	1522.672757721988	81
2	701	1546.735174852496	82
2	720	1587.182045199989	83
2	725	1593.797745554304	84
2	745	1638.233175435676	85
2	750	1658.287303528128	86
2	753	1666.517193919319	87
2	758	1680.510572095164	88
2	763	1697.020724362848	89
2	764	1697.665889542559	90
2	778	1729.371212872766	91
2	779	1730.534215877483	92
2	787	1745.448535815741	93
2	792	1750.20089761543	94
2	811	1803.078812905033	95
2	819	1809.414289028616	96
2	833	1829.3482858675	97
2	843	1848.73030499005	98
2	862	1889.653263319245	99
2	887	1951.049297174959	100
2	896	2009.138929288435	101
2	908	2060.58168369316	102
2	912	2074.643250377017	103
2	921	2095.7437916841	104
2	946	2135.04066794525	105
2	947	2138.14186836987	106
2	948	2144.058865926746	107
2	954	2148.748870567613	108
2	970	2171.992837925072	109
2	978	2192.986718795175	110
2	989	2205.57325070647	111
2	1009	2248.208433024232	112
2	1014	2257.072154743253	113
2	1041	2355.352239865508	114
2	1050	2370.050757594746	115
2	1053	2386.92654793294	116
2	1071	2424.495546348939	117
2	1074	2430.837684900266	118
2	1075	2431.393094743397	119
2	1084	2439.184935965827	120
2	1085	2442.60339663674	121
2	1086	2444.336967730937	122
2	1109	2478.958627539364	123
2	1110	2479.099783212269	124
3	163	354.391711756925	0
3	167	370.280462470171	0
3	170	373.3503823188	0
3	188	431.695952669617	0
3	191	435.246067625146	0
3	200	474.147170758762	0
3	203	475.573483370378	0
3	208	481.480691986513	0
3	211	497.389959668988	0
3	215	510.24761767968	0
3	218	515.637787819003	0
3	224	539.94106415391	0
3	225	543.349760304772	0
3	229	550.161117734889	0
3	230	552.315110413448	0
3	233	557.673753371508	0
3	234	561.314179017221	0
3	236	567.956109043973	0
3	237	571.639344725412	0
3	239	575.15768250753	0
3	240	577.266129880566	0
3	242	580.804250949928	0
3	243	585.631333342443	0
3	245	610.465880879532	0
3	247	612.633669047796	1
3	249	621.078268320571	2
3	254	627.957214401887	2
3	260	631.86060202898	2
3	261	638.45058921521	2
3	262	639.92975504414	1
3	263	646.332374315243	0
3	287	705.638349697495	0
3	289	706.665987554936	1
3	291	707.236119425818	2
3	292	708.219846073877	2
3	295	716.822894196326	1
3	298	725.667719156309	0
3	315	751.530606146162	0
3	318	763.09561225445	0
3	323	766.408258009834	0
3	324	768.842885175314	0
3	327	771.611960097243	0
3	337	795.70823994459	1
3	342	802.750842834259	1
3	343	804.068775740687	0
3	365	828.587694700615	0
3	371	835.695198389493	1
3	372	837.062481398205	1
3	373	840.858612957655	0
3	375	841.24604760731	0
3	377	842.50405940262	1
3	378	842.858311965784	1
3	379	844.740996750382	0
3	416	940.112090574546	0
3	417	945.22841368201	0
3	424	959.878403606532	0
3	425	960.136077027266	0
3	446	995.112056211267	0
3	449	1007.589359165426	0
3	453	1009.65256758039	0
3	454	1011.457793862984	0
3	460	1021.842623488271	0
3	462	1022.186221008682	1
3	463	1027.727053434085	1
3	466	1035.772440049185	0
3	478	1054.979966281205	0
3	480	1058.081305622748	1
3	481	1059.974762695936	1
3	483	1061.030308005097	1
3	484	1061.507260652125	1
3	485	1061.948672731049	0
3	488	1081.310136359704	0
3	489	1082.512032779503	0
3	510	1121.105252247653	0
3	511	1122.893805630146	0
3	530	1158.332650760421	0
3	531	1161.228495530366	0
3	538	1174.615342786981	0
3	541	1180.398190526266	0
3	545	1185.093400042341	0
3	547	1195.169701464507	1
3	550	1207.570826613536	1
3	551	1209.70196817525	0
3	557	1221.399061453619	0
3	558	1223.549691517047	0
3	563	1238.355828248703	0
3	565	1242.986426439704	1
3	569	1252.324057016316	2
3	571	1252.81041227046	3
3	574	1258.240649607711	3
3	576	1262.62134059803	3
3	580	1265.720375963125	4
3	583	1270.059980480456	4
3	585	1274.056234699699	4
3	586	1278.74738638924	4
3	587	1281.033555903918	3
3	591	1287.083915815885	3
3	594	1288.807760900384	3
3	596	1290.607169038882	3
3	597	1290.996376617985	3
3	601	1295.126534913334	3
3	602	1296.303719627777	3
3	603	1299.325790761795	2
3	604	1300.46486819118	1
3	605	1300.490947235072	0
3	619	1338.251262635238	0
3	621	1344.542083468712	1
3	623	1356.591721693122	2
3	625	1356.936211215667	3
3	626	1360.38753291373	3
3	628	1362.588580326634	3
3	631	1364.781030750836	3
3	632	1367.509423650636	2
3	633	1367.845264774261	1
3	635	1368.062489851398	1
3	637	1369.039045075951	2
3	640	1376.283262678593	2
3	641	1377.058988604236	1
3	650	1393.096768103594	0
3	659	1410.890176308349	0
3	660	1412.768386475035	0
3	683	1503.835474818698	0
3	684	1506.068517444296	0
3	686	1510.056245344328	0
3	687	1522.672757721988	0
3	694	1533.178873992729	0
3	701	1546.735174852496	0
3	719	1585.545449449645	0
3	720	1587.182045199989	0
3	724	1589.129463026233	0
3	725	1593.797745554304	0
3	744	1636.874992284231	0
3	745	1638.233175435676	0
3	749	1656.129627720702	0
3	750	1658.287303528128	0
3	752	1663.277407136755	0
3	753	1666.517193919319	0
3	757	1680.310452974527	0
3	758	1680.510572095164	0
3	760	1691.970041177819	0
3	762	1696.58688266278	1
3	763	1697.020724362848	1
3	764	1697.665889542559	0
3	775	1719.818776411279	0
3	777	1727.169572722012	1
3	778	1729.371212872766	1
3	779	1730.534215877483	0
3	786	1742.98295227048	0
3	787	1745.448535815741	0
3	791	1747.946618758475	0
3	792	1750.20089761543	0
3	806	1794.976383704355	0
3	811	1803.078812905033	0
3	818	1807.995699510076	0
3	819	1809.414289028616	0
3	830	1827.469922869166	0
3	833	1829.3482858675	0
3	838	1835.994284715025	0
3	843	1848.73030499005	0
3	861	1889.088743691529	0
3	862	1889.653263319245	0
3	886	1946.729588832254	0
3	887	1951.049297174959	0
3	895	2004.62429793366	0
3	896	2009.138929288435	0
3	905	2054.459779923515	0
3	908	2060.58168369316	0
3	911	2074.413488317576	0
3	912	2074.643250377017	0
3	916	2090.254935787689	0
3	921	2095.7437916841	0
3	937	2118.376201383707	0
3	943	2123.529966614318	1
3	945	2128.125391186792	2
3	946	2135.04066794525	2
3	947	2138.14186836987	1
3	948	2144.058865926746	0
3	951	2147.792189658182	0
3	954	2148.748870567613	0
3	963	2160.434193921626	0
3	970	2171.992837925072	0
3	977	2192.585280357836	0
3	978	2192.986718795175	0
3	988	2205.482816027784	0
3	989	2205.57325070647	0
3	1004	2242.158972086936	0
3	1009	2248.208433024232	0
3	1013	2252.357253508174	0
3	1014	2257.072154743253	0
3	1040	2349.783810657802	0
3	1041	2355.352239865508	0
3	1049	2369.802429443491	0
3	1050	2370.050757594746	0
3	1052	2381.692791746694	0
3	1053	2386.92654793294	0
3	1058	2395.775553395185	0
3	1064	2397.022295827693	1
3	1066	2397.996189404248	2
3	1071	2424.495546348939	2
3	1074	2430.837684900266	1
3	1075	2431.393094743397	0
3	1079	2433.487883053021	0
3	1081	2433.832617070752	1
3	1083	2437.057922805673	2
3	1084	2439.184935965827	2
3	1085	2442.60339663674	1
3	1086	2444.336967730937	0
3	1098	2461.518468346402	0
3	1102	2465.729271570205	1
3	1109	2478.958627539364	1
3	1110	2479.099783212269	0
3	1120	2493.276094709187	0
4	163	354.391711756925	18.392664975987
4	170	373.3503823188	3.069919848629
4	191	435.246067625146	3.550114955529
4	203	475.573483370378	1.426312611616
4	211	497.389959668988	15.909267682475
4	218	515.637787819003	5.390170139323
4	225	543.349760304772	3.408696150862
4	230	552.315110413448	2.153992678559
4	234	561.314179017221	3.640425645713
4	237	571.639344725412	3.683235681439
4	240	577.266129880566	2.108447373036
4	243	585.631333342443	4.827082392515
4	254	627.957214401887	17.491333522355
4	261	638.45058921521	25.816920167414
4	262	639.92975504414	18.851486723569
4	263	646.332374315243	14.471772286263
4	292	708.219846073877	2.581496376382
4	295	716.822894196326	10.15690664139
4	298	725.667719156309	18.431599730491
4	318	763.09561225445	11.565006108288
4	324	768.842885175314	2.43462716548
4	342	802.750842834259	31.138882737016
4	343	804.068775740687	8.360535796097
4	372	837.062481398205	8.47478669759
4	373	840.858612957655	5.163414568162
4	378	842.858311965784	1.612264358474
4	379	844.740996750382	2.236937347762
4	417	945.22841368201	5.116323107464
4	425	960.136077027266	0.257673420734
4	449	1007.589359165426	12.477302954159
4	454	1011.457793862984	1.805226282594
4	463	1027.727053434085	5.884429945814
4	466	1035.772440049185	13.586219040503
4	481	1059.974762695936	4.994796414731
4	484	1061.507260652125	3.425955029377
4	485	1061.948672731049	0.918364725952
4	489	1082.512032779503	1.201896419799
4	511	1122.893805630146	1.788553382493
4	531	1161.228495530366	2.895844769945
4	541	1180.398190526266	5.782847739285
4	550	1207.570826613536	22.477426571195
4	551	1209.70196817525	14.532266710743
4	558	1223.549691517047	2.150630063428
4	574	1258.240649607711	19.884821359008
4	583	1270.059980480456	27.073554040752
4	586	1278.74738638924	26.423329372924
4	587	1281.033555903918	28.223143633458
4	594	1288.807760900384	26.186420302354
4	597	1290.996376617985	25.27600065486
4	602	1296.303719627777	22.247484928078
4	603	1299.325790761795	12.24187494591
4	604	1300.46486819118	9.857699152298
4	605	1300.490947235072	5.364412321738
4	626	1360.38753291373	22.136270278492
4	631	1364.781030750836	20.238947282124
4	632	1367.509423650636	10.917701957514
4	633	1367.845264774261	10.909053558594
4	640	1376.283262678593	13.694682351959
4	641	1377.058988604236	8.996498752838
4	650	1393.096768103594	24.057723027643
4	660	1412.768386475035	1.878210166686
4	684	1506.068517444296	2.233042625598
4	687	1522.672757721988	12.61651237766
4	701	1546.735174852496	13.556300859767
4	720	1587.182045199989	1.636595750344
4	725	1593.797745554304	4.668282528071
4	745	1638.233175435676	1.358183151445
4	750	1658.287303528128	2.157675807426
4	753	1666.517193919319	3.239786782564
4	758	1680.510572095164	0.200119120637
4	763	1697.020724362848	5.050683185029
4	764	1697.665889542559	1.079006879779
4	778	1729.371212872766	9.552436461487
4	779	1730.534215877483	3.364643155471
4	787	1745.448535815741	2.465583545261
4	792	1750.20089761543	2.254278856955
4	811	1803.078812905033	8.102429200678
4	819	1809.414289028616	1.41858951854
4	833	1829.3482858675	1.878362998334
4	843	1848.73030499005	12.736020275025
4	862	1889.653263319245	0.564519627716
4	887	1951.049297174959	4.319708342705
4	896	2009.138929288435	4.514631354775
4	908	2060.58168369316	6.121903769645
4	912	2074.643250377017	0.229762059441
4	921	2095.7437916841	5.488855896411
4	946	2135.04066794525	16.664466561543
4	947	2138.14186836987	14.611901755552
4	948	2144.058865926746	15.933474739954
4	954	2148.748870567613	0.956680909431
4	970	2171.992837925072	11.558644003446
4	978	2192.986718795175	0.401438437339
4	989	2205.57325070647	0.090434678686
4	1009	2248.208433024232	6.049460937296
4	1014	2257.072154743253	4.714901235079
4	1041	2355.352239865508	5.568429207706
4	1050	2370.050757594746	0.248328151255
4	1053	2386.92654793294	5.233756186246
4	1071	2424.495546348939	28.719992953754
4	1074	2430.837684900266	33.815389072573
4	1075	2431.393094743397	33.396905339149
4	1084	2439.184935965827	5.697052912806
4	1085	2442.60339663674	8.770779565988
4	1086	2444.336967730937	7.279044925264
4	1109	2478.958627539364	17.440159192962
4	1110	2479.099783212269	13.370511642064
5	163	354.391711756925	8.987965283391
5	164	354.745298861905	3.335895904328
5	170	373.3503823188	2.572909202205
5	173	378.488229332204	0
5	176	391.078058889789	0
5	179	397.97888353961	0
5	182	413.278209427464	0
5	185	423.457998035782	8.963442682657
5	191	435.246067625146	0.339122414024
5	194	437.0912865596	0
5	197	446.170150118243	7.203974880256
5	203	475.573483370378	1.312817001258
5	206	480.065795011029	0
5	211	497.389959668988	15.909267682475
5	212	498.573846895132	1.34276053239
5	218	515.637787819003	3.561002768523
5	221	523.748215032551	4.802657918538
5	227	544.217495540561	0
5	230	552.315110413448	2.153992678559
5	263	646.332374315243	23.074224407228
5	264	647.284781948284	19.679561887052
5	269	654.826250937798	26.086912414344
5	270	659.957356343142	29.950468660682
5	271	660.442859357592	12.734022641824
5	276	670.496040685551	18.111535459888
5	283	686.488878893726	22.21536062485
5	298	725.667719156309	59.379565034927
5	303	734.956010509194	60.60866223823
5	304	736.122763224902	61.697207815916
5	305	737.707804079696	61.808547903323
5	306	738.322216231215	37.562153307397
5	307	741.567917582311	35.929567884816
5	308	743.55615849172	32.690568994127
5	309	743.953975794118	19.125366985112
5	310	747.200100125911	16.490977181583
5	313	749.593914719693	17.745643676066
5	318	763.09561225445	13.887562171484
5	319	764.052339421237	12.521733275075
5	324	768.842885175314	8.35046423136
5	325	769.965173762652	4.216881483468
5	343	804.068775740687	37.660517730853
5	344	805.095265581857	33.483305484614
5	345	806.611453657032	33.121067714281
5	346	808.962934901553	28.750578709432
5	347	809.741729845035	22.086769656422
5	350	811.374598265616	23.051110241334
5	357	817.743522032474	19.887955178354
5	358	819.707070762367	21.293289576454
5	363	828.064612278081	16.770368934359
5	373	840.858612957655	27.737890831736
5	379	844.740996750382	30.914890490441
5	382	854.586029439895	37.903262263675
5	383	866.393165076685	43.415681188227
5	388	881.170581809985	56.428888162828
5	389	892.800047280764	64.212352580149
5	390	896.370818705692	65.439423437516
5	391	899.403386821175	64.745317674413
5	392	899.422272051859	58.176224444549
5	393	899.827123786359	47.821567977955
5	396	902.961220438017	33.257566408752
5	399	908.103505742451	33.798875444561
5	404	921.197064861439	21.057436593659
5	409	934.193608018733	29.30417321249
5	412	934.875873150084	16.730041940967
5	413	935.550515949653	16.711848482261
5	414	936.521249007834	6.089065779055
5	417	945.22841368201	11.211407126668
5	418	948.381947550468	14.082810092198
5	419	949.001837071287	8.889746496741
5	422	957.841677953716	3.018880117176
5	425	960.136077027266	0.257673420734
5	432	972.747531155591	11.120823862124
5	439	981.651942036799	13.371791965708
5	440	985.975295397267	14.181573219486
5	449	1007.589359165426	33.437936886905
5	450	1007.596727755539	30.650736341839
5	451	1009.587957130566	31.193022783868
5	454	1011.457793862984	25.036456867633
5	466	1035.772440049185	48.44587144037
5	467	1038.513912528665	43.401856317398
5	468	1038.898018663957	37.861841866133
5	469	1041.927317308888	32.274749728498
5	470	1042.073853935233	25.325707875396
5	473	1048.449087912074	27.938869805332
5	476	1053.193231228183	31.350607739912
5	485	1061.948672731049	27.949087611833
5	486	1069.978287542407	26.221724089218
5	489	1082.512032779503	30.891117042604
5	490	1087.660111638994	32.680145357789
5	493	1089.001743699827	7.691607340123
5	494	1089.274141172805	0.865767060354
5	497	1094.960872854303	4.324800911893
5	500	1095.507883561552	0
5	503	1108.151485015426	0
5	506	1119.147686660366	0
5	511	1122.893805630146	3.447004173023
5	514	1124.043164635032	2.937912387379
5	517	1127.417125346712	3.991342381969
5	518	1127.481819486213	0.96425129646
5	521	1133.549425494738	2.496397484032
5	524	1151.019326435675	0
5	527	1152.885612349416	0
5	533	1169.793818019991	0
5	536	1172.430706127412	0
5	541	1180.398190526266	5.782847739285
5	551	1209.70196817525	32.916546187434
5	552	1209.877622600489	26.276972227501
5	553	1210.864816943006	25.771416900665
5	554	1211.535893488918	12.905726788897
5	560	1232.03765163287	0
5	605	1300.490947235072	50.964506963208
5	606	1301.687077791614	47.377447237017
5	607	1313.376521041433	50.070551960668
5	608	1316.813334461389	49.348944325014
5	609	1318.47797491767	36.178668587802
5	612	1323.355046747829	35.65691315693
5	615	1330.20764169808	36.605693373792
5	616	1331.440517787294	8.226578366314
5	617	1332.581560654469	3.369158635995
5	650	1393.096768103594	54.845505468356
5	653	1396.212998678126	32.602954566429
5	654	1398.949171843767	29.002958294136
5	655	1399.898687884109	17.437932568488
5	656	1402.370550415878	17.868935699109
5	657	1409.764817061364	22.556854827734
5	660	1412.768386475035	25.442914480283
5	661	1413.620024801752	19.897776233675
5	662	1415.409063808176	4.518887499827
5	667	1443.98389841427	18.80880092298
5	668	1450.954723138723	25.758256081499
5	671	1453.829994229033	0
5	674	1490.750988451092	0
5	677	1492.375247604659	1.135050552024
5	680	1496.543116832561	0
5	689	1525.251530865329	0
5	692	1527.022555481036	0.558081706147
5	701	1546.735174852496	13.556300859767
5	704	1562.353416986165	28.202653241155
5	705	1564.172682960354	25.352317840551
5	710	1568.871681405247	27.974656447799
5	711	1573.059930962436	11.105979278456
5	714	1580.43621016335	15.202648108582
5	715	1583.163349748635	16.534795614795
5	716	1583.36873079875	8.181503185753
5	722	1588.772610919627	0
5	725	1593.797745554304	4.668282528071
5	728	1595.274226142937	0
5	731	1601.208194458292	0
5	734	1622.917714708643	0
5	737	1623.024578515748	0
5	740	1625.660580289895	0
5	745	1638.233175435676	4.959411119521
5	746	1638.464670840405	1.589678556174
5	755	1678.424632632454	0
5	758	1680.510572095164	0.200119120637
5	764	1697.665889542559	5.69584836474
5	767	1697.969204775388	0
5	770	1707.218097800071	0
5	773	1712.437322052799	0
5	779	1730.534215877483	10.715439466204
5	782	1735.075717543005	0.884428124139
5	787	1745.448535815741	4.503941096271
5	792	1750.20089761543	7.21794534495
5	795	1760.404728546581	13.437358235286
5	796	1765.208869339016	17.262250580541
5	797	1765.555284901153	8.537337634788
5	800	1768.826021958188	0
5	803	1774.21150120169	3.08005828848
5	811	1803.078812905033	2.779356508116
5	814	1805.833412222915	3.674830953158
5	819	1809.414289028616	3.790530118369
5	820	1809.971476821869	3.260016461171
5	821	1810.482988284101	2.487288774025
5	824	1817.677819888028	0.544648352729
5	827	1825.812863346784	0
5	833	1829.3482858675	1.484011857682
5	836	1833.258109085254	0
5	843	1848.73030499005	12.736020275025
5	846	1849.943182759941	11.826443957889
5	853	1875.465781900268	26.766690026421
5	854	1878.669375470715	29.72641598184
5	857	1885.537737303111	30.130108920157
5	858	1885.714524157922	22.199334425637
5	859	1887.241010013019	20.070866282399
5	862	1889.653263319245	6.622416684205
5	863	1892.70032208559	3.611578394061
5	866	1918.146279260694	0
5	869	1924.655666632118	0
5	874	1928.960492459551	3.45504175653
5	881	1935.72202702998	9.892051690885
5	882	1936.939134553398	1.71258918951
5	883	1943.475046698499	7.886255975629
5	884	1944.937370332707	9.233773930867
5	887	1951.049297174959	4.319708342705
5	890	1977.715694456812	0
5	893	1999.230398836984	0
5	896	2009.138929288435	4.514631354775
5	899	2011.407925776068	0
5	902	2034.806196267955	0
5	908	2060.58168369316	5.026186155786
5	914	2089.775272916261	0
5	921	2095.7437916841	5.488855896411
5	922	2099.073045955064	8.184274086214
5	925	2103.597075537723	8.486978595768
5	948	2144.058865926746	41.619216750497
5	949	2147.45768030883	41.435803841896
5	954	2148.748870567613	39.45708440296
5	955	2149.011615255816	34.616155483544
5	958	2157.811515041008	42.642610157476
5	959	2160.233348398984	43.965525127625
5	970	2171.992837925072	53.616636541365
5	971	2175.465635573979	52.563862705452
5	972	2176.494950855434	53.43280236251
5	973	2184.548675447426	36.756485789244
5	978	2192.986718795175	44.52873339286
5	981	2196.291987961239	44.463774621544
5	984	2197.758201584233	37.39109120402
5	985	2197.895270923893	37.461077002267
5	986	2198.384997596092	36.282757006377
5	989	2205.57325070647	43.385442117808
5	994	2211.468526373712	45.380169971058
5	995	2214.068867824568	24.53719174453
5	996	2217.317059615723	24.731779257887
5	997	2217.727951255381	22.733117179694
5	1000	2222.702424244811	25.007812790276
5	1001	2230.651537452959	25.168721425175
5	1002	2238.433543958067	28.948221341847
5	1009	2248.208433024232	36.896811147706
5	1014	2257.072154743253	35.851488775082
5	1017	2268.412748743476	26.25377665654
5	1018	2269.70776545048	26.228837121744
5	1023	2280.981448417641	34.781574452684
5	1024	2281.460107794216	31.063047159462
5	1025	2281.99307952369	29.635826015516
5	1028	2286.96832753093	26.676760410178
5	1029	2288.217228817075	15.088849125744
5	1032	2298.913453010777	19.971988039657
5	1033	2302.322570055746	18.804380259037
5	1034	2304.608056437416	12.553409690726
5	1037	2322.682949916442	0
5	1043	2365.592731081332	0
5	1046	2367.633303705858	0
5	1055	2394.973432391493	0
5	1075	2431.393094743397	35.159768978361
5	1086	2444.336967730937	47.904328080055
5	1087	2445.47469831521	38.750190809038
5	1088	2445.628260002707	30.083373258961
5	1089	2446.557058570624	19.166249547585
5	1090	2455.375911206585	22.966178104528
5	1091	2459.06873105887	25.580848005849
5	1094	2460.200756621562	0
5	1110	2479.099783212269	18.301415544068
5	1111	2480.422185283561	18.903716937159
5	1116	2490.481519039704	27.043935118732
5	1117	2491.191048835032	23.154405758077
5	1118	2493.177252712125	25.005329648653
6	164	354.745298861905	35
6	165	355.621405360392	36
6	171	378.21855177439	37
6	174	379.0478053305	38
6	177	395.672258410588	39
6	180	398.28111222174	40
6	185	423.457998035782	41
6	186	427.136239674636	42
6	192	435.51647866194	43
6	197	446.170150118243	44
6	198	450.379135005729	45
6	204	477.476402219787	46
6	212	498.573846895132	47
6	213	502.06611523952	48
6	221	523.748215032551	49
6	222	524.002017061228	50
6	231	554.065734429809	51
6	264	647.284781948284	52
6	269	654.826250937798	53
6	270	659.957356343142	54
6	271	660.442859357592	55
6	276	670.496040685551	56
6	283	686.488878893726	57
6	303	734.956010509194	58
6	304	736.122763224902	59
6	305	737.707804079696	60
6	306	738.322216231215	61
6	307	741.567917582311	62
6	308	743.55615849172	63
6	309	743.953975794118	64
6	310	747.200100125911	65
6	313	749.593914719693	66
6	319	764.052339421237	67
6	325	769.965173762652	68
6	344	805.095265581857	69
6	345	806.611453657032	70
6	346	808.962934901553	71
6	347	809.741729845035	72
6	350	811.374598265616	73
6	357	817.743522032474	74
6	358	819.707070762367	75
6	363	828.064612278081	76
6	382	854.586029439895	77
6	383	866.393165076685	78
6	388	881.170581809985	79
6	389	892.800047280764	80
6	390	896.370818705692	81
6	391	899.403386821175	82
6	392	899.422272051859	83
6	393	899.827123786359	84
6	396	902.961220438017	85
6	399	908.103505742451	86
6	404	921.197064861439	87
6	409	934.193608018733	88
6	412	934.875873150084	89
6	413	935.550515949653	90
6	414	936.521249007834	91
6	418	948.381947550468	92
6	419	949.001837071287	93
6	422	957.841677953716	94
6	432	972.747531155591	95
6	439	981.651942036799	96
6	440	985.975295397267	97
6	450	1007.596727755539	98
6	451	1009.587957130566	99
6	467	1038.513912528665	100
6	468	1038.898018663957	101
6	469	1041.927317308888	102
6	470	1042.073853935233	103
6	473	1048.449087912074	104
6	476	1053.193231228183	105
6	486	1069.978287542407	106
6	490	1087.660111638994	107
6	493	1089.001743699827	108
6	494	1089.274141172805	109
6	497	1094.960872854303	110
6	498	1095.44652396854	111
6	501	1107.388426089847	112
6	504	1111.188004135695	113
6	514	1124.043164635032	114
6	517	1127.417125346712	115
6	518	1127.481819486213	116
6	521	1133.549425494738	117
6	522	1146.199216354636	118
6	525	1152.209935154801	119
6	528	1153.80597788305	120
6	534	1169.948103675573	121
6	552	1209.877622600489	122
6	553	1210.864816943006	123
6	554	1211.535893488918	124
6	555	1212.981207557815	125
6	561	1234.951572701345	126
6	606	1301.687077791614	127
6	607	1313.376521041433	128
6	608	1316.813334461389	129
6	609	1318.47797491767	130
6	612	1323.355046747829	131
6	615	1330.20764169808	132
6	616	1331.440517787294	133
6	617	1332.581560654469	134
6	653	1396.212998678126	135
6	654	1398.949171843767	136
6	655	1399.898687884109	137
6	656	1402.370550415878	138
6	657	1409.764817061364	139
6	661	1413.620024801752	140
6	662	1415.409063808176	141
6	667	1443.98389841427	142
6	668	1450.954723138723	143
6	669	1452.17064507393	144
6	672	1461.579759006061	145
6	677	1492.375247604659	146
6	678	1495.271359882116	147
6	681	1500.550404996234	148
6	692	1527.022555481036	149
6	704	1562.353416986165	150
6	705	1564.172682960354	151
6	710	1568.871681405247	152
6	711	1573.059930962436	153
6	714	1580.43621016335	154
6	715	1583.163349748635	155
6	716	1583.36873079875	156
6	717	1583.476450745867	157
6	726	1594.337077632272	158
6	729	1595.332608893135	159
6	732	1610.852829810985	160
6	735	1622.99474611383	161
6	738	1623.668900735656	162
6	746	1638.464670840405	163
6	747	1639.79200683604	164
6	765	1697.85683527399	165
6	768	1700.926736682028	166
6	771	1707.357530495226	167
6	782	1735.075717543005	168
6	795	1760.404728546581	169
6	796	1765.208869339016	170
6	797	1765.555284901153	171
6	798	1765.56106850425	172
6	803	1774.21150120169	173
6	804	1776.508318353131	174
6	814	1805.833412222915	175
6	820	1809.971476821869	176
6	821	1810.482988284101	177
6	824	1817.677819888028	178
6	825	1822.045686841596	179
6	828	1826.288400501512	180
6	834	1830.33984057032	181
6	846	1849.943182759941	182
6	853	1875.465781900268	183
6	854	1878.669375470715	184
6	857	1885.537737303111	185
6	858	1885.714524157922	186
6	859	1887.241010013019	187
6	863	1892.70032208559	188
6	864	1898.88274278379	189
6	867	1920.481916574888	190
6	874	1928.960492459551	191
6	881	1935.72202702998	192
6	882	1936.939134553398	193
6	883	1943.475046698499	194
6	884	1944.937370332707	195
6	888	1956.688089721793	196
6	891	1982.378485877539	197
6	897	2009.657984444918	198
6	900	2011.516563584932	199
6	903	2034.873939068185	200
6	909	2061.999868086871	201
6	922	2099.073045955064	202
6	925	2103.597075537723	203
6	949	2147.45768030883	204
6	955	2149.011615255816	205
6	958	2157.811515041008	206
6	959	2160.233348398984	207
6	971	2175.465635573979	208
6	972	2176.494950855434	209
6	973	2184.548675447426	210
6	981	2196.291987961239	211
6	984	2197.758201584233	212
6	985	2197.895270923893	213
6	986	2198.384997596092	214
6	994	2211.468526373712	215
6	995	2214.068867824568	216
6	996	2217.317059615723	217
6	997	2217.727951255381	218
6	1000	2222.702424244811	219
6	1001	2230.651537452959	220
6	1002	2238.433543958067	221
6	1017	2268.412748743476	222
6	1018	2269.70776545048	223
6	1023	2280.981448417641	224
6	1024	2281.460107794216	225
6	1025	2281.99307952369	226
6	1028	2286.96832753093	227
6	1029	2288.217228817075	228
6	1032	2298.913453010777	229
6	1033	2302.322570055746	230
6	1034	2304.608056437416	231
6	1035	2306.061415145578	232
6	1038	2327.164880012071	233
6	1044	2366.619925412216	234
6	1047	2368.398127830235	235
6	1056	2395.115081198251	236
6	1087	2445.47469831521	237
6	1088	2445.628260002707	238
6	1089	2446.557058570624	239
6	1090	2455.375911206585	240
6	1091	2459.06873105887	241
6	1092	2460.078954348641	242
6	1111	2480.422185283561	243
6	1116	2490.481519039704	244
6	1117	2491.191048835032	245
6	1118	2493.177252712125	246
7	164	354.745298861905	9.341552388371
7	165	355.621405360392	4.212002402815
7	171	378.21855177439	7.441078657795
7	174	379.0478053305	0.559575998296
7	177	395.672258410588	4.594199520799
7	180	398.28111222174	0.30222868213
7	185	423.457998035782	10.179788608318
7	186	427.136239674636	12.641684321511
7	192	435.51647866194	0.609533450818
7	197	446.170150118243	9.078863558643
7	198	450.379135005729	11.412959767742
7	204	477.476402219787	3.215735850667
7	212	498.573846895132	17.093154908619
7	213	502.06611523952	4.835028876778
7	221	523.748215032551	11.671429982071
7	222	524.002017061228	5.056459947215
7	231	554.065734429809	3.90461669492
7	264	647.284781948284	24.026632040269
7	269	654.826250937798	27.221030876566
7	270	659.957356343142	31.218017819688
7	271	660.442859357592	30.435971675132
7	276	670.496040685551	22.787203969783
7	283	686.488878893726	34.104373668063
7	303	734.956010509194	68.667856387812
7	304	736.122763224902	61.775414953938
7	305	737.707804079696	63.28224867071
7	306	738.322216231215	62.422960054842
7	307	741.567917582311	40.807854658493
7	308	743.55615849172	37.917808794225
7	309	743.953975794118	33.088386296525
7	310	747.200100125911	22.371491316905
7	313	749.593914719693	18.884791775365
7	319	764.052339421237	14.844289338271
7	325	769.965173762652	9.472752818698
7	344	805.095265581857	38.687007572023
7	345	806.611453657032	34.999493559789
7	346	808.962934901553	35.472548958802
7	347	809.741729845035	29.529373652914
7	350	811.374598265616	23.719638077003
7	357	817.743522032474	29.420034008192
7	358	819.707070762367	21.851503908247
7	363	828.064612278081	29.650831092168
7	382	854.586029439895	40.759923179954
7	383	866.393165076685	49.710397900465
7	388	881.170581809985	58.193097921527
7	389	892.800047280764	68.058353633607
7	390	896.370818705692	67.783124005077
7	391	899.403386821175	68.471991552999
7	392	899.422272051859	64.764202905097
7	393	899.827123786359	58.581076179049
7	396	902.961220438017	50.955664629613
7	399	908.103505742451	38.399851713186
7	404	921.197064861439	46.892434563549
7	409	934.193608018733	34.053979750953
7	412	934.875873150084	29.986438343841
7	413	935.550515949653	17.404684740536
7	414	936.521249007834	17.682581540442
7	418	948.381947550468	14.364940995126
7	419	949.001837071287	14.702699613017
7	422	957.841677953716	17.72958737917
7	432	972.747531155591	12.869127549059
7	439	981.651942036799	20.025234743332
7	440	985.975295397267	17.695145326176
7	450	1007.596727755539	33.445305477018
7	451	1009.587957130566	32.641965716866
7	467	1038.513912528665	51.18734391985
7	468	1038.898018663957	43.78596245269
7	469	1041.927317308888	40.891140511064
7	470	1042.073853935233	32.421286354843
7	473	1048.449087912074	31.700941852237
7	476	1053.193231228183	32.683013121441
7	486	1069.978287542407	35.978702423191
7	490	1087.660111638994	36.039195902095
7	493	1089.001743699827	34.021777418622
7	494	1089.274141172805	7.964004813101
7	497	1094.960872854303	6.552498741852
7	498	1095.44652396854	4.81045202613
7	501	1107.388426089847	11.880542528295
7	504	1111.188004135695	3.036519120269
7	514	1124.043164635032	4.596363177909
7	517	1127.417125346712	6.311873099059
7	518	1127.481819486213	4.05603652147
7	521	1133.549425494738	7.031857304985
7	522	1146.199216354636	15.14618834393
7	525	1152.209935154801	1.190608719126
7	528	1153.80597788305	0.920365533634
7	534	1169.948103675573	0.154285655582
7	552	1209.877622600489	33.092200612673
7	553	1210.864816943006	27.264166570018
7	554	1211.535893488918	26.442493446577
7	555	1212.981207557815	14.351040857794
7	561	1234.951572701345	2.913921068475
7	606	1301.687077791614	52.16063751975
7	607	1313.376521041433	59.066890486836
7	608	1316.813334461389	53.507365380624
7	609	1318.47797491767	51.013584781295
7	612	1323.355046747829	41.055740417961
7	615	1330.20764169808	42.509508107181
7	616	1331.440517787294	37.838569463006
7	617	1332.581560654469	9.367621233489
7	653	1396.212998678126	57.961736042888
7	654	1398.949171843767	35.33912773207
7	655	1399.898687884109	29.952474334478
7	656	1402.370550415878	19.909795100257
7	657	1409.764817061364	25.263202344595
7	661	1413.620024801752	26.294552807
7	662	1415.409063808176	21.686815240099
7	667	1443.98389841427	33.093722105921
7	668	1450.954723138723	25.779625647433
7	669	1452.17064507393	26.974178016706
7	672	1461.579759006061	7.749764777028
7	677	1492.375247604659	1.624259153567
7	678	1495.271359882116	4.031162829481
7	681	1500.550404996234	4.007288163673
7	692	1527.022555481036	1.771024615707
7	704	1562.353416986165	29.174542993436
7	705	1564.172682960354	30.021919215344
7	710	1568.871681405247	30.051316285444
7	711	1573.059930962436	32.162906004988
7	714	1580.43621016335	18.48225847937
7	715	1583.163349748635	17.929787693867
7	716	1583.36873079875	16.74017666491
7	717	1583.476450745867	8.28922313287
7	726	1594.337077632272	5.207614606039
7	729	1595.332608893135	0.058382750198
7	732	1610.852829810985	9.644635352693
7	735	1622.99474611383	0.077031405187
7	738	1623.668900735656	0.644322219908
7	746	1638.464670840405	5.19090652425
7	747	1639.79200683604	2.917014551809
7	765	1697.85683527399	5.886794096171
7	768	1700.926736682028	2.95753190664
7	771	1707.357530495226	0.139432695155
7	782	1735.075717543005	15.256941131726
7	795	1760.404728546581	17.421776276101
7	796	1765.208869339016	18.241499027721
7	797	1765.555284901153	17.608666142678
7	798	1765.56106850425	8.543121237885
7	803	1774.21150120169	5.385479243502
7	804	1776.508318353131	5.376875439921
7	814	1805.833412222915	5.533955825998
7	820	1809.971476821869	4.347717911622
7	821	1810.482988284101	3.771527923403
7	824	1817.677819888028	9.682120377952
7	825	1822.045686841596	4.912515306297
7	828	1826.288400501512	0.475537154728
7	834	1830.33984057032	2.475566560502
7	846	1849.943182759941	13.948898044916
7	853	1875.465781900268	37.349043098216
7	854	1878.669375470715	29.970283596868
7	857	1885.537737303111	36.594777814236
7	858	1885.714524157922	30.306895774968
7	859	1887.241010013019	23.725820280734
7	863	1892.70032208559	9.66947545055
7	864	1898.88274278379	9.793999092261
7	867	1920.481916574888	2.335637314194
7	874	1928.960492459551	4.304825827433
7	881	1935.72202702998	10.216576326959
7	882	1936.939134553398	11.109159214303
7	883	1943.475046698499	8.248501334611
7	884	1944.937370332707	9.348579609837
7	888	1956.688089721793	9.958500889539
7	891	1982.378485877539	4.662791420727
7	897	2009.657984444918	5.033686511258
7	900	2011.516563584932	0.108637808864
7	903	2034.873939068185	0.06774280023
7	909	2061.999868086871	6.444370549497
7	922	2099.073045955064	8.818110167375
7	925	2103.597075537723	12.708303668873
7	949	2147.45768030883	45.018031132581
7	955	2149.011615255816	39.719829091163
7	958	2157.811515041008	43.416055268736
7	959	2160.233348398984	45.064443515452
7	971	2175.465635573979	57.089434190272
7	972	2176.494950855434	53.593177986907
7	973	2184.548675447426	61.486526954502
7	981	2196.291987961239	47.834002558924
7	984	2197.758201584233	45.929988244538
7	985	2197.895270923893	37.52816054368
7	986	2198.384997596092	37.950803674466
7	994	2211.468526373712	49.28071778505
7	995	2214.068867824568	47.980511421914
7	996	2217.317059615723	27.785383535685
7	997	2217.727951255381	25.142670897545
7	1000	2222.702424244811	27.707590169124
7	1001	2230.651537452959	32.956925998424
7	1002	2238.433543958067	32.950727930283
7	1017	2268.412748743476	47.192082775305
7	1018	2269.70776545048	27.548793363544
7	1023	2280.981448417641	37.502520088905
7	1024	2281.460107794216	35.260233829259
7	1025	2281.99307952369	31.596018888936
7	1028	2286.96832753093	34.611074022756
7	1029	2288.217228817075	27.925661696323
7	1032	2298.913453010777	25.785073319446
7	1033	2302.322570055746	23.381105084626
7	1034	2304.608056437416	21.089866640707
7	1035	2306.061415145578	14.006768398888
7	1038	2327.164880012071	4.481930095629
7	1044	2366.619925412216	1.027194330884
7	1047	2368.398127830235	0.764824124377
7	1056	2395.115081198251	0.141648806758
7	1087	2445.47469831521	49.042058664328
7	1088	2445.628260002707	38.903752496535
7	1089	2446.557058570624	31.012171826878
7	1090	2455.375911206585	27.985102183546
7	1091	2459.06873105887	26.658997956813
7	1092	2460.078954348641	26.59107129562
7	1111	2480.422185283561	19.62381761536
7	1116	2490.481519039704	28.963050693302
7	1117	2491.191048835032	27.75346491406
7	1118	2493.177252712125	25.14060963517
8	167	370.280462470171	1
8	188	431.695952669617	1
8	200	474.147170758762	1
8	208	481.480691986513	1
8	215	510.24761767968	1
8	224	539.94106415391	1
8	229	550.161117734889	1
8	233	557.673753371508	1
8	236	567.956109043973	1
8	239	575.15768250753	1
8	242	580.804250949928	1
8	245	610.465880879532	1
8	247	612.633669047796	2
8	249	621.078268320571	3
8	260	631.86060202898	3
8	287	705.638349697495	1
8	289	706.665987554936	2
8	291	707.236119425818	3
8	315	751.530606146162	1
8	323	766.408258009834	1
8	327	771.611960097243	1
8	337	795.70823994459	2
8	365	828.587694700615	1
8	371	835.695198389493	2
8	375	841.24604760731	1
8	377	842.50405940262	2
8	416	940.112090574546	1
8	424	959.878403606532	1
8	446	995.112056211267	1
8	453	1009.65256758039	1
8	460	1021.842623488271	1
8	462	1022.186221008682	2
8	478	1054.979966281205	1
8	480	1058.081305622748	2
8	483	1061.030308005097	2
8	488	1081.310136359704	1
8	510	1121.105252247653	1
8	530	1158.332650760421	1
8	538	1174.615342786981	1
8	545	1185.093400042341	1
8	547	1195.169701464507	2
8	557	1221.399061453619	1
8	563	1238.355828248703	1
8	565	1242.986426439704	2
8	569	1252.324057016316	3
8	571	1252.81041227046	4
8	576	1262.62134059803	4
8	580	1265.720375963125	5
8	585	1274.056234699699	5
8	591	1287.083915815885	4
8	596	1290.607169038882	4
8	601	1295.126534913334	4
8	619	1338.251262635238	1
8	621	1344.542083468712	2
8	623	1356.591721693122	3
8	625	1356.936211215667	4
8	628	1362.588580326634	4
8	635	1368.062489851398	2
8	637	1369.039045075951	3
8	659	1410.890176308349	1
8	683	1503.835474818698	1
8	686	1510.056245344328	1
8	694	1533.178873992729	1
8	719	1585.545449449645	1
8	724	1589.129463026233	1
8	744	1636.874992284231	1
8	749	1656.129627720702	1
8	752	1663.277407136755	1
8	757	1680.310452974527	1
8	760	1691.970041177819	1
8	762	1696.58688266278	2
8	775	1719.818776411279	1
8	777	1727.169572722012	2
8	786	1742.98295227048	1
8	791	1747.946618758475	1
8	806	1794.976383704355	1
8	818	1807.995699510076	1
8	830	1827.469922869166	1
8	838	1835.994284715025	1
8	861	1889.088743691529	1
8	886	1946.729588832254	1
8	895	2004.62429793366	1
8	905	2054.459779923515	1
8	911	2074.413488317576	1
8	916	2090.254935787689	1
8	937	2118.376201383707	1
8	943	2123.529966614318	2
8	945	2128.125391186792	3
8	951	2147.792189658182	1
8	963	2160.434193921626	1
8	977	2192.585280357836	1
8	988	2205.482816027784	1
8	1004	2242.158972086936	1
8	1013	2252.357253508174	1
8	1040	2349.783810657802	1
8	1049	2369.802429443491	1
8	1052	2381.692791746694	1
8	1058	2395.775553395185	1
8	1064	2397.022295827693	2
8	1066	2397.996189404248	3
8	1079	2433.487883053021	1
8	1081	2433.832617070752	2
8	1083	2437.057922805673	3
8	1098	2461.518468346402	1
8	1102	2465.729271570205	2
8	1120	2493.276094709187	1
9	167	370.280462470171	0
9	188	431.695952669617	0
9	200	474.147170758762	0
9	208	481.480691986513	0
9	215	510.24761767968	0
9	224	539.94106415391	0
9	229	550.161117734889	0
9	233	557.673753371508	0
9	236	567.956109043973	0
9	239	575.15768250753	0
9	242	580.804250949928	0
9	245	610.465880879532	0
9	254	627.957214401887	15.323545354091
9	261	638.45058921521	17.372320894639
9	262	639.92975504414	8.06915301516
9	287	705.638349697495	0
9	292	708.219846073877	1.553858518941
9	295	716.822894196326	9.586774770508
9	315	751.530606146162	0
9	323	766.408258009834	0
9	327	771.611960097243	0
9	342	802.750842834259	7.042602889669
9	365	828.587694700615	0
9	372	837.062481398205	1.367283008712
9	375	841.24604760731	0
9	378	842.858311965784	0.354252563164
9	416	940.112090574546	0
9	424	959.878403606532	0
9	446	995.112056211267	0
9	453	1009.65256758039	0
9	460	1021.842623488271	0
9	463	1027.727053434085	5.540832425403
9	478	1054.979966281205	0
9	481	1059.974762695936	1.893457073188
9	484	1061.507260652125	0.476952647028
9	488	1081.310136359704	0
9	510	1121.105252247653	0
9	530	1158.332650760421	0
9	538	1174.615342786981	0
9	545	1185.093400042341	0
9	550	1207.570826613536	12.401125149029
9	557	1221.399061453619	0
9	563	1238.355828248703	0
9	574	1258.240649607711	15.254223168007
9	583	1270.059980480456	17.73592346414
9	586	1278.74738638924	25.93697411878
9	587	1281.033555903918	18.412215305888
9	594	1288.807760900384	23.087384937259
9	597	1290.996376617985	16.940141918286
9	602	1296.303719627777	9.219803811892
9	603	1299.325790761795	8.718621722913
9	604	1300.46486819118	5.338333277846
9	619	1338.251262635238	0
9	626	1360.38753291373	15.845449445018
9	631	1364.781030750836	8.189309057714
9	632	1367.509423650636	10.573212434969
9	633	1367.845264774261	5.256684447627
9	640	1376.283262678593	8.220772827195
9	641	1377.058988604236	8.019943528285
9	659	1410.890176308349	0
9	683	1503.835474818698	0
9	686	1510.056245344328	0
9	694	1533.178873992729	0
9	719	1585.545449449645	0
9	724	1589.129463026233	0
9	744	1636.874992284231	0
9	749	1656.129627720702	0
9	752	1663.277407136755	0
9	757	1680.310452974527	0
9	760	1691.970041177819	0
9	763	1697.020724362848	0.433841700068
9	775	1719.818776411279	0
9	778	1729.371212872766	2.201640150754
9	786	1742.98295227048	0
9	791	1747.946618758475	0
9	806	1794.976383704355	0
9	818	1807.995699510076	0
9	830	1827.469922869166	0
9	838	1835.994284715025	0
9	861	1889.088743691529	0
9	886	1946.729588832254	0
9	895	2004.62429793366	0
9	905	2054.459779923515	0
9	911	2074.413488317576	0
9	916	2090.254935787689	0
9	937	2118.376201383707	0
9	946	2135.04066794525	11.510701330932
9	947	2138.14186836987	10.016477183078
9	951	2147.792189658182	0
9	963	2160.434193921626	0
9	977	2192.585280357836	0
9	988	2205.482816027784	0
9	1004	2242.158972086936	0
9	1013	2252.357253508174	0
9	1040	2349.783810657802	0
9	1049	2369.802429443491	0
9	1052	2381.692791746694	0
9	1058	2395.775553395185	0
9	1071	2424.495546348939	27.473250521246
9	1074	2430.837684900266	32.841495496018
9	1079	2433.487883053021	0
9	1084	2439.184935965827	5.352318895075
9	1085	2442.60339663674	5.545473831067
9	1098	2461.518468346402	0
9	1109	2478.958627539364	13.229355969159
9	1120	2493.276094709187	0
10	208	481.480691986513	15
10	229	550.161117734889	16
10	287	705.638349697495	17
10	315	751.530606146162	18
10	323	766.408258009834	19
10	327	771.611960097243	20
10	365	828.587694700615	21
10	375	841.24604760731	22
10	416	940.112090574546	23
10	424	959.878403606532	24
10	446	995.112056211267	25
10	453	1009.65256758039	26
10	460	1021.842623488271	27
10	478	1054.979966281205	28
10	488	1081.310136359704	29
10	510	1121.105252247653	30
10	538	1174.615342786981	31
10	545	1185.093400042341	32
10	619	1338.251262635238	33
10	659	1410.890176308349	34
10	694	1533.178873992729	35
10	724	1589.129463026233	36
10	744	1636.874992284231	37
10	757	1680.310452974527	38
10	760	1691.970041177819	39
10	775	1719.818776411279	40
10	786	1742.98295227048	41
10	791	1747.946618758475	42
10	818	1807.995699510076	43
10	838	1835.994284715025	44
10	861	1889.088743691529	45
10	886	1946.729588832254	46
10	895	2004.62429793366	47
10	916	2090.254935787689	48
10	937	2118.376201383707	49
10	951	2147.792189658182	50
10	963	2160.434193921626	51
10	977	2192.585280357836	52
10	988	2205.482816027784	53
10	1004	2242.158972086936	54
10	1013	2252.357253508174	55
10	1079	2433.487883053021	56
10	1098	2461.518468346402	57
10	1120	2493.276094709187	58
11	1123	2500	0.0984
12	1123	2500	0.0496

