file 66685 1678524234                                           
version 2
run experiments_medium_game_mode1-1127-20230311-09:43:54-14326
attr configname experiments_medium_game_mode1
attr datetime 20230311-09:43:54
attr experiment experiments_medium_game_mode1
attr inifile omnetpp.ini
attr iterationvars "$0=6.5, $1=6, $2=100"
attr iterationvarsf 6.5,6,100-
attr measurement "$0=6.5, $1=6, $2=100"
attr network Network
attr processid 14326
attr repetition 17
attr replication #17
attr resultdir results
attr runnumber 1127
attr seedset 17
param *.boss.arrival_mean 20
param *.boss.service_mean 6.5
param *.minion.arrival_mean 10
param *.minion.service_mean 6
param *.player.recover_rate_x 100
param **.minion.arrival_distribution 0
param **.minion.service_distribution 0
param **.boss.arrival_distribution 0
param **.boss.service_distribution 0

vector 0 Network.player boss_jobs_number_stat:vector ETV
attr source signal_boss_jobs_number
vector 1 Network.player boss_jobs_queue_number_stat:vector ETV
attr source signal_boss_jobs_queue_number
vector 2 Network.player boss_defeated_stat:vector ETV
attr source signal_boss_defeated
vector 3 Network.player boss_response_time_stat:vector ETV
attr source signal_boss_response_time
vector 4 Network.player boss_waiting_time_stat:vector ETV
attr source signal_boss_waiting_time
vector 5 Network.player minion_jobs_number_stat:vector ETV
attr source signal_minion_jobs_number
vector 6 Network.player minion_jobs_queue_number_stat:vector ETV
attr source signal_minion_jobs_queue_number
vector 7 Network.player minion_waiting_time_stat:vector ETV
attr source signal_minion_waiting_time
vector 8 Network.player minion_recovered_stat:vector ETV
attr source signal_minion_recovered
vector 9 Network.player minion_defeated_stat:vector ETV
attr source signal_minion_defeated
vector 10 Network.player minion_response_time_stat:vector ETV
attr source signal_minion_response_time
vector 11 Network.player minion_throughput:vector ETV
attr source signal_minion_throughput
vector 12 Network.player boss_throughput:vector ETV
attr source signal_boss_throughput
0	2029 3034 153 1154 350.171511211393 2489.726720628059 118 1 5 191 423
1	5063 6143 153 1155 350.171511211393 2492.86212670702 239 0 4 149 323
2	11206 3269 154 1155 350.7890135168 2492.86212670702 121 18 138 9438 883784
3	14475 4718 154 1155 350.7890135168 2492.86212670702 121 0.09016904476 45.028174958468 1197.1324407598 22080.261615394
4	19193 3670 154 1154 350.7890135168 2489.726720628059 120 0 42.926058308339 439.22445912638 7337.5189191353
5	22863 5708 159 1152 361.587814466951 2488.977018924844 219 1 18 1624 16692
6	28571 11178 159 1157 361.587814466951 2499.743281709209 430 0 17 2742 26706
7	39749 10796 174 1157 384.145636243284 2499.743281709209 278 0 136.93371299994 12846.698219409 915287.9444534
8	50545 1765 178 1154 385.995055935859 2489.726720628059 66 6 71 2541 121781
9	52310 5781 186 1157 398.674948377175 2499.743281709209 211 29 239 28274 4571526
10	58091 8553 186 1157 398.674948377175 2499.743281709209 211 0.225441900262 142.08534582264 10516.786571274 759211.27393788
11	66644 20 1158 1158 2500 2500 1 0.0956 0.0956 0.0956 0.00913936
12	66664 20 1158 1158 2500 2500 1 0.0552 0.0552 0.0552 0.00304704

