file 63674 1678524375                                           
version 2
run experiments_medium_game_mode1-1710-20230311-09:46:15-17249
attr configname experiments_medium_game_mode1
attr datetime 20230311-09:46:15
attr experiment experiments_medium_game_mode1
attr inifile omnetpp.ini
attr iterationvars "$0=7.5, $1=6, $2=100"
attr iterationvarsf 7.5,6,100-
attr measurement "$0=7.5, $1=6, $2=100"
attr network Network
attr processid 17249
attr repetition 0
attr replication #0
attr resultdir results
attr runnumber 1710
attr seedset 0
param *.boss.arrival_mean 20
param *.boss.service_mean 7.5
param *.minion.arrival_mean 10
param *.minion.service_mean 6
param *.player.recover_rate_x 100
param **.minion.arrival_distribution 0
param **.minion.service_distribution 0
param **.boss.arrival_distribution 0
param **.boss.service_distribution 0

vector 0 Network.player boss_defeated_stat:vector ETV
attr source signal_boss_defeated
vector 1 Network.player boss_jobs_queue_number_stat:vector ETV
attr source signal_boss_jobs_queue_number
vector 2 Network.player boss_response_time_stat:vector ETV
attr source signal_boss_response_time
vector 3 Network.player minion_waiting_time_stat:vector ETV
attr source signal_minion_waiting_time
vector 4 Network.player minion_defeated_stat:vector ETV
attr source signal_minion_defeated
vector 5 Network.player minion_jobs_queue_number_stat:vector ETV
attr source signal_minion_jobs_queue_number
vector 6 Network.player minion_response_time_stat:vector ETV
attr source signal_minion_response_time
vector 7 Network.player minion_jobs_number_stat:vector ETV
attr source signal_minion_jobs_number
vector 8 Network.player boss_jobs_number_stat:vector ETV
attr source signal_boss_jobs_number
vector 9 Network.player minion_recovered_stat:vector ETV
attr source signal_minion_recovered
vector 10 Network.player boss_waiting_time_stat:vector ETV
attr source signal_boss_waiting_time
vector 11 Network.player minion_throughput:vector ETV
attr source signal_minion_throughput
vector 12 Network.player boss_throughput:vector ETV
attr source signal_boss_throughput
0	2026 2837 165 1100 351.172515206455 2488.714925074732 106 22 127 7897 687569
1	4863 5383 165 1100 351.172515206455 2488.714925074732 211 0 3 68 112
2	10246 4104 165 1100 351.172515206455 2488.714925074732 106 0.182055978274 33.395514926394 863.92515909674 11228.288503577
3	14350 11099 165 1103 351.172515206455 2491.497376120721 284 0 241.16754461799 20958.506270538 2779177.823087
4	25449 5774 166 1104 354.413061505187 2491.617858524104 210 32 241 28665 4684505
5	31223 10907 166 1104 354.413061505187 2491.617858524104 417 0 34 4353 79715
6	42130 8328 166 1104 354.413061505187 2491.617858524104 210 0.120482403383 247.54701559256 17008.70659562 2271215.9902197
7	50458 5406 168 1103 356.599406890352 2491.497376120721 207 1 35 2382 44412
8	55864 2680 171 1098 365.058342191057 2480.218280446483 105 1 4 139 229
9	58544 1974 171 1080 365.058342191057 2434.432498188945 74 16 89 3885 237725
10	60518 3115 171 1099 365.058342191057 2482.336260335981 105 0 24.234919066883 173.04348339338 2247.5350030322
11	63633 20 1105 1105 2500 2500 1 0.0964 0.0964 0.0964 0.00929296
12	63653 20 1105 1105 2500 2500 1 0.0508 0.0508 0.0508 0.00258064

