file 66130 1678524140                                           
version 2
run experiments_medium_game_mode1-688-20230311-09:42:20-12128
attr configname experiments_medium_game_mode1
attr datetime 20230311-09:42:20
attr experiment experiments_medium_game_mode1
attr inifile omnetpp.ini
attr iterationvars "$0=6, $1=4, $2=0"
attr iterationvarsf 6,4,0-
attr measurement "$0=6, $1=4, $2=0"
attr network Network
attr processid 12128
attr repetition 28
attr replication #28
attr resultdir results
attr runnumber 688
attr seedset 28
param *.boss.arrival_mean 20
param *.boss.service_mean 6
param *.minion.arrival_mean 10
param *.minion.service_mean 4
param *.player.recover_rate_x 0
param **.minion.arrival_distribution 0
param **.minion.service_distribution 0
param **.boss.arrival_distribution 0
param **.boss.service_distribution 0

vector 0 Network.player minion_jobs_number_stat:vector ETV
attr source signal_minion_jobs_number
vector 1 Network.player minion_jobs_queue_number_stat:vector ETV
attr source signal_minion_jobs_queue_number
vector 2 Network.player minion_defeated_stat:vector ETV
attr source signal_minion_defeated
vector 3 Network.player minion_response_time_stat:vector ETV
attr source signal_minion_response_time
vector 4 Network.player minion_waiting_time_stat:vector ETV
attr source signal_minion_waiting_time
vector 5 Network.player boss_jobs_number_stat:vector ETV
attr source signal_boss_jobs_number
vector 6 Network.player boss_jobs_queue_number_stat:vector ETV
attr source signal_boss_jobs_queue_number
vector 7 Network.player boss_waiting_time_stat:vector ETV
attr source signal_boss_waiting_time
vector 8 Network.player boss_defeated_stat:vector ETV
attr source signal_boss_defeated
vector 9 Network.player boss_response_time_stat:vector ETV
attr source signal_boss_response_time
vector 10 Network.player minion_recovered_stat:vector ETV
attr source signal_minion_recovered
vector 11 Network.player minion_throughput:vector ETV
attr source signal_minion_throughput
vector 12 Network.player boss_throughput:vector ETV
attr source signal_boss_throughput
0	2011 6393 167 1195 350.294513694894 2463.460184766505 247 1 12 850 4754
1	8404 12832 167 1197 350.294513694894 2472.520185468417 497 0 11 1209 6607
2	21236 6872 168 1197 351.946911340521 2472.520185468417 250 29 278 38375 7192625
3	28108 9795 168 1197 351.946911340521 2472.520185468417 250 0.035806917542 67.869520821555 3978.3005701828 114738.22788789
4	37903 10289 168 1196 351.946911340521 2469.014859623625 285 0 67.492102819002 3619.83344506 103670.13893339
5	48192 2517 176 1202 378.709152250134 2495.979355742821 98 1 4 134 228
6	50709 5039 176 1203 378.709152250134 2497.783177737648 196 0 3 72 116
7	55748 2878 176 1202 378.709152250134 2495.979355742821 98 0 21.943612188694 185.70631548832 2213.7304003065
8	58626 2644 179 1203 386.041990309551 2497.783177737648 98 26 123 7301 622349
9	61270 3821 179 1203 386.041990309551 2497.783177737648 98 0.002126291389 39.257949189748 773.44862510735 11616.975953508
10	65091 998 208 1177 457.419023234562 2426.739274968978 36 15 50 1170 41910
11	66089 20 1204 1204 2500 2500 1 0.1112 0.1112 0.1112 0.01236544
12	66109 20 1204 1204 2500 2500 1 0.0492 0.0492 0.0492 0.00242064

