file 64113 1678524038                                           
version 2
run experiments_medium_game_mode1-200-20230311-09:40:38-9677
attr configname experiments_medium_game_mode1
attr datetime 20230311-09:40:38
attr experiment experiments_medium_game_mode1
attr inifile omnetpp.ini
attr iterationvars "$0=5, $1=6, $2=0"
attr iterationvarsf 5,6,0-
attr measurement "$0=5, $1=6, $2=0"
attr network Network
attr processid 9677
attr repetition 20
attr replication #20
attr resultdir results
attr runnumber 200
attr seedset 20
param *.boss.arrival_mean 20
param *.boss.service_mean 5
param *.minion.arrival_mean 10
param *.minion.service_mean 6
param *.player.recover_rate_x 0
param **.minion.arrival_distribution 0
param **.minion.service_distribution 0
param **.boss.arrival_distribution 0
param **.boss.service_distribution 0

vector 0 Network.player minion_jobs_number_stat:vector ETV
attr source signal_minion_jobs_number
vector 1 Network.player minion_jobs_queue_number_stat:vector ETV
attr source signal_minion_jobs_queue_number
vector 2 Network.player minion_defeated_stat:vector ETV
attr source signal_minion_defeated
vector 3 Network.player minion_response_time_stat:vector ETV
attr source signal_minion_response_time
vector 4 Network.player minion_waiting_time_stat:vector ETV
attr source signal_minion_waiting_time
vector 5 Network.player boss_jobs_number_stat:vector ETV
attr source signal_boss_jobs_number
vector 6 Network.player boss_jobs_queue_number_stat:vector ETV
attr source signal_boss_jobs_queue_number
vector 7 Network.player boss_waiting_time_stat:vector ETV
attr source signal_boss_waiting_time
vector 8 Network.player boss_defeated_stat:vector ETV
attr source signal_boss_defeated
vector 9 Network.player boss_response_time_stat:vector ETV
attr source signal_boss_response_time
vector 10 Network.player minion_recovered_stat:vector ETV
attr source signal_minion_recovered
vector 11 Network.player minion_throughput:vector ETV
attr source signal_minion_throughput
vector 12 Network.player boss_throughput:vector ETV
attr source signal_boss_throughput
0	2009 5593 125 1097 351.622388343199 2470.076086231798 217 1 12 993 6205
1	7602 11045 125 1102 351.622388343199 2481.710088369376 429 0 11 1527 8737
2	18647 5808 126 1102 361.479397487098 2481.710088369376 212 28 239 28302 4572310
3	24455 8353 126 1102 361.479397487098 2481.710088369376 212 0.041865238131 115.32189897776 6183.6057381082 274266.99289136
4	32808 10151 126 1108 361.479397487098 2499.750458475522 268 0 97.986519785171 6233.4619310623 253284.50714848
5	42959 2911 146 1107 429.805982642391 2491.727201881822 113 1 5 175 369
6	45870 5818 146 1108 429.805982642391 2499.750458475522 226 0 4 124 264
7	51688 3402 146 1107 429.805982642391 2491.727201881822 113 0 29.389621658179 377.92842198114 6476.1638323843
8	55090 3046 151 1108 432.250782023323 2499.750458475522 113 13 125 7797 658225
9	58136 4385 151 1108 432.250782023323 2499.750458475522 113 0.020567941364 46.92129874058 942.13179101804 18035.323596349
10	62521 1553 160 1107 466.653881971489 2491.727201881822 56 7 62 1932 81284
11	64074 20 1109 1109 2500 2500 1 0.0956 0.0956 0.0956 0.00913936
12	64094 18 1109 1109 2500 2500 1 0.05 0.05 0.05 0.0025

