version 2
run experiments_medium_game_mode1-1320-20230311-09:44:38-15294
attr configname experiments_medium_game_mode1
attr datetime 20230311-09:44:38
attr experiment experiments_medium_game_mode1
attr inifile omnetpp.ini
attr iterationvars "$0=7, $1=5, $2=0"
attr iterationvarsf 7,5,0-
attr measurement "$0=7, $1=5, $2=0"
attr network Network
attr processid 15294
attr repetition 0
attr replication #0
attr resultdir results
attr runnumber 1320
attr seedset 0
param *.boss.arrival_mean 20
param *.boss.service_mean 7
param *.minion.arrival_mean 10
param *.minion.service_mean 5
param *.player.recover_rate_x 0
param **.minion.arrival_distribution 0
param **.minion.service_distribution 0
param **.boss.arrival_distribution 0
param **.boss.service_distribution 0

vector 0 Network.player boss_defeated_stat:vector ETV
attr source signal_boss_defeated
vector 1 Network.player boss_jobs_queue_number_stat:vector ETV
attr source signal_boss_jobs_queue_number
vector 2 Network.player boss_response_time_stat:vector ETV
attr source signal_boss_response_time
vector 3 Network.player minion_waiting_time_stat:vector ETV
attr source signal_minion_waiting_time
vector 4 Network.player minion_defeated_stat:vector ETV
attr source signal_minion_defeated
vector 5 Network.player minion_jobs_queue_number_stat:vector ETV
attr source signal_minion_jobs_queue_number
vector 6 Network.player minion_response_time_stat:vector ETV
attr source signal_minion_response_time
vector 7 Network.player minion_jobs_number_stat:vector ETV
attr source signal_minion_jobs_number
vector 8 Network.player boss_jobs_number_stat:vector ETV
attr source signal_boss_jobs_number
vector 9 Network.player boss_waiting_time_stat:vector ETV
attr source signal_boss_waiting_time
vector 10 Network.player minion_recovered_stat:vector ETV
attr source signal_minion_recovered
vector 11 Network.player minion_throughput:vector ETV
attr source signal_minion_throughput
vector 12 Network.player boss_throughput:vector ETV
attr source signal_boss_throughput
0	167	351.093971794082	22
0	174	369.330714250222	23
0	181	392.262403039258	24
0	182	399.594059841404	25
0	191	406.432979029154	26
0	194	421.431747037122	27
0	201	439.880896590328	28
0	206	448.79542873213	29
0	210	471.092288333424	30
0	220	503.372082464823	31
0	223	520.489309525493	32
0	234	541.747207324612	33
0	247	567.541432146499	34
0	252	576.741977764971	35
0	263	606.928472911737	36
0	268	621.064698658041	37
0	273	626.463013325798	38
0	274	630.217228346912	39
0	309	700.039957353163	40
0	319	710.81493102379	41
0	324	718.090158415277	42
0	335	726.35965658663	43
0	336	732.543372198193	44
0	345	738.910710822221	45
0	348	741.161024858367	46
0	349	742.355444952618	47
0	358	747.601850396912	48
0	359	753.108657692915	49
0	368	769.636035081989	50
0	375	788.486643485192	51
0	385	806.470870468191	52
0	388	809.031521403671	53
0	389	811.116452405309	54
0	390	812.873274765827	55
0	412	851.788883151634	56
0	413	855.225715375896	57
0	419	867.210871995243	58
0	428	886.495065685076	59
0	429	886.640875313158	60
0	440	912.747452059853	61
0	441	913.825365103102	62
0	442	921.636749853191	63
0	445	924.391223860631	64
0	453	946.327874508048	65
0	462	962.836027068613	66
0	469	977.531502012806	67
0	485	999.520617595917	68
0	495	1013.353756747586	69
0	507	1035.657297190095	70
0	512	1042.248786390949	71
0	518	1064.297372028086	72
0	529	1099.539405018734	73
0	560	1196.836285881257	74
0	570	1209.069297881089	75
0	579	1217.82102166675	76
0	580	1220.962166938075	77
0	581	1221.125889731521	78
0	594	1238.574585203685	79
0	617	1277.694920778109	80
0	639	1345.484233335654	81
0	652	1361.870700121931	82
0	656	1374.373070530258	83
0	661	1384.494910707809	84
0	672	1421.096327852517	85
0	690	1525.497773320528	86
0	693	1529.687662210469	87
0	700	1536.439367444254	88
0	709	1555.878333941825	89
0	716	1565.004601750452	90
0	725	1582.528843833177	91
0	734	1609.474499861223	92
0	743	1619.525346458797	93
0	753	1636.416422508259	94
0	763	1654.382606660888	95
0	771	1676.335899689831	96
0	775	1682.285654719335	97
0	780	1689.694869683043	98
0	806	1752.129087841798	99
0	819	1780.442001052691	100
0	826	1797.218642965208	101
0	840	1839.270905499815	102
0	841	1840.84498451633	103
0	863	1890.603720833082	104
0	872	1904.318725602815	105
0	887	1946.760243537432	106
0	904	1972.581490955517	107
0	916	1994.678468596912	108
0	921	2001.473163400284	109
0	926	2005.974957729859	110
0	927	2009.122810373039	111
0	942	2033.001520545849	112
0	950	2044.139876133301	113
0	955	2051.907843526658	114
0	956	2061.521386065459	115
0	974	2096.335126326006	116
0	1005	2202.111927581502	117
0	1022	2262.123953124316	118
0	1037	2329.260538707697	119
0	1041	2337.726032187846	120
0	1058	2370.553512431872	121
0	1070	2404.490953480994	122
0	1075	2417.633268063567	123
0	1082	2439.136188950537	124
0	1089	2466.299481067577	125
0	1099	2481.947865922792	126
0	1100	2487.901286345626	127
1	167	351.093971794082	0
1	173	365.058342191057	0
1	174	369.330714250222	0
1	176	388.037052425803	0
1	180	390.927857908176	1
1	181	392.262403039258	1
1	182	399.594059841404	0
1	190	404.73333087535	0
1	191	406.432979029154	0
1	193	419.146910101711	0
1	194	421.431747037122	0
1	200	436.823234710174	0
1	201	439.880896590328	0
1	203	440.900837049397	0
1	206	448.79542873213	0
1	209	466.342603331937	0
1	210	471.092288333424	0
1	217	497.116149187221	0
1	219	503.09769978815	1
1	220	503.372082464823	1
1	223	520.489309525493	0
1	233	541.577288411556	0
1	234	541.747207324612	0
1	242	557.379584999622	0
1	247	567.541432146499	0
1	249	571.013320665705	0
1	252	576.741977764971	0
1	254	581.474923170251	0
1	263	606.928472911737	0
1	267	618.964030904645	0
1	268	621.064698658041	0
1	270	622.85963881137	0
1	272	624.51956532149	1
1	273	626.463013325798	1
1	274	630.217228346912	0
1	308	694.407150928009	0
1	309	700.039957353163	0
1	316	708.481046712107	0
1	319	710.81493102379	0
1	321	715.529536791828	0
1	323	716.879841144914	1
1	324	718.090158415277	1
1	332	723.6697040014	1
1	335	726.35965658663	1
1	336	732.543372198193	0
1	340	734.846307524025	0
1	344	737.31664614593	1
1	345	738.910710822221	1
1	347	739.346914019748	1
1	348	741.161024858367	1
1	349	742.355444952618	0
1	351	743.358100075954	0
1	355	746.078159748484	1
1	358	747.601850396912	1
1	359	753.108657692915	0
1	365	759.713988500873	0
1	368	769.636035081989	0
1	374	777.877727033664	0
1	375	788.486643485192	0
1	380	794.561121372008	0
1	382	799.685099640979	1
1	384	804.701437837468	2
1	385	806.470870468191	2
1	387	806.963595367265	2
1	388	809.031521403671	2
1	389	811.116452405309	1
1	390	812.873274765827	0
1	405	836.140137449287	0
1	407	841.117217619398	1
1	412	851.788883151634	1
1	413	855.225715375896	0
1	416	858.339450889291	0
1	418	866.949764860109	1
1	419	867.210871995243	1
1	421	870.623974825057	1
1	425	883.238222931355	2
1	428	886.495065685076	2
1	429	886.640875313158	1
1	435	892.398818790866	1
1	437	896.905318042219	2
1	439	909.552892526914	3
1	440	912.747452059853	3
1	441	913.825365103102	2
1	442	921.636749853191	1
1	445	924.391223860631	0
1	448	930.008526162325	0
1	453	946.327874508048	0
1	455	951.250248410845	0
1	462	962.836027068613	0
1	466	964.447198103986	0
1	469	977.531502012806	0
1	482	995.956600520193	0
1	485	999.520617595917	0
1	494	1010.030117456946	0
1	495	1013.353756747586	0
1	506	1031.787232155939	0
1	507	1035.657297190095	0
1	511	1041.57153689313	0
1	512	1042.248786390949	0
1	517	1060.559683230173	0
1	518	1064.297372028086	0
1	528	1092.122097599442	0
1	529	1099.539405018734	0
1	557	1186.006490948789	0
1	560	1196.836285881257	0
1	565	1203.356701488495	0
1	569	1205.901663236199	1
1	570	1209.069297881089	1
1	574	1209.443534644607	1
1	576	1212.660171838827	2
1	579	1217.82102166675	2
1	580	1220.962166938075	1
1	581	1221.125889731521	0
1	593	1236.78984715634	0
1	594	1238.574585203685	0
1	616	1275.038720804297	0
1	617	1277.694920778109	0
1	638	1341.831971966471	0
1	639	1345.484233335654	0
1	649	1356.079627233473	0
1	652	1361.870700121931	0
1	655	1369.942905406479	0
1	656	1374.373070530258	0
1	658	1374.84225275845	0
1	661	1384.494910707809	0
1	671	1418.900678856088	0
1	672	1421.096327852517	0
1	689	1518.913265032233	0
1	690	1525.497773320528	0
1	692	1527.272532464144	0
1	693	1529.687662210469	0
1	695	1534.84794874575	0
1	700	1536.439367444254	0
1	708	1551.594958035781	0
1	709	1555.878333941825	0
1	711	1557.582850544547	0
1	716	1565.004601750452	0
1	720	1568.739307218153	0
1	725	1582.528843833177	0
1	733	1601.86730711915	0
1	734	1609.474499861223	0
1	738	1613.347843900331	0
1	743	1619.525346458797	0
1	746	1622.076911568479	0
1	753	1636.416422508259	0
1	762	1652.049086036555	0
1	763	1654.382606660888	0
1	766	1664.665401336451	0
1	771	1676.335899689831	0
1	774	1680.005761790246	0
1	775	1682.285654719335	0
1	779	1686.414640465257	0
1	780	1689.694869683043	0
1	803	1747.885153759755	0
1	806	1752.129087841798	0
1	818	1779.894755724619	0
1	819	1780.442001052691	0
1	825	1795.609136824645	0
1	826	1797.218642965208	0
1	837	1829.264198008331	0
1	839	1830.977423873753	1
1	840	1839.270905499815	1
1	841	1840.84498451633	0
1	860	1890.142463571974	0
1	863	1890.603720833082	0
1	869	1899.267394109141	0
1	872	1904.318725602815	0
1	880	1933.886473698141	0
1	887	1946.760243537432	0
1	903	1971.942596377363	0
1	904	1972.581490955517	0
1	909	1986.420461942477	0
1	916	1994.678468596912	0
1	918	1996.847244160215	0
1	921	2001.473163400284	0
1	923	2001.842081440919	0
1	925	2002.393665442616	1
1	926	2005.974957729859	1
1	927	2009.122810373039	0
1	941	2029.851865139414	0
1	942	2033.001520545849	0
1	945	2035.530374205771	0
1	950	2044.139876133301	0
1	952	2046.826782324502	0
1	954	2048.216878838541	1
1	955	2051.907843526658	1
1	956	2061.521386065459	0
1	973	2092.056321117119	0
1	974	2096.335126326006	0
1	1004	2193.888924218505	0
1	1005	2202.111927581502	0
1	1019	2250.55891489116	0
1	1022	2262.123953124316	0
1	1034	2321.080740139735	0
1	1037	2329.260538707697	0
1	1040	2335.064538159043	0
1	1041	2337.726032187846	0
1	1057	2367.279148164219	0
1	1058	2370.553512431872	0
1	1065	2391.495205482738	0
1	1070	2404.490953480994	0
1	1074	2409.912083040808	0
1	1075	2417.633268063567	0
1	1081	2434.432498188945	0
1	1082	2439.136188950537	0
1	1088	2463.3924778558	0
1	1089	2466.299481067577	0
1	1094	2476.510344138141	0
1	1098	2480.218280446483	1
1	1099	2481.947865922792	1
1	1100	2487.901286345626	0
2	167	351.093971794082	1.099607773224
2	174	369.330714250222	4.272372059165
2	181	392.262403039258	4.225350613455
2	182	399.594059841404	8.666201933228
2	191	406.432979029154	1.699648153804
2	194	421.431747037122	2.284836935411
2	201	439.880896590328	3.057661880154
2	206	448.79542873213	7.894591682733
2	210	471.092288333424	4.749685001487
2	220	503.372082464823	6.255933277602
2	223	520.489309525493	17.391609737343
2	234	541.747207324612	0.169918913056
2	247	567.541432146499	10.161847146877
2	252	576.741977764971	5.728657099266
2	263	606.928472911737	25.453549741486
2	268	621.064698658041	2.100667753396
2	273	626.463013325798	3.603374514428
2	274	630.217228346912	5.697663025422
2	309	700.039957353163	5.632806425154
2	319	710.81493102379	2.333884311683
2	324	718.090158415277	2.560621623449
2	335	726.35965658663	9.479815441716
2	336	732.543372198193	8.873668196793
2	345	738.910710822221	4.064403298196
2	348	741.161024858367	3.844378712437
2	349	742.355444952618	3.00853093287
2	358	747.601850396912	4.243750320958
2	359	753.108657692915	7.030497944431
2	368	769.636035081989	9.922046581116
2	375	788.486643485192	10.608916451528
2	385	806.470870468191	11.909749096183
2	388	809.031521403671	9.346421762692
2	389	811.116452405309	6.415014567841
2	390	812.873274765827	5.909679398562
2	412	851.788883151634	15.648745702347
2	413	855.225715375896	14.108497756498
2	419	867.210871995243	8.871421105952
2	428	886.495065685076	19.545300824967
2	429	886.640875313158	16.016900488101
2	440	912.747452059853	29.509229128498
2	441	913.825365103102	21.426546312236
2	442	921.636749853191	24.731431810972
2	445	924.391223860631	14.838331333717
2	453	946.327874508048	16.319348345723
2	462	962.836027068613	11.585778657768
2	469	977.531502012806	13.08430390882
2	485	999.520617595917	3.564017075724
2	495	1013.353756747586	3.32363929064
2	507	1035.657297190095	3.870065034156
2	512	1042.248786390949	0.677249497819
2	518	1064.297372028086	3.737688797913
2	529	1099.539405018734	7.417307419292
2	560	1196.836285881257	10.829794932468
2	570	1209.069297881089	5.712596392594
2	579	1217.82102166675	11.919358430551
2	580	1220.962166938075	11.518632293468
2	581	1221.125889731521	8.465717892694
2	594	1238.574585203685	1.784738047345
2	617	1277.694920778109	2.656199973812
2	639	1345.484233335654	3.652261369183
2	652	1361.870700121931	5.791072888458
2	656	1374.373070530258	4.430165123779
2	661	1384.494910707809	9.652657949359
2	672	1421.096327852517	2.195648996429
2	690	1525.497773320528	6.584508288295
2	693	1529.687662210469	2.415129746325
2	700	1536.439367444254	1.591418698504
2	709	1555.878333941825	4.283375906044
2	716	1565.004601750452	7.421751205905
2	725	1582.528843833177	13.789536615024
2	734	1609.474499861223	7.607192742073
2	743	1619.525346458797	6.177502558466
2	753	1636.416422508259	14.33951093978
2	763	1654.382606660888	2.333520624333
2	771	1676.335899689831	11.67049835338
2	775	1682.285654719335	2.279892929089
2	780	1689.694869683043	3.280229217786
2	806	1752.129087841798	4.243934082043
2	819	1780.442001052691	0.547245328072
2	826	1797.218642965208	1.609506140563
2	840	1839.270905499815	10.006707491484
2	841	1840.84498451633	9.867560642577
2	863	1890.603720833082	0.461257261108
2	872	1904.318725602815	5.051331493674
2	887	1946.760243537432	12.873769839291
2	904	1972.581490955517	0.638894578154
2	916	1994.678468596912	8.258006654435
2	921	2001.473163400284	4.625919240069
2	926	2005.974957729859	4.13287628894
2	927	2009.122810373039	6.729144930423
2	942	2033.001520545849	3.149655406435
2	950	2044.139876133301	8.60950192753
2	955	2051.907843526658	5.081061202156
2	956	2061.521386065459	13.304507226918
2	974	2096.335126326006	4.278805208887
2	1005	2202.111927581502	8.223003362997
2	1022	2262.123953124316	11.565038233156
2	1037	2329.260538707697	8.179798567962
2	1041	2337.726032187846	2.661494028803
2	1058	2370.553512431872	3.274364267653
2	1070	2404.490953480994	12.995747998256
2	1075	2417.633268063567	7.721185022759
2	1082	2439.136188950537	4.703690761592
2	1089	2466.299481067577	2.907003211777
2	1099	2481.947865922792	5.437521784651
2	1100	2487.901286345626	7.683005899143
3	167	351.093971794082	1.099607773224
3	170	356.599406890352	0
3	182	399.594059841404	11.492953664293
3	185	403.158948763485	0
3	188	404.671257300135	0
3	191	406.432979029154	1.699648153804
3	194	421.431747037122	2.284836935411
3	197	425.074399879554	0
3	206	448.79542873213	3.312106693459
3	212	483.935540730089	0
3	215	492.001379186385	1.648746729515
3	223	520.489309525493	23.373160338272
3	224	521.667925580533	15.262897553048
3	231	538.919061016963	16.374012240552
3	234	541.747207324612	13.012863951934
3	235	543.627400436685	7.543412852109
3	236	544.114366632309	2.537078220753
3	239	551.249347324478	0
3	247	567.541432146499	4.932695404919
3	252	576.741977764971	12.87449692901
3	263	606.928472911737	35.915152246032
3	264	607.107222918207	30.48746506001
3	265	617.120375303586	35.645452133335
3	268	621.064698658041	34.230622056352
3	274	630.217228346912	34.659939794802
3	277	639.051984439873	41.947399082763
3	278	639.496382082829	34.683450141046
3	281	648.344514135938	29.380483231293
3	282	652.220997744396	29.361358933026
3	287	661.676336937137	27.919200215483
3	290	661.875526332914	13.904742810323
3	291	663.470014075323	8.120957635173
3	292	664.400640520115	7.932122473639
3	293	664.705993610931	2.881818362176
3	300	675.230508534082	6.989386265016
3	301	680.78182868875	9.467902898159
3	302	681.299455449528	7.923496838632
3	305	688.258506868413	0
3	311	701.611408714652	0
3	314	707.702232946483	0
3	319	710.81493102379	2.333884311683
3	336	732.543372198193	22.400654344345
3	349	742.355444952618	26.82590816079
3	359	753.108657692915	34.562592782945
3	360	756.917557805691	36.918712622799
3	363	758.017992029271	37.829461154368
3	368	769.636035081989	45.529796100319
3	369	771.345879164354	37.625830792026
3	370	773.241326536381	38.395019012356
3	371	773.591729440855	38.250316174067
3	372	774.35818546264	31.000085386686
3	375	788.486643485192	43.675263446654
3	378	794.286437826799	46.960638467513
3	390	812.873274765827	55.951995632859
3	393	821.870993410821	62.157004909948
3	396	826.061279893814	64.254430267766
3	397	828.721005666091	50.843278632427
3	400	834.542684050333	43.956684211508
3	401	834.63497194033	40.073850568322
3	413	855.225715375896	41.350581794929
3	414	855.399559376206	30.073036248238
3	445	924.391223860631	93.087239964479
3	446	929.282453268596	93.523284421932
3	453	946.327874508048	110.18773705876
3	462	962.836027068613	117.58191238698
3	469	977.531502012806	126.53206326376
3	474	984.42642081852	126.08696992923
3	475	988.420888192219	114.15793882623
3	476	990.193526579083	103.96949921853
3	477	991.839131144391	104.56949152608
3	480	994.79329815792	106.90250563495
3	485	999.520617595917	76.627688228398
3	486	1000.776561873577	70.768035711252
3	495	1013.353756747586	79.471702704558
3	496	1013.898513813044	69.42811845514
3	497	1014.279487028337	63.029238617492
3	498	1015.223804864813	59.647435050037
3	501	1018.193876669735	60.74324619478
3	502	1021.361089459184	61.548391923402
3	507	1035.657297190095	71.410559368107
3	508	1036.162879633546	71.71568152956
3	509	1039.955114548235	74.328089841962
3	512	1042.248786390949	62.731334786766
3	513	1053.933125390537	70.626054143527
3	514	1055.62993483012	62.962247985396
3	515	1056.266207490037	60.309606969844
3	518	1064.297372028086	67.108664581116
3	519	1064.993846557907	63.874013537896
3	520	1068.713937620709	59.149826665421
3	521	1068.811722395988	58.855779876569
3	522	1069.248359559602	59.218242102656
3	525	1081.755284424271	66.026098796787
3	526	1087.434294029893	61.646398350743
3	529	1099.539405018734	67.752172862795
3	530	1101.075565404599	59.504028511469
3	531	1101.197111317272	40.637428087099
3	536	1103.526442573004	33.193578432093
3	537	1104.715369373996	12.593271774554
3	538	1112.46379277805	10.201462216603
3	543	1124.528493068634	21.189811425626
3	544	1126.07163711034	12.15469133381
3	547	1127.847375599031	11.587414634745
3	550	1131.229545341719	4.889391923232
3	551	1135.619574593237	7.520285720494
3	554	1181.700292375175	0
3	560	1196.836285881257	4.548566355141
3	563	1201.104246096177	0.097368033804
3	581	1221.125889731521	17.769188243026
3	584	1223.632224965292	19.704541570247
3	585	1224.425612857084	15.147282691206
3	594	1238.574585203685	23.016839227895
3	599	1243.024113907035	21.02855791522
3	600	1244.536258489395	19.73793241279
3	601	1250.552096824731	15.985130007419
3	602	1251.865518642626	15.567277263852
3	603	1252.40530712771	15.61545997137
3	606	1255.720144926296	15.296891248297
3	607	1259.53207919103	17.939271415106
3	608	1262.204734357951	9.380243566694
3	617	1277.694920778109	14.189708015357
3	618	1283.622314471838	16.301543275344
3	623	1287.019123590295	18.21122970128
3	624	1289.692830846393	14.654110042096
3	625	1291.831322951294	7.957075729554
3	626	1295.720498428797	9.657445241984
3	629	1315.934952105333	0
3	632	1323.18613302719	2.651041344454
3	635	1331.397785491519	0
3	641	1348.601102068685	0
3	646	1354.051267776275	5.313519923281
3	647	1354.805185253508	5.045988585265
3	652	1361.870700121931	5.791072888458
3	653	1364.213146991745	4.702930981939
3	656	1374.373070530258	4.430165123779
3	661	1384.494910707809	9.652657949359
3	662	1386.156766908893	8.448361706243
3	667	1400.62217230351	11.715623443321
3	668	1400.773444528743	10.856547915464
3	674	1425.652780336723	0
3	677	1463.143094932568	0
3	680	1484.19630794049	0
3	683	1490.519673904448	0
3	686	1497.64550983778	0
3	700	1536.439367444254	1.174584761434
3	701	1537.18927635625	1.351224409192
3	704	1548.323690786068	3.200853869996
3	709	1555.878333941825	4.756028159343
3	716	1565.004601750452	13.409643714671
3	725	1582.528843833177	24.94599328863
3	726	1583.195063000842	18.630304496837
3	727	1585.729868785615	20.963209000148
3	728	1589.595419101723	24.428996325673
3	729	1590.499158243815	21.759851025662
3	730	1591.728658327654	20.733451662934
3	731	1597.010718395509	22.691409321152
3	734	1609.474499861223	7.607192742073
3	743	1619.525346458797	6.290336155987
3	744	1621.766643436032	8.418799535701
3	753	1636.416422508259	21.900844552337
3	754	1638.553180857706	19.583408282586
3	757	1642.784772450469	20.70786088199
3	760	1646.866006805938	24.384473337005
3	763	1654.382606660888	25.344610348319
3	764	1659.460903924461	29.159021247639
3	771	1676.335899689831	34.365281747523
3	772	1677.011075908567	31.213448477641
3	775	1682.285654719335	30.23656868278
3	776	1684.050315783507	19.384914447056
3	777	1685.318917509004	18.278918108061
3	780	1689.694869683043	17.306026524531
3	781	1694.581343299683	14.575581509437
3	788	1702.327662109489	15.913021644232
3	789	1707.091154982824	9.66319399346
3	790	1712.308217047669	14.217282043483
3	793	1719.258573214545	18.723683729541
3	796	1721.442880686966	9.11609593131
3	797	1723.588328122421	2.933108206103
3	800	1730.791723049809	1.775527813788
3	806	1752.129087841798	3.080487380705
3	809	1754.33350054803	2.200751685959
3	812	1765.644855023237	6.399626788994
3	815	1772.632407161051	5.979589422338
3	821	1791.508641308481	0
3	826	1797.218642965208	4.723498572544
3	827	1813.957880986499	18.348744161854
3	830	1820.514927629134	2.616738156883
3	833	1826.477145882993	0
3	841	1840.84498451633	13.500133809941
3	842	1844.29184677962	15.027648771289
3	845	1853.837409993153	0
3	848	1858.697692159903	1.60687801146
3	851	1860.926416289429	0
3	854	1861.535819466845	0.515395670775
3	857	1872.028882896978	0
3	863	1890.603720833082	0.101561426086
3	866	1891.915466542604	0
3	872	1904.318725602815	1.985452518416
3	875	1914.932611185489	0
3	878	1933.34543590036	0
3	887	1946.760243537432	12.873769839291
3	892	1960.441730579175	23.679753008554
3	893	1963.064129373414	23.226974565169
3	898	1965.452722259773	23.592063065856
3	901	1966.805385276982	19.872724850499
3	904	1972.581490955517	16.817540109441
3	907	1984.266313531222	20.454388687132
3	916	1994.678468596912	30.663419164866
3	921	2001.473163400284	35.65559144839
3	927	2009.122810373039	37.180213995676
3	930	2011.182388899791	27.707406223766
3	931	2011.196761160031	24.776299217554
3	934	2016.425787198183	28.333495561713
3	935	2023.834071063185	35.694714021792
3	938	2028.634564729719	38.911792626021
3	939	2029.464423397271	32.617179237056
3	942	2033.001520545849	31.952407022426
3	943	2034.978932816797	33.136851375878
3	950	2044.139876133301	34.659932288394
3	956	2061.521386065459	48.894225612006
3	957	2065.26529978308	40.473052795261
3	958	2065.31054384698	35.458678707566
3	959	2067.017145743413	31.486771537642
3	960	2067.889888350225	29.810062624903
3	963	2078.74513346339	37.261840355716
3	968	2084.918024200534	38.091241876032
3	969	2086.552384523133	12.317659638311
3	970	2088.762535407717	8.848768988092
3	971	2091.942975758432	9.168999613726
3	974	2096.335126326006	4.278805208887
3	979	2108.180783386475	11.296563148825
3	982	2115.412971003576	9.944821087636
3	985	2120.295299830884	9.783711849066
3	986	2123.445154190173	3.967657500496
3	989	2142.114832448286	0
3	992	2150.60704056393	0
3	997	2163.863303921993	3.069676057875
3	998	2172.773119656732	9.455291863703
3	1001	2185.53289677777	0
3	1007	2216.055713346613	0
3	1014	2245.670728674273	18.218935692331
3	1015	2246.034020301455	12.655987044991
3	1016	2246.979787571068	7.637960371309
3	1022	2262.123953124316	4.047527125985
3	1025	2296.506491830768	0
3	1028	2308.528877503233	0
3	1037	2329.260538707697	19.496394730843
3	1038	2330.326233010908	17.031887701312
3	1041	2337.726032187846	16.645292048111
3	1042	2338.659384433754	10.796853538516
3	1043	2341.780396721866	6.715858562823
3	1046	2344.671752940697	0
3	1049	2349.978977906862	0
3	1052	2355.029165384409	0
3	1055	2366.281985552846	0
3	1058	2370.553512431872	3.274364267653
3	1061	2387.576979513526	0
3	1070	2404.490953480994	14.039869206768
3	1071	2405.660512009415	14.165306526677
3	1072	2408.751888989964	9.595446452474
3	1075	2417.633268063567	14.719437102009
3	1076	2417.88607401124	7.973990970432
3	1079	2429.547223056338	5.285087594948
3	1082	2439.136188950537	4.703690761592
3	1085	2457.905839991901	0
3	1091	2469.699669328347	0
3	1100	2487.901286345626	9.323002912912
3	1103	2491.497376120721	0
4	168	353.047804477737	34
4	171	360.689443447252	35
4	183	402.410785998113	36
4	186	403.915313351844	37
4	195	422.650635445767	38
4	198	426.178265963977	39
4	207	456.329592477094	40
4	215	492.001379186385	41
4	224	521.667925580533	42
4	231	538.919061016963	43
4	235	543.627400436685	44
4	236	544.114366632309	45
4	237	549.572746033609	46
4	240	557.142864837198	47
4	264	607.107222918207	48
4	265	617.120375303586	49
4	277	639.051984439873	50
4	278	639.496382082829	51
4	281	648.344514135938	52
4	282	652.220997744396	53
4	287	661.676336937137	54
4	290	661.875526332914	55
4	291	663.470014075323	56
4	292	664.400640520115	57
4	293	664.705993610931	58
4	300	675.230508534082	59
4	301	680.78182868875	60
4	302	681.299455449528	61
4	303	685.79497085659	62
4	306	690.991700328848	63
4	312	707.179846853486	64
4	360	756.917557805691	65
4	363	758.017992029271	66
4	369	771.345879164354	67
4	370	773.241326536381	68
4	371	773.591729440855	69
4	372	774.35818546264	70
4	378	794.286437826799	71
4	393	821.870993410821	72
4	396	826.061279893814	73
4	397	828.721005666091	74
4	400	834.542684050333	75
4	401	834.63497194033	76
4	414	855.399559376206	77
4	446	929.282453268596	78
4	474	984.42642081852	79
4	475	988.420888192219	80
4	476	990.193526579083	81
4	477	991.839131144391	82
4	480	994.79329815792	83
4	486	1000.776561873577	84
4	496	1013.898513813044	85
4	497	1014.279487028337	86
4	498	1015.223804864813	87
4	501	1018.193876669735	88
4	502	1021.361089459184	89
4	508	1036.162879633546	90
4	509	1039.955114548235	91
4	513	1053.933125390537	92
4	514	1055.62993483012	93
4	515	1056.266207490037	94
4	519	1064.993846557907	95
4	520	1068.713937620709	96
4	521	1068.811722395988	97
4	522	1069.248359559602	98
4	525	1081.755284424271	99
4	526	1087.434294029893	100
4	530	1101.075565404599	101
4	531	1101.197111317272	102
4	536	1103.526442573004	103
4	537	1104.715369373996	104
4	538	1112.46379277805	105
4	543	1124.528493068634	106
4	544	1126.07163711034	107
4	547	1127.847375599031	108
4	550	1131.229545341719	109
4	551	1135.619574593237	110
4	552	1135.893770061859	111
4	555	1185.872832706225	112
4	563	1201.104246096177	113
4	584	1223.632224965292	114
4	585	1224.425612857084	115
4	599	1243.024113907035	116
4	600	1244.536258489395	117
4	601	1250.552096824731	118
4	602	1251.865518642626	119
4	603	1252.40530712771	120
4	606	1255.720144926296	121
4	607	1259.53207919103	122
4	608	1262.204734357951	123
4	618	1283.622314471838	124
4	623	1287.019123590295	125
4	624	1289.692830846393	126
4	625	1291.831322951294	127
4	626	1295.720498428797	128
4	627	1295.976719953212	129
4	632	1323.18613302719	130
4	633	1327.024370498971	131
4	636	1331.629815590414	132
4	646	1354.051267776275	133
4	647	1354.805185253508	134
4	653	1364.213146991745	135
4	662	1386.156766908893	136
4	667	1400.62217230351	137
4	668	1400.773444528743	138
4	669	1405.189598919351	139
4	675	1436.386051971157	140
4	678	1474.829076633159	141
4	681	1488.087526536281	142
4	684	1491.2591279058	143
4	687	1500.616366502207	144
4	701	1537.18927635625	145
4	704	1548.323690786068	146
4	726	1583.195063000842	147
4	727	1585.729868785615	148
4	728	1589.595419101723	149
4	729	1590.499158243815	150
4	730	1591.728658327654	151
4	731	1597.010718395509	152
4	744	1621.766643436032	153
4	754	1638.553180857706	154
4	757	1642.784772450469	155
4	760	1646.866006805938	156
4	764	1659.460903924461	157
4	772	1677.011075908567	158
4	776	1684.050315783507	159
4	777	1685.318917509004	160
4	781	1694.581343299683	161
4	788	1702.327662109489	162
4	789	1707.091154982824	163
4	790	1712.308217047669	164
4	793	1719.258573214545	165
4	796	1721.442880686966	166
4	797	1723.588328122421	167
4	800	1730.791723049809	168
4	801	1732.364782920077	169
4	809	1754.33350054803	170
4	812	1765.644855023237	171
4	815	1772.632407161051	172
4	816	1775.426285780526	173
4	827	1813.957880986499	174
4	830	1820.514927629134	175
4	831	1820.573616697725	176
4	842	1844.29184677962	177
4	843	1846.949711111837	178
4	848	1858.697692159903	179
4	849	1859.080974456994	180
4	854	1861.535819466845	181
4	855	1869.266996052948	182
4	858	1886.956729343301	183
4	864	1890.93477951106	184
4	867	1894.903852820736	185
4	873	1906.513656909283	186
4	876	1919.250979343528	187
4	892	1960.441730579175	188
4	893	1963.064129373414	189
4	898	1965.452722259773	190
4	901	1966.805385276982	191
4	907	1984.266313531222	192
4	930	2011.182388899791	193
4	931	2011.196761160031	194
4	934	2016.425787198183	195
4	935	2023.834071063185	196
4	938	2028.634564729719	197
4	939	2029.464423397271	198
4	943	2034.978932816797	199
4	957	2065.26529978308	200
4	958	2065.31054384698	201
4	959	2067.017145743413	202
4	960	2067.889888350225	203
4	963	2078.74513346339	204
4	968	2084.918024200534	205
4	969	2086.552384523133	206
4	970	2088.762535407717	207
4	971	2091.942975758432	208
4	979	2108.180783386475	209
4	982	2115.412971003576	210
4	985	2120.295299830884	211
4	986	2123.445154190173	212
4	987	2123.524892853265	213
4	990	2143.681548724262	214
4	997	2163.863303921993	215
4	998	2172.773119656732	216
4	999	2178.643521971681	217
4	1002	2189.5401785145	218
4	1014	2245.670728674273	219
4	1015	2246.034020301455	220
4	1016	2246.979787571068	221
4	1017	2250.17758307044	222
4	1023	2262.861442625765	223
4	1026	2303.295314544997	224
4	1038	2330.326233010908	225
4	1042	2338.659384433754	226
4	1043	2341.780396721866	227
4	1044	2343.00920422538	228
4	1047	2345.013148073622	229
4	1050	2351.288158153766	230
4	1053	2362.071109705788	231
4	1059	2373.105248891388	232
4	1071	2405.660512009415	233
4	1072	2408.751888989964	234
4	1076	2417.88607401124	235
4	1079	2429.547223056338	236
4	1083	2440.466643863176	237
4	1086	2461.563844435783	238
4	1092	2470.363162096394	239
4	1101	2488.846678150801	240
4	1104	2491.59777812354	241
5	168	353.047804477737	0
5	170	356.599406890352	0
5	171	360.689443447252	0
5	178	388.101106177111	0
5	183	402.410785998113	0
5	185	403.158948763485	0
5	186	403.915313351844	0
5	188	404.671257300135	0
5	195	422.650635445767	0
5	197	425.074399879554	0
5	198	426.178265963977	0
5	205	445.483322038671	0
5	207	456.329592477094	0
5	212	483.935540730089	0
5	214	490.35263245687	1
5	215	492.001379186385	1
5	222	506.405028027485	1
5	224	521.667925580533	1
5	226	522.545048776411	1
5	228	528.734343372678	2
5	230	536.083987584576	3
5	231	538.919061016963	3
5	235	543.627400436685	2
5	236	544.114366632309	1
5	237	549.572746033609	0
5	239	551.249347324478	0
5	240	557.142864837198	0
5	244	562.60873674158	0
5	246	563.867480835961	1
5	251	576.619757858197	2
5	256	586.834076601689	3
5	258	595.55728855211	4
5	260	597.10458535711	5
5	262	604.812931941783	6
5	264	607.107222918207	6
5	265	617.120375303586	5
5	276	633.757136721654	5
5	277	639.051984439873	5
5	278	639.496382082829	4
5	280	647.970783522591	4
5	281	648.344514135938	4
5	282	652.220997744396	3
5	284	655.34905644015	3
5	286	656.468518046476	4
5	287	661.676336937137	4
5	289	661.824175248755	4
5	290	661.875526332914	4
5	291	663.470014075323	3
5	292	664.400640520115	2
5	293	664.705993610931	1
5	295	668.241122269066	1
5	297	671.313925790591	2
5	299	673.375958610896	3
5	300	675.230508534082	3
5	301	680.78182868875	2
5	302	681.299455449528	1
5	303	685.79497085659	0
5	305	688.258506868413	0
5	306	690.991700328848	0
5	311	701.611408714652	0
5	312	707.179846853486	0
5	314	707.702232946483	0
5	318	710.142717853848	1
5	326	718.54606490997	2
5	328	719.998845182892	3
5	330	720.188530874903	4
5	334	724.10623898167	5
5	338	733.720048372328	6
5	342	735.341413266788	7
5	353	744.811380038538	8
5	357	747.325799359286	9
5	360	756.917557805691	9
5	362	756.921279132968	9
5	363	758.017992029271	9
5	367	761.806849626048	9
5	369	771.345879164354	9
5	370	773.241326536381	8
5	371	773.591729440855	7
5	372	774.35818546264	6
5	377	790.585999838825	6
5	378	794.286437826799	6
5	392	813.875133580967	6
5	393	821.870993410821	6
5	395	825.326523127968	6
5	396	826.061279893814	6
5	397	828.721005666091	5
5	399	831.303983896152	5
5	400	834.542684050333	5
5	401	834.63497194033	4
5	403	835.759168846664	4
5	409	845.254114681631	5
5	411	850.999438749043	6
5	414	855.399559376206	6
5	423	874.262949365986	6
5	427	886.224027360557	7
5	431	887.269639618309	8
5	433	887.890792522973	9
5	444	922.892929367519	10
5	446	929.282453268596	10
5	450	933.882054043028	10
5	452	944.470395357904	11
5	457	955.576369814776	12
5	459	957.450630474955	13
5	461	959.812697535782	14
5	464	964.246737821988	15
5	468	965.627024706273	16
5	471	979.517451604183	17
5	473	983.30707124701	18
5	474	984.42642081852	18
5	475	988.420888192219	17
5	476	990.193526579083	16
5	477	991.839131144391	15
5	479	992.667686844724	15
5	480	994.79329815792	15
5	484	997.18870744697	15
5	486	1000.776561873577	15
5	488	1001.119833020011	15
5	490	1009.564110955288	16
5	492	1009.955942519419	17
5	496	1013.898513813044	17
5	497	1014.279487028337	16
5	498	1015.223804864813	15
5	500	1015.729185627484	15
5	501	1018.193876669735	15
5	502	1021.361089459184	14
5	504	1025.78789567915	14
5	508	1036.162879633546	14
5	509	1039.955114548235	13
5	513	1053.933125390537	12
5	514	1055.62993483012	11
5	515	1056.266207490037	10
5	519	1064.993846557907	9
5	520	1068.713937620709	8
5	521	1068.811722395988	7
5	522	1069.248359559602	6
5	524	1070.332864140911	6
5	525	1081.755284424271	6
5	526	1087.434294029893	5
5	530	1101.075565404599	4
5	531	1101.197111317272	3
5	533	1102.262330561447	3
5	535	1103.338681643008	4
5	536	1103.526442573004	4
5	537	1104.715369373996	3
5	538	1112.46379277805	2
5	540	1113.91694577653	2
5	542	1116.259960964286	3
5	543	1124.528493068634	3
5	544	1126.07163711034	2
5	546	1126.340153418487	2
5	547	1127.847375599031	2
5	549	1128.099288872743	2
5	550	1131.229545341719	2
5	551	1135.619574593237	1
5	552	1135.893770061859	0
5	554	1181.700292375175	0
5	555	1185.872832706225	0
5	559	1192.287719526116	0
5	562	1201.006878062373	1
5	563	1201.104246096177	1
5	567	1203.927683395045	1
5	572	1209.278330165878	2
5	578	1215.55774597579	3
5	583	1221.995555991815	4
5	584	1223.632224965292	4
5	585	1224.425612857084	3
5	587	1224.798326076605	3
5	589	1234.566966817312	4
5	591	1236.298241378774	5
5	596	1240.423253677999	6
5	598	1241.592807775924	7
5	599	1243.024113907035	7
5	600	1244.536258489395	6
5	601	1250.552096824731	5
5	602	1251.865518642626	4
5	603	1252.40530712771	3
5	605	1252.824490791257	3
5	606	1255.720144926296	3
5	607	1259.53207919103	2
5	608	1262.204734357951	1
5	610	1263.505212762752	1
5	612	1267.320771196494	2
5	614	1268.807893889015	3
5	618	1283.622314471838	3
5	620	1283.87424722174	3
5	622	1286.063053186813	4
5	623	1287.019123590295	4
5	624	1289.692830846393	3
5	625	1291.831322951294	2
5	626	1295.720498428797	1
5	627	1295.976719953212	0
5	629	1315.934952105333	0
5	631	1320.535091682736	1
5	632	1323.18613302719	1
5	633	1327.024370498971	0
5	635	1331.397785491519	0
5	636	1331.629815590414	0
5	641	1348.601102068685	0
5	643	1348.737747852994	1
5	645	1349.759196668243	2
5	646	1354.051267776275	2
5	647	1354.805185253508	1
5	651	1359.510216009806	1
5	653	1364.213146991745	1
5	660	1377.70840520265	1
5	662	1386.156766908893	1
5	664	1388.906548860189	1
5	666	1389.916896613279	2
5	667	1400.62217230351	2
5	668	1400.773444528743	1
5	669	1405.189598919351	0
5	674	1425.652780336723	0
5	675	1436.386051971157	0
5	677	1463.143094932568	0
5	678	1474.829076633159	0
5	680	1484.19630794049	0
5	681	1488.087526536281	0
5	683	1490.519673904448	0
5	684	1491.2591279058	0
5	686	1497.64550983778	0
5	687	1500.616366502207	0
5	697	1535.26478268282	0
5	699	1535.838051947058	1
5	701	1537.18927635625	1
5	703	1545.122836916072	1
5	704	1548.323690786068	1
5	706	1551.122305782482	1
5	713	1564.564758504005	2
5	715	1564.766659785467	3
5	718	1565.16642277605	4
5	722	1570.99520666472	5
5	724	1574.319309074357	6
5	726	1583.195063000842	6
5	727	1585.729868785615	5
5	728	1589.595419101723	4
5	729	1590.499158243815	3
5	730	1591.728658327654	2
5	731	1597.010718395509	1
5	736	1613.23501030281	1
5	740	1614.515577955922	2
5	742	1618.96977257512	3
5	744	1621.766643436032	3
5	748	1622.481533468933	3
5	750	1629.037996312569	4
5	752	1630.301882676822	5
5	754	1638.553180857706	5
5	756	1641.970617942308	5
5	757	1642.784772450469	5
5	759	1645.797627430926	5
5	760	1646.866006805938	5
5	764	1659.460903924461	4
5	768	1667.039999400943	4
5	770	1672.388843158512	5
5	772	1677.011075908567	5
5	776	1684.050315783507	4
5	777	1685.318917509004	3
5	781	1694.581343299683	2
5	783	1697.427960989364	2
5	785	1698.090935004186	3
5	787	1700.534889485004	4
5	788	1702.327662109489	4
5	789	1707.091154982824	3
5	790	1712.308217047669	2
5	792	1712.326784755656	2
5	793	1719.258573214545	2
5	795	1720.655219916318	2
5	796	1721.442880686966	2
5	797	1723.588328122421	1
5	799	1729.016195236021	1
5	800	1730.791723049809	1
5	801	1732.364782920077	0
5	805	1749.048600461093	0
5	808	1752.132748862071	1
5	809	1754.33350054803	1
5	811	1759.245228234243	1
5	812	1765.644855023237	1
5	814	1766.652817738713	1
5	815	1772.632407161051	1
5	816	1775.426285780526	0
5	821	1791.508641308481	0
5	823	1792.495144392664	1
5	827	1813.957880986499	1
5	829	1817.898189472251	1
5	830	1820.514927629134	1
5	831	1820.573616697725	0
5	833	1826.477145882993	0
5	835	1827.344850706389	1
5	842	1844.29184677962	1
5	843	1846.949711111837	0
5	845	1853.837409993153	0
5	847	1857.090814148443	1
5	848	1858.697692159903	1
5	849	1859.080974456994	0
5	851	1860.926416289429	0
5	853	1861.02042379607	1
5	854	1861.535819466845	1
5	855	1869.266996052948	0
5	857	1872.028882896978	0
5	858	1886.956729343301	0
5	862	1890.502159406996	0
5	864	1890.93477951106	0
5	866	1891.915466542604	0
5	867	1894.903852820736	0
5	871	1902.333273084399	0
5	873	1906.513656909283	0
5	875	1914.932611185489	0
5	876	1919.250979343528	0
5	878	1933.34543590036	0
5	882	1936.761977570621	1
5	884	1939.837154808245	2
5	886	1941.860659193917	3
5	889	1946.932660426483	4
5	891	1955.763950846076	5
5	892	1960.441730579175	5
5	893	1963.064129373414	4
5	895	1963.81192484409	4
5	897	1964.015049432046	5
5	898	1965.452722259773	5
5	900	1965.817571951894	5
5	901	1966.805385276982	5
5	906	1983.474982676025	5
5	907	1984.266313531222	5
5	911	1988.09229163647	5
5	913	1988.139357041393	6
5	915	1989.722772103698	7
5	920	2001.049113523423	8
5	929	2009.479943844907	9
5	930	2011.182388899791	9
5	931	2011.196761160031	8
5	933	2012.627160453453	8
5	934	2016.425787198183	8
5	935	2023.834071063185	7
5	937	2024.792246987819	7
5	938	2028.634564729719	7
5	939	2029.464423397271	6
5	943	2034.978932816797	5
5	947	2038.079825725322	5
5	949	2041.483293107674	6
5	957	2065.26529978308	6
5	958	2065.31054384698	5
5	959	2067.017145743413	4
5	960	2067.889888350225	3
5	962	2074.234724884822	3
5	963	2078.74513346339	3
5	965	2079.913766419625	3
5	967	2082.773976144706	4
5	968	2084.918024200534	4
5	969	2086.552384523133	3
5	970	2088.762535407717	2
5	971	2091.942975758432	1
5	976	2096.88422023765	1
5	978	2105.46814991594	2
5	979	2108.180783386475	2
5	981	2110.511587981818	2
5	982	2115.412971003576	2
5	984	2119.477496689677	2
5	985	2120.295299830884	2
5	986	2123.445154190173	1
5	987	2123.524892853265	0
5	989	2142.114832448286	0
5	990	2143.681548724262	0
5	992	2150.60704056393	0
5	994	2160.793627864118	1
5	996	2163.317827793029	2
5	997	2163.863303921993	2
5	998	2172.773119656732	1
5	999	2178.643521971681	0
5	1001	2185.53289677777	0
5	1002	2189.5401785145	0
5	1007	2216.055713346613	0
5	1009	2227.451792981942	1
5	1011	2233.378033256464	2
5	1013	2239.341827199759	3
5	1014	2245.670728674273	3
5	1015	2246.034020301455	2
5	1016	2246.979787571068	1
5	1017	2250.17758307044	0
5	1021	2258.076425998331	0
5	1023	2262.861442625765	0
5	1025	2296.506491830768	0
5	1026	2303.295314544997	0
5	1028	2308.528877503233	0
5	1030	2309.764143976854	1
5	1032	2313.294345309596	2
5	1036	2327.862530895238	3
5	1038	2330.326233010908	3
5	1042	2338.659384433754	2
5	1043	2341.780396721866	1
5	1044	2343.00920422538	0
5	1046	2344.671752940697	0
5	1047	2345.013148073622	0
5	1049	2349.978977906862	0
5	1050	2351.288158153766	0
5	1052	2355.029165384409	0
5	1053	2362.071109705788	0
5	1055	2366.281985552846	0
5	1059	2373.105248891388	0
5	1061	2387.576979513526	0
5	1063	2390.451084274226	1
5	1067	2399.15644253749	2
5	1069	2402.913830961558	3
5	1071	2405.660512009415	3
5	1072	2408.751888989964	2
5	1076	2417.88607401124	1
5	1078	2424.26213546139	1
5	1079	2429.547223056338	1
5	1083	2440.466643863176	0
5	1085	2457.905839991901	0
5	1086	2461.563844435783	0
5	1091	2469.699669328347	0
5	1092	2470.363162096394	0
5	1096	2478.578283432714	0
5	1101	2488.846678150801	0
5	1103	2491.497376120721	0
5	1104	2491.59777812354	0
6	168	353.047804477737	3.053440456879
6	171	360.689443447252	4.0900365569
6	183	402.410785998113	14.309679821002
6	186	403.915313351844	0.756364588359
6	195	422.650635445767	3.503725344056
6	198	426.178265963977	1.103866084423
6	207	456.329592477094	10.846270438423
6	215	492.001379186385	8.065838456296
6	224	521.667925580533	24.551776393312
6	231	538.919061016963	32.514032989478
6	235	543.627400436685	14.893057064007
6	236	544.114366632309	8.030379047733
6	237	549.572746033609	7.995457622053
6	240	557.142864837198	5.89351751272
6	264	607.107222918207	36.093902252502
6	265	617.120375303586	40.500617445389
6	277	639.051984439873	43.494695887763
6	278	639.496382082829	42.391796725719
6	281	648.344514135938	43.531582194155
6	282	652.220997744396	33.256966839751
6	287	661.676336937137	38.816698125767
6	290	661.875526332914	28.11838961126
6	291	663.470014075323	15.499230552732
6	292	664.400640520115	9.051584079965
6	293	664.705993610931	8.237475564455
6	300	675.230508534082	13.406333285327
6	301	680.78182868875	12.540706419684
6	302	681.299455449528	9.985529658937
6	303	685.79497085659	12.419012245694
6	306	690.991700328848	2.733193460435
6	312	707.179846853486	5.568438138834
6	360	756.917557805691	38.371492895721
6	363	758.017992029271	38.019146846379
6	369	771.345879164354	47.239640182684
6	370	773.241326536381	39.521278164053
6	371	773.591729440855	38.74542191683
6	372	774.35818546264	39.016772195852
6	378	794.286437826799	49.475057788261
6	393	821.870993410821	64.949714277853
6	396	826.061279893814	66.347291392941
6	397	828.721005666091	66.914156040043
6	400	834.542684050333	56.664957016669
6	401	834.63497194033	44.048972101505
6	414	855.399559376206	41.524425795239
6	446	929.282453268596	97.978469372444
6	474	984.42642081852	133.42698206948
6	475	988.420888192219	130.08143730293
6	476	990.193526579083	115.9305772131
6	477	991.839131144391	105.61510378383
6	480	994.79329815792	107.52365853961
6	486	1000.776561873577	77.883632506058
6	496	1013.898513813044	80.016459770016
6	497	1014.279487028337	69.809091670433
6	498	1015.223804864813	63.973556453968
6	501	1018.193876669735	62.617506854959
6	502	1021.361089459184	63.910458984229
6	508	1036.162879633546	71.916141811558
6	509	1039.955114548235	75.507916444249
6	513	1053.933125390537	74.415673786354
6	514	1055.62993483012	72.32286358311
6	515	1056.266207490037	63.598520645313
6	519	1064.993846557907	67.805139110937
6	520	1068.713937620709	67.594104600698
6	521	1068.811722395988	59.2476114407
6	522	1069.248359559602	59.292417040183
6	525	1081.755284424271	71.725166967325
6	526	1087.434294029893	71.705108402409
6	530	1101.075565404599	69.28833324866
6	531	1101.197111317272	59.625574424142
6	536	1103.526442573004	42.966759342831
6	537	1104.715369373996	34.382505233085
6	538	1112.46379277805	20.341695178608
6	543	1124.528493068634	22.266162507187
6	544	1126.07163711034	22.732955467332
6	547	1127.847375599031	13.930429822501
6	550	1131.229545341719	14.969584377433
6	551	1135.619574593237	9.27942117475
6	552	1135.893770061859	7.794481189116
6	555	1185.872832706225	4.17254033105
6	563	1201.104246096177	8.816526570061
6	584	1223.632224965292	20.275523476797
6	585	1224.425612857084	20.497929462039
6	599	1243.024113907035	27.466367931245
6	600	1244.536258489395	22.54070249758
6	601	1250.552096824731	25.753770748126
6	602	1251.865518642626	17.298551825314
6	603	1252.40530712771	16.107065748936
6	606	1255.720144926296	18.930297769956
6	607	1259.53207919103	19.108825513031
6	608	1262.204734357951	20.611926582027
6	618	1283.622314471838	20.117101709086
6	623	1287.019123590295	19.698352393801
6	624	1289.692830846393	20.884936957378
6	625	1291.831322951294	16.792602146997
6	626	1295.720498428797	11.846251207057
6	627	1295.976719953212	9.913666766399
6	632	1323.18613302719	7.251180921857
6	633	1327.024370498971	6.489278816235
6	636	1331.629815590414	0.232030098895
6	646	1354.051267776275	5.45016570759
6	647	1354.805185253508	6.067437400514
6	653	1364.213146991745	8.133519758272
6	662	1386.156766908893	11.314514150443
6	667	1400.62217230351	22.91376710086
6	668	1400.773444528743	11.866895668554
6	669	1405.189598919351	15.272702306072
6	675	1436.386051971157	10.733271634434
6	678	1474.829076633159	11.685981700591
6	681	1488.087526536281	3.891218595791
6	684	1491.2591279058	0.739454001352
6	687	1500.616366502207	2.970856664427
6	701	1537.18927635625	1.92449367343
6	704	1548.323690786068	12.48563883901
6	726	1583.195063000842	25.612212456295
6	727	1585.729868785615	21.16511028161
6	728	1589.595419101723	24.828759316256
6	729	1590.499158243815	25.332735467765
6	730	1591.728658327654	22.989351109501
6	731	1597.010718395509	26.015511730789
6	744	1621.766643436032	8.531633133222
6	754	1638.553180857706	24.037602901784
6	757	1642.784772450469	23.814999875349
6	760	1646.866006805938	24.789095237459
6	764	1659.460903924461	30.422907611892
6	772	1677.011075908567	35.040457966259
6	776	1684.050315783507	32.001229746952
6	777	1685.318917509004	20.653516172553
6	781	1694.581343299683	22.192500141171
6	788	1702.327662109489	22.321900319243
6	789	1707.091154982824	20.676514517567
6	790	1712.308217047669	14.880256058305
6	793	1719.258573214545	21.167638210359
6	796	1721.442880686966	20.907991201962
6	797	1723.588328122421	11.261543366765
6	800	1730.791723049809	10.136503133491
6	801	1732.364782920077	3.348587684056
6	809	1754.33350054803	5.284900086937
6	812	1765.644855023237	13.512106161166
6	815	1772.632407161051	13.387178926808
6	816	1775.426285780526	8.773468041813
6	827	1813.957880986499	21.462736593835
6	830	1820.514927629134	24.905790804489
6	831	1820.573616697725	2.675427225474
6	842	1844.29184677962	16.946996073231
6	843	1846.949711111837	17.685513103506
6	848	1858.697692159903	4.86028216675
6	849	1859.080974456994	1.990160308551
6	854	1861.535819466845	0.609403177416
6	855	1869.266996052948	8.246572256878
6	858	1886.956729343301	14.927846446323
6	864	1890.93477951106	0.432620104064
6	867	1894.903852820736	2.988386278132
6	873	1906.513656909283	4.180383824884
6	876	1919.250979343528	4.318368158039
6	892	1960.441730579175	26.555256881034
6	893	1963.064129373414	26.302151802793
6	898	1965.452722259773	25.615567451528
6	901	1966.805385276982	24.944726083065
6	907	1984.266313531222	28.502362685146
6	930	2011.182388899791	39.239792522428
6	931	2011.196761160031	27.721778484006
6	934	2016.425787198183	30.005325255706
6	935	2023.834071063185	35.741779426715
6	938	2028.634564729719	40.495207688326
6	939	2029.464423397271	39.741651293573
6	943	2034.978932816797	33.929819293374
6	957	2065.26529978308	52.638139329627
6	958	2065.31054384698	40.518296859161
6	959	2067.017145743413	37.165280603999
6	960	2067.889888350225	32.359514144454
6	963	2078.74513346339	40.665307738068
6	968	2084.918024200534	43.43473109286
6	969	2086.552384523133	39.725602198631
6	970	2088.762535407717	14.527810522895
6	971	2091.942975758432	12.029209338807
6	979	2108.180783386475	16.124462269356
6	982	2115.412971003576	18.528750765926
6	985	2120.295299830884	14.827149914944
6	986	2123.445154190173	12.933566208355
6	987	2123.524892853265	4.047396163588
6	990	2143.681548724262	1.566716275976
6	997	2163.863303921993	13.256263358063
6	998	2172.773119656732	11.979491792614
6	999	2178.643521971681	15.325694178652
6	1002	2189.5401785145	4.00728173673
6	1014	2245.670728674273	29.61501532766
6	1015	2246.034020301455	18.582227319513
6	1016	2246.979787571068	13.601754314604
6	1017	2250.17758307044	10.835755870681
6	1023	2262.861442625765	4.785016627434
6	1026	2303.295314544997	6.788822714229
6	1038	2330.326233010908	20.562089034054
6	1042	2338.659384433754	17.578644294019
6	1043	2341.780396721866	13.917865826628
6	1044	2343.00920422538	7.944666066337
6	1047	2345.013148073622	0.341395132925
6	1050	2351.288158153766	1.309180246904
6	1053	2362.071109705788	7.041944321379
6	1059	2373.105248891388	5.826100727169
6	1071	2405.660512009415	15.209427735189
6	1072	2408.751888989964	17.256683507226
6	1076	2417.88607401124	14.972243049682
6	1079	2429.547223056338	19.63514001553
6	1083	2440.466643863176	6.034145674231
6	1086	2461.563844435783	3.658004443882
6	1092	2470.363162096394	0.663492768047
6	1101	2488.846678150801	10.268394718087
6	1104	2491.59777812354	0.100402002819
7	170	356.599406890352	1
7	178	388.101106177111	1
7	185	403.158948763485	1
7	188	404.671257300135	1
7	197	425.074399879554	1
7	205	445.483322038671	1
7	212	483.935540730089	1
7	214	490.35263245687	2
7	222	506.405028027485	2
7	226	522.545048776411	2
7	228	528.734343372678	3
7	230	536.083987584576	4
7	239	551.249347324478	1
7	244	562.60873674158	1
7	246	563.867480835961	2
7	251	576.619757858197	3
7	256	586.834076601689	4
7	258	595.55728855211	5
7	260	597.10458535711	6
7	262	604.812931941783	7
7	276	633.757136721654	6
7	280	647.970783522591	5
7	284	655.34905644015	4
7	286	656.468518046476	5
7	289	661.824175248755	5
7	295	668.241122269066	2
7	297	671.313925790591	3
7	299	673.375958610896	4
7	305	688.258506868413	1
7	311	701.611408714652	1
7	314	707.702232946483	1
7	318	710.142717853848	2
7	326	718.54606490997	3
7	328	719.998845182892	4
7	330	720.188530874903	5
7	334	724.10623898167	6
7	338	733.720048372328	7
7	342	735.341413266788	8
7	353	744.811380038538	9
7	357	747.325799359286	10
7	362	756.921279132968	10
7	367	761.806849626048	10
7	377	790.585999838825	7
7	392	813.875133580967	7
7	395	825.326523127968	7
7	399	831.303983896152	6
7	403	835.759168846664	5
7	409	845.254114681631	6
7	411	850.999438749043	7
7	423	874.262949365986	7
7	427	886.224027360557	8
7	431	887.269639618309	9
7	433	887.890792522973	10
7	444	922.892929367519	11
7	450	933.882054043028	11
7	452	944.470395357904	12
7	457	955.576369814776	13
7	459	957.450630474955	14
7	461	959.812697535782	15
7	464	964.246737821988	16
7	468	965.627024706273	17
7	471	979.517451604183	18
7	473	983.30707124701	19
7	479	992.667686844724	16
7	484	997.18870744697	16
7	488	1001.119833020011	16
7	490	1009.564110955288	17
7	492	1009.955942519419	18
7	500	1015.729185627484	16
7	504	1025.78789567915	15
7	524	1070.332864140911	7
7	533	1102.262330561447	4
7	535	1103.338681643008	5
7	540	1113.91694577653	3
7	542	1116.259960964286	4
7	546	1126.340153418487	3
7	549	1128.099288872743	3
7	554	1181.700292375175	1
7	559	1192.287719526116	1
7	562	1201.006878062373	2
7	567	1203.927683395045	2
7	572	1209.278330165878	3
7	578	1215.55774597579	4
7	583	1221.995555991815	5
7	587	1224.798326076605	4
7	589	1234.566966817312	5
7	591	1236.298241378774	6
7	596	1240.423253677999	7
7	598	1241.592807775924	8
7	605	1252.824490791257	4
7	610	1263.505212762752	2
7	612	1267.320771196494	3
7	614	1268.807893889015	4
7	620	1283.87424722174	4
7	622	1286.063053186813	5
7	629	1315.934952105333	1
7	631	1320.535091682736	2
7	635	1331.397785491519	1
7	641	1348.601102068685	1
7	643	1348.737747852994	2
7	645	1349.759196668243	3
7	651	1359.510216009806	2
7	660	1377.70840520265	2
7	664	1388.906548860189	2
7	666	1389.916896613279	3
7	674	1425.652780336723	1
7	677	1463.143094932568	1
7	680	1484.19630794049	1
7	683	1490.519673904448	1
7	686	1497.64550983778	1
7	697	1535.26478268282	1
7	699	1535.838051947058	2
7	703	1545.122836916072	2
7	706	1551.122305782482	2
7	713	1564.564758504005	3
7	715	1564.766659785467	4
7	718	1565.16642277605	5
7	722	1570.99520666472	6
7	724	1574.319309074357	7
7	736	1613.23501030281	2
7	740	1614.515577955922	3
7	742	1618.96977257512	4
7	748	1622.481533468933	4
7	750	1629.037996312569	5
7	752	1630.301882676822	6
7	756	1641.970617942308	6
7	759	1645.797627430926	6
7	768	1667.039999400943	5
7	770	1672.388843158512	6
7	783	1697.427960989364	3
7	785	1698.090935004186	4
7	787	1700.534889485004	5
7	792	1712.326784755656	3
7	795	1720.655219916318	3
7	799	1729.016195236021	2
7	805	1749.048600461093	1
7	808	1752.132748862071	2
7	811	1759.245228234243	2
7	814	1766.652817738713	2
7	821	1791.508641308481	1
7	823	1792.495144392664	2
7	829	1817.898189472251	2
7	833	1826.477145882993	1
7	835	1827.344850706389	2
7	845	1853.837409993153	1
7	847	1857.090814148443	2
7	851	1860.926416289429	1
7	853	1861.02042379607	2
7	857	1872.028882896978	1
7	862	1890.502159406996	1
7	866	1891.915466542604	1
7	871	1902.333273084399	1
7	875	1914.932611185489	1
7	878	1933.34543590036	1
7	882	1936.761977570621	2
7	884	1939.837154808245	3
7	886	1941.860659193917	4
7	889	1946.932660426483	5
7	891	1955.763950846076	6
7	895	1963.81192484409	5
7	897	1964.015049432046	6
7	900	1965.817571951894	6
7	906	1983.474982676025	6
7	911	1988.09229163647	6
7	913	1988.139357041393	7
7	915	1989.722772103698	8
7	920	2001.049113523423	9
7	929	2009.479943844907	10
7	933	2012.627160453453	9
7	937	2024.792246987819	8
7	947	2038.079825725322	6
7	949	2041.483293107674	7
7	962	2074.234724884822	4
7	965	2079.913766419625	4
7	967	2082.773976144706	5
7	976	2096.88422023765	2
7	978	2105.46814991594	3
7	981	2110.511587981818	3
7	984	2119.477496689677	3
7	989	2142.114832448286	1
7	992	2150.60704056393	1
7	994	2160.793627864118	2
7	996	2163.317827793029	3
7	1001	2185.53289677777	1
7	1007	2216.055713346613	1
7	1009	2227.451792981942	2
7	1011	2233.378033256464	3
7	1013	2239.341827199759	4
7	1021	2258.076425998331	1
7	1025	2296.506491830768	1
7	1028	2308.528877503233	1
7	1030	2309.764143976854	2
7	1032	2313.294345309596	3
7	1036	2327.862530895238	4
7	1046	2344.671752940697	1
7	1049	2349.978977906862	1
7	1052	2355.029165384409	1
7	1055	2366.281985552846	1
7	1061	2387.576979513526	1
7	1063	2390.451084274226	2
7	1067	2399.15644253749	3
7	1069	2402.913830961558	4
7	1078	2424.26213546139	2
7	1085	2457.905839991901	1
7	1091	2469.699669328347	1
7	1096	2478.578283432714	1
7	1103	2491.497376120721	1
8	173	365.058342191057	1
8	176	388.037052425803	1
8	180	390.927857908176	2
8	190	404.73333087535	1
8	193	419.146910101711	1
8	200	436.823234710174	1
8	203	440.900837049397	1
8	209	466.342603331937	1
8	217	497.116149187221	1
8	219	503.09769978815	2
8	233	541.577288411556	1
8	242	557.379584999622	1
8	249	571.013320665705	1
8	254	581.474923170251	1
8	267	618.964030904645	1
8	270	622.85963881137	1
8	272	624.51956532149	2
8	308	694.407150928009	1
8	316	708.481046712107	1
8	321	715.529536791828	1
8	323	716.879841144914	2
8	332	723.6697040014	2
8	340	734.846307524025	1
8	344	737.31664614593	2
8	347	739.346914019748	2
8	351	743.358100075954	1
8	355	746.078159748484	2
8	365	759.713988500873	1
8	374	777.877727033664	1
8	380	794.561121372008	1
8	382	799.685099640979	2
8	384	804.701437837468	3
8	387	806.963595367265	3
8	405	836.140137449287	1
8	407	841.117217619398	2
8	416	858.339450889291	1
8	418	866.949764860109	2
8	421	870.623974825057	2
8	425	883.238222931355	3
8	435	892.398818790866	2
8	437	896.905318042219	3
8	439	909.552892526914	4
8	448	930.008526162325	1
8	455	951.250248410845	1
8	466	964.447198103986	1
8	482	995.956600520193	1
8	494	1010.030117456946	1
8	506	1031.787232155939	1
8	511	1041.57153689313	1
8	517	1060.559683230173	1
8	528	1092.122097599442	1
8	557	1186.006490948789	1
8	565	1203.356701488495	1
8	569	1205.901663236199	2
8	574	1209.443534644607	2
8	576	1212.660171838827	3
8	593	1236.78984715634	1
8	616	1275.038720804297	1
8	638	1341.831971966471	1
8	649	1356.079627233473	1
8	655	1369.942905406479	1
8	658	1374.84225275845	1
8	671	1418.900678856088	1
8	689	1518.913265032233	1
8	692	1527.272532464144	1
8	695	1534.84794874575	1
8	708	1551.594958035781	1
8	711	1557.582850544547	1
8	720	1568.739307218153	1
8	733	1601.86730711915	1
8	738	1613.347843900331	1
8	746	1622.076911568479	1
8	762	1652.049086036555	1
8	766	1664.665401336451	1
8	774	1680.005761790246	1
8	779	1686.414640465257	1
8	803	1747.885153759755	1
8	818	1779.894755724619	1
8	825	1795.609136824645	1
8	837	1829.264198008331	1
8	839	1830.977423873753	2
8	860	1890.142463571974	1
8	869	1899.267394109141	1
8	880	1933.886473698141	1
8	903	1971.942596377363	1
8	909	1986.420461942477	1
8	918	1996.847244160215	1
8	923	2001.842081440919	1
8	925	2002.393665442616	2
8	941	2029.851865139414	1
8	945	2035.530374205771	1
8	952	2046.826782324502	1
8	954	2048.216878838541	2
8	973	2092.056321117119	1
8	1004	2193.888924218505	1
8	1019	2250.55891489116	1
8	1034	2321.080740139735	1
8	1040	2335.064538159043	1
8	1057	2367.279148164219	1
8	1065	2391.495205482738	1
8	1074	2409.912083040808	1
8	1081	2434.432498188945	1
8	1088	2463.3924778558	1
8	1094	2476.510344138141	1
8	1098	2480.218280446483	2
9	173	365.058342191057	0
9	176	388.037052425803	0
9	181	392.262403039258	1.334545131082
9	190	404.73333087535	0
9	193	419.146910101711	0
9	200	436.823234710174	0
9	203	440.900837049397	0
9	209	466.342603331937	0
9	217	497.116149187221	0
9	220	503.372082464823	0.274382676673
9	233	541.577288411556	0
9	242	557.379584999622	0
9	249	571.013320665705	0
9	254	581.474923170251	0
9	267	618.964030904645	0
9	270	622.85963881137	0
9	273	626.463013325798	1.943448004308
9	308	694.407150928009	0
9	316	708.481046712107	0
9	321	715.529536791828	0
9	324	718.090158415277	1.210317270363
9	335	726.35965658663	2.68995258523
9	340	734.846307524025	0
9	345	738.910710822221	1.594064676291
9	348	741.161024858367	1.814110838619
9	351	743.358100075954	0
9	358	747.601850396912	1.523690648428
9	365	759.713988500873	0
9	374	777.877727033664	0
9	380	794.561121372008	0
9	385	806.470870468191	6.785770827212
9	388	809.031521403671	4.330083566203
9	389	811.116452405309	4.152857038044
9	405	836.140137449287	0
9	412	851.788883151634	10.671665532236
9	416	858.339450889291	0
9	419	867.210871995243	0.261107135134
9	428	886.495065685076	15.871090860019
9	429	886.640875313158	3.402652381803
9	440	912.747452059853	20.348633268987
9	441	913.825365103102	16.920047060883
9	442	921.636749853191	12.083857326277
9	448	930.008526162325	0
9	455	951.250248410845	0
9	466	964.447198103986	0
9	482	995.956600520193	0
9	494	1010.030117456946	0
9	506	1031.787232155939	0
9	511	1041.57153689313	0
9	517	1060.559683230173	0
9	528	1092.122097599442	0
9	557	1186.006490948789	0
9	565	1203.356701488495	0
9	570	1209.069297881089	3.16763464489
9	579	1217.82102166675	8.377487022143
9	580	1220.962166938075	8.301995099248
9	593	1236.78984715634	0
9	616	1275.038720804297	0
9	638	1341.831971966471	0
9	649	1356.079627233473	0
9	655	1369.942905406479	0
9	658	1374.84225275845	0
9	671	1418.900678856088	0
9	689	1518.913265032233	0
9	692	1527.272532464144	0
9	695	1534.84794874575	0
9	708	1551.594958035781	0
9	711	1557.582850544547	0
9	720	1568.739307218153	0
9	733	1601.86730711915	0
9	738	1613.347843900331	0
9	746	1622.076911568479	0
9	762	1652.049086036555	0
9	766	1664.665401336451	0
9	774	1680.005761790246	0
9	779	1686.414640465257	0
9	803	1747.885153759755	0
9	818	1779.894755724619	0
9	825	1795.609136824645	0
9	837	1829.264198008331	0
9	840	1839.270905499815	8.293481626062
9	860	1890.142463571974	0
9	869	1899.267394109141	0
9	880	1933.886473698141	0
9	903	1971.942596377363	0
9	909	1986.420461942477	0
9	918	1996.847244160215	0
9	923	2001.842081440919	0
9	926	2005.974957729859	3.581292287243
9	941	2029.851865139414	0
9	945	2035.530374205771	0
9	952	2046.826782324502	0
9	955	2051.907843526658	3.690964688117
9	973	2092.056321117119	0
9	1004	2193.888924218505	0
9	1019	2250.55891489116	0
9	1034	2321.080740139735	0
9	1040	2335.064538159043	0
9	1057	2367.279148164219	0
9	1065	2391.495205482738	0
9	1074	2409.912083040808	0
9	1081	2434.432498188945	0
9	1088	2463.3924778558	0
9	1094	2476.510344138141	0
9	1099	2481.947865922792	1.729585476309
10	190	404.73333087535	11
10	193	419.146910101711	12
10	217	497.116149187221	13
10	233	541.577288411556	14
10	249	571.013320665705	15
10	254	581.474923170251	16
10	267	618.964030904645	17
10	270	622.85963881137	18
10	316	708.481046712107	19
10	321	715.529536791828	20
10	340	734.846307524025	21
10	351	743.358100075954	22
10	365	759.713988500873	23
10	374	777.877727033664	24
10	380	794.561121372008	25
10	405	836.140137449287	26
10	416	858.339450889291	27
10	448	930.008526162325	28
10	455	951.250248410845	29
10	466	964.447198103986	30
10	482	995.956600520193	31
10	494	1010.030117456946	32
10	506	1031.787232155939	33
10	511	1041.57153689313	34
10	517	1060.559683230173	35
10	528	1092.122097599442	36
10	565	1203.356701488495	37
10	593	1236.78984715634	38
10	616	1275.038720804297	39
10	649	1356.079627233473	40
10	655	1369.942905406479	41
10	658	1374.84225275845	42
10	708	1551.594958035781	43
10	711	1557.582850544547	44
10	720	1568.739307218153	45
10	733	1601.86730711915	46
10	738	1613.347843900331	47
10	746	1622.076911568479	48
10	762	1652.049086036555	49
10	766	1664.665401336451	50
10	774	1680.005761790246	51
10	779	1686.414640465257	52
10	825	1795.609136824645	53
10	837	1829.264198008331	54
10	880	1933.886473698141	55
10	903	1971.942596377363	56
10	909	1986.420461942477	57
10	918	1996.847244160215	58
10	923	2001.842081440919	59
10	941	2029.851865139414	60
10	945	2035.530374205771	61
10	952	2046.826782324502	62
10	973	2092.056321117119	63
10	1034	2321.080740139735	64
10	1040	2335.064538159043	65
10	1057	2367.279148164219	66
10	1065	2391.495205482738	67
10	1074	2409.912083040808	68
10	1081	2434.432498188945	69
11	1105	2500	0.0964
12	1105	2500	0.0508

