file 57291 1678524249                                           
version 2
run experiments_medium_game_mode1-1194-20230311-09:44:09-14661
attr configname experiments_medium_game_mode1
attr datetime 20230311-09:44:09
attr experiment experiments_medium_game_mode1
attr inifile omnetpp.ini
attr iterationvars "$0=6.5, $1=7, $2=100"
attr iterationvarsf 6.5,7,100-
attr measurement "$0=6.5, $1=7, $2=100"
attr network Network
attr processid 14661
attr repetition 24
attr replication #24
attr resultdir results
attr runnumber 1194
attr seedset 24
param *.boss.arrival_mean 20
param *.boss.service_mean 6.5
param *.minion.arrival_mean 10
param *.minion.service_mean 7
param *.player.recover_rate_x 100
param **.minion.arrival_distribution 0
param **.minion.service_distribution 0
param **.boss.arrival_distribution 0
param **.boss.service_distribution 0

vector 0 Network.player minion_jobs_number_stat:vector ETV
attr source signal_minion_jobs_number
vector 1 Network.player minion_jobs_queue_number_stat:vector ETV
attr source signal_minion_jobs_queue_number
vector 2 Network.player minion_defeated_stat:vector ETV
attr source signal_minion_defeated
vector 3 Network.player minion_response_time_stat:vector ETV
attr source signal_minion_response_time
vector 4 Network.player minion_waiting_time_stat:vector ETV
attr source signal_minion_waiting_time
vector 5 Network.player boss_jobs_number_stat:vector ETV
attr source signal_boss_jobs_number
vector 6 Network.player boss_jobs_queue_number_stat:vector ETV
attr source signal_boss_jobs_queue_number
vector 7 Network.player minion_recovered_stat:vector ETV
attr source signal_minion_recovered
vector 8 Network.player boss_waiting_time_stat:vector ETV
attr source signal_boss_waiting_time
vector 9 Network.player boss_defeated_stat:vector ETV
attr source signal_boss_defeated
vector 10 Network.player boss_response_time_stat:vector ETV
attr source signal_boss_response_time
vector 11 Network.player minion_throughput:vector ETV
attr source signal_minion_throughput
vector 12 Network.player boss_throughput:vector ETV
attr source signal_boss_throughput
0	2029 5252 166 1036 356.789216703952 2499.167734483319 204 1 14 1208 9518
1	7281 10504 166 1036 356.789216703952 2499.167734483319 409 0 13 2020 14756
2	17785 5578 167 1021 363.708662698699 2455.189447450983 205 26 230 26240 4076630
3	23363 8049 167 1021 363.708662698699 2455.189447450983 205 0.092567854653 134.72361517941 9391.4654339602 623558.90068539
4	31412 9654 167 1021 363.708662698699 2455.189447450983 254 0 131.07910536811 10188.16707004 627755.94108572
5	41066 2236 173 1030 372.134798287112 2491.203118857694 87 1 6 137 329
6	43302 4418 173 1030 372.134798287112 2491.203118857694 172 0 5 99 283
7	47720 1333 173 1023 372.134798287112 2455.475700995089 50 12 61 1825 77025
8	49053 2533 173 1028 372.134798287112 2490.596351825845 86 0 50.918568442922 430.9918163135 13204.332152786
9	51586 2274 174 1028 374.215180666372 2490.596351825845 85 22 106 5440 399330
10	53860 3391 174 1028 374.215180666372 2490.596351825845 85 0.042734698432 55.456715868252 915.64886942026 24168.056925253
11	57251 19 1037 1037 2500 2500 1 0.092 0.092 0.092 0.008464
12	57270 20 1037 1037 2500 2500 1 0.0424 0.0424 0.0424 0.00179776

