version 2
run experiments_medium_game_mode1-232-20230311-09:40:45-9837
attr configname experiments_medium_game_mode1
attr datetime 20230311-09:40:45
attr experiment experiments_medium_game_mode1
attr inifile omnetpp.ini
attr iterationvars "$0=5, $1=6, $2=100"
attr iterationvarsf 5,6,100-
attr measurement "$0=5, $1=6, $2=100"
attr network Network
attr processid 9837
attr repetition 22
attr replication #22
attr resultdir results
attr runnumber 232
attr seedset 22
param *.boss.arrival_mean 20
param *.boss.service_mean 5
param *.minion.arrival_mean 10
param *.minion.service_mean 6
param *.player.recover_rate_x 100
param **.minion.arrival_distribution 0
param **.minion.service_distribution 0
param **.boss.arrival_distribution 0
param **.boss.service_distribution 0

vector 0 Network.player boss_jobs_number_stat:vector ETV
attr source signal_boss_jobs_number
vector 1 Network.player boss_jobs_queue_number_stat:vector ETV
attr source signal_boss_jobs_queue_number
vector 2 Network.player minion_recovered_stat:vector ETV
attr source signal_minion_recovered
vector 3 Network.player boss_waiting_time_stat:vector ETV
attr source signal_boss_waiting_time
vector 4 Network.player minion_jobs_number_stat:vector ETV
attr source signal_minion_jobs_number
vector 5 Network.player minion_jobs_queue_number_stat:vector ETV
attr source signal_minion_jobs_queue_number
vector 6 Network.player boss_defeated_stat:vector ETV
attr source signal_boss_defeated
vector 7 Network.player boss_response_time_stat:vector ETV
attr source signal_boss_response_time
vector 8 Network.player minion_waiting_time_stat:vector ETV
attr source signal_minion_waiting_time
vector 9 Network.player minion_defeated_stat:vector ETV
attr source signal_minion_defeated
vector 10 Network.player minion_response_time_stat:vector ETV
attr source signal_minion_response_time
vector 11 Network.player minion_throughput:vector ETV
attr source signal_minion_throughput
vector 12 Network.player boss_throughput:vector ETV
attr source signal_boss_throughput
0	145	352.732720250375	1
0	147	355.433047855263	2
0	164	372.773431743755	1
0	174	389.911696294157	2
0	182	409.20090723275	1
0	189	419.115805167906	1
0	194	428.285912979846	1
0	197	432.020690320547	1
0	204	437.993320757065	1
0	214	448.984162645259	1
0	221	453.306284690797	1
0	241	510.387125889854	1
0	246	526.46961230785	1
0	250	533.563355917929	2
0	263	568.494963728278	1
0	269	577.631216787148	1
0	278	591.632646903891	1
0	284	601.54926800305	1
0	294	624.816116876814	1
0	299	640.060494979796	1
0	305	668.565266190094	1
0	335	746.322986805191	1
0	345	766.884422485837	1
0	350	769.669052624047	1
0	355	779.391853016187	1
0	367	815.902299426086	1
0	372	817.572190500044	1
0	374	818.393229417335	2
0	387	851.345356059816	1
0	409	906.013461760535	1
0	429	939.383849919173	1
0	435	955.915434262725	1
0	437	956.958761290858	2
0	439	957.461455670674	3
0	446	975.50190493379	1
0	453	986.879967410732	1
0	487	1055.885023117775	1
0	493	1059.630242846955	2
0	524	1145.316987997786	1
0	536	1165.70992133794	1
0	559	1199.983447462322	1
0	571	1227.224402541465	1
0	577	1250.640409287308	1
0	579	1253.598628145409	2
0	583	1273.121481900732	1
0	586	1278.10411848818	1
0	599	1296.391501752732	1
0	621	1373.490195164909	1
0	631	1396.378671918339	1
0	634	1404.998596004887	1
0	641	1441.491428769926	1
0	656	1500.224709875965	1
0	666	1512.548829056849	1
0	674	1521.35570542557	1
0	683	1537.225514547729	1
0	695	1568.230041862579	1
0	709	1630.928663981691	1
0	745	1737.19410452424	1
0	749	1743.875031036989	2
0	760	1764.137385416466	1
0	768	1777.384326312965	2
0	772	1784.016498561004	1
0	783	1817.563950498099	1
0	788	1831.000081940892	1
0	796	1849.6697379151	1
0	798	1850.828071912874	2
0	808	1870.994647250275	1
0	815	1893.698305662355	1
0	820	1904.479950762439	1
0	822	1904.750086054783	2
0	836	1935.146117081951	1
0	851	1974.554008801891	1
0	854	1981.808488126002	1
0	857	1986.362462881426	1
0	868	2014.879474030786	1
0	895	2072.110436258973	1
0	897	2082.323736446278	2
0	910	2102.142222095481	1
0	915	2130.15466470212	1
0	930	2151.655274757864	1
0	940	2170.100655578106	1
0	946	2177.404956811009	1
0	952	2189.05207409054	2
0	956	2191.23146393384	3
0	965	2209.341922937825	1
0	968	2218.118859979382	1
0	979	2267.984510232703	1
0	986	2295.117984520488	1
0	1000	2341.666917677911	1
0	1004	2343.790800771955	1
0	1012	2361.192018666655	1
0	1016	2371.777703174319	1
0	1042	2425.669696899728	1
0	1044	2426.874752860027	2
0	1052	2450.298982238692	1
0	1072	2486.924382343612	1
1	145	352.732720250375	0
1	147	355.433047855263	1
1	150	357.668990570731	1
1	151	360.178274960902	0
1	164	372.773431743755	0
1	174	389.911696294157	1
1	175	397.097243986551	1
1	176	398.191803291242	0
1	182	409.20090723275	0
1	183	409.596779402928	0
1	189	419.115805167906	0
1	192	422.197702765853	0
1	194	428.285912979846	0
1	195	430.383290957005	0
1	197	432.020690320547	0
1	200	432.55206609077	0
1	204	437.993320757065	0
1	205	439.826481921449	0
1	214	448.984162645259	0
1	217	451.042987407861	0
1	221	453.306284690797	0
1	224	459.499185918743	0
1	241	510.387125889854	0
1	242	513.485081178421	0
1	246	526.46961230785	0
1	250	533.563355917929	1
1	251	538.933351470887	1
1	252	542.673094280428	0
1	263	568.494963728278	0
1	264	568.916801915733	0
1	269	577.631216787148	0
1	272	581.286941701047	0
1	278	591.632646903891	0
1	279	591.957117060929	0
1	284	601.54926800305	0
1	285	606.890082736268	0
1	294	624.816116876814	0
1	295	629.179499635418	0
1	299	640.060494979796	0
1	302	644.706724266971	0
1	305	668.565266190094	0
1	306	674.096445909051	0
1	335	746.322986805191	0
1	336	746.521984671736	0
1	345	766.884422485837	0
1	346	766.931348941997	0
1	350	769.669052624047	0
1	351	770.47887744132	0
1	355	779.391853016187	0
1	356	782.132125082796	0
1	367	815.902299426086	0
1	368	816.639519259393	0
1	372	817.572190500044	0
1	374	818.393229417335	1
1	375	820.088060618188	1
1	378	825.331508287574	0
1	387	851.345356059816	0
1	388	851.72546539451	0
1	409	906.013461760535	0
1	410	913.22201434533	0
1	429	939.383849919173	0
1	430	946.738718068327	0
1	435	955.915434262725	0
1	437	956.958761290858	1
1	439	957.461455670674	2
1	440	964.391603333616	2
1	441	965.441254809805	1
1	444	972.185784296342	0
1	446	975.50190493379	0
1	447	978.657536732851	0
1	453	986.879967410732	0
1	454	991.059747104206	0
1	487	1055.885023117775	0
1	493	1059.630242846955	1
1	494	1061.159175255097	1
1	501	1067.339515706698	0
1	524	1145.316987997786	0
1	525	1145.35795675073	0
1	536	1165.70992133794	0
1	537	1166.06877894903	0
1	559	1199.983447462322	0
1	560	1200.335425730451	0
1	571	1227.224402541465	0
1	572	1229.286725389194	0
1	577	1250.640409287308	0
1	579	1253.598628145409	1
1	580	1257.510858437562	1
1	581	1270.027869550522	0
1	583	1273.121481900732	0
1	584	1273.978213224102	0
1	586	1278.10411848818	0
1	587	1279.52297548282	0
1	599	1296.391501752732	0
1	600	1300.217978792204	0
1	621	1373.490195164909	0
1	622	1376.988549681913	0
1	631	1396.378671918339	0
1	632	1402.017997306941	0
1	634	1404.998596004887	0
1	635	1422.349746560505	0
1	641	1441.491428769926	0
1	642	1445.156644197776	0
1	656	1500.224709875965	0
1	659	1505.612382442165	0
1	666	1512.548829056849	0
1	667	1516.212432009559	0
1	674	1521.35570542557	0
1	675	1523.215808920552	0
1	683	1537.225514547729	0
1	684	1540.360079566128	0
1	695	1568.230041862579	0
1	696	1569.615891102953	0
1	709	1630.928663981691	0
1	710	1632.331521095503	0
1	745	1737.19410452424	0
1	749	1743.875031036989	1
1	750	1745.526155976342	1
1	751	1757.652178232477	0
1	760	1764.137385416466	0
1	768	1777.384326312965	1
1	769	1781.645970838625	1
1	770	1782.215590877506	0
1	772	1784.016498561004	0
1	775	1792.013773638752	0
1	783	1817.563950498099	0
1	784	1820.850523245913	0
1	788	1831.000081940892	0
1	791	1833.426759479058	0
1	796	1849.6697379151	0
1	798	1850.828071912874	1
1	801	1856.575467137775	1
1	802	1858.615454519147	0
1	808	1870.994647250275	0
1	809	1873.425244089209	0
1	815	1893.698305662355	0
1	816	1894.578748275942	0
1	820	1904.479950762439	0
1	822	1904.750086054783	1
1	825	1911.450390093181	1
1	826	1912.034256253574	0
1	836	1935.146117081951	0
1	837	1942.274086764021	0
1	851	1974.554008801891	0
1	852	1975.938183774526	0
1	854	1981.808488126002	0
1	855	1983.506288357835	0
1	857	1986.362462881426	0
1	858	1988.403077452434	0
1	868	2014.879474030786	0
1	869	2020.47504942552	0
1	895	2072.110436258973	0
1	897	2082.323736446278	1
1	898	2088.926457153495	1
1	899	2089.891795753963	0
1	910	2102.142222095481	0
1	911	2114.30641181425	0
1	915	2130.15466470212	0
1	918	2135.727740587557	0
1	930	2151.655274757864	0
1	933	2155.134183557966	0
1	940	2170.100655578106	0
1	941	2171.859258928309	0
1	946	2177.404956811009	0
1	952	2189.05207409054	1
1	956	2191.23146393384	2
1	957	2195.021371265093	2
1	960	2198.587809483838	1
1	961	2201.571752163075	0
1	965	2209.341922937825	0
1	966	2210.805529080339	0
1	968	2218.118859979382	0
1	969	2222.32902991189	0
1	979	2267.984510232703	0
1	980	2271.77470898217	0
1	986	2295.117984520488	0
1	987	2297.17633165126	0
1	1000	2341.666917677911	0
1	1001	2342.428280242852	0
1	1004	2343.790800771955	0
1	1005	2344.086361280089	0
1	1012	2361.192018666655	0
1	1013	2365.975220688492	0
1	1016	2371.777703174319	0
1	1019	2374.916637926777	0
1	1042	2425.669696899728	0
1	1044	2426.874752860027	1
1	1045	2428.847801434976	1
1	1046	2430.196564887572	0
1	1052	2450.298982238692	0
1	1057	2465.36818893642	0
1	1072	2486.924382343612	0
1	1073	2488.952754676314	0
2	145	352.732720250375	10
2	164	372.773431743755	11
2	182	409.20090723275	12
2	189	419.115805167906	13
2	194	428.285912979846	14
2	197	432.020690320547	15
2	204	437.993320757065	16
2	214	448.984162645259	17
2	221	453.306284690797	18
2	241	510.387125889854	19
2	246	526.46961230785	20
2	263	568.494963728278	21
2	269	577.631216787148	22
2	278	591.632646903891	23
2	284	601.54926800305	24
2	294	624.816116876814	25
2	299	640.060494979796	26
2	305	668.565266190094	27
2	345	766.884422485837	28
2	350	769.669052624047	29
2	355	779.391853016187	30
2	367	815.902299426086	31
2	372	817.572190500044	32
2	387	851.345356059816	33
2	409	906.013461760535	34
2	429	939.383849919173	35
2	435	955.915434262725	36
2	446	975.50190493379	37
2	453	986.879967410732	38
2	487	1055.885023117775	39
2	524	1145.316987997786	40
2	536	1165.70992133794	41
2	559	1199.983447462322	42
2	571	1227.224402541465	43
2	577	1250.640409287308	44
2	583	1273.121481900732	45
2	586	1278.10411848818	46
2	599	1296.391501752732	47
2	621	1373.490195164909	48
2	631	1396.378671918339	49
2	634	1404.998596004887	50
2	666	1512.548829056849	51
2	709	1630.928663981691	52
2	745	1737.19410452424	53
2	760	1764.137385416466	54
2	772	1784.016498561004	55
2	783	1817.563950498099	56
2	788	1831.000081940892	57
2	796	1849.6697379151	58
2	808	1870.994647250275	59
2	815	1893.698305662355	60
2	820	1904.479950762439	61
2	836	1935.146117081951	62
2	851	1974.554008801891	63
2	854	1981.808488126002	64
2	857	1986.362462881426	65
2	868	2014.879474030786	66
2	895	2072.110436258973	67
2	910	2102.142222095481	68
2	915	2130.15466470212	69
2	930	2151.655274757864	70
2	940	2170.100655578106	71
2	946	2177.404956811009	72
2	965	2209.341922937825	73
2	968	2218.118859979382	74
2	979	2267.984510232703	75
2	986	2295.117984520488	76
2	1000	2341.666917677911	77
2	1004	2343.790800771955	78
2	1012	2361.192018666655	79
2	1042	2425.669696899728	80
2	1072	2486.924382343612	81
3	145	352.732720250375	0
3	150	357.668990570731	2.235942715468
3	164	372.773431743755	0
3	175	397.097243986551	7.185547692394
3	182	409.20090723275	0
3	189	419.115805167906	0
3	194	428.285912979846	0
3	197	432.020690320547	0
3	204	437.993320757065	0
3	214	448.984162645259	0
3	221	453.306284690797	0
3	241	510.387125889854	0
3	246	526.46961230785	0
3	251	538.933351470887	5.369995552958
3	263	568.494963728278	0
3	269	577.631216787148	0
3	278	591.632646903891	0
3	284	601.54926800305	0
3	294	624.816116876814	0
3	299	640.060494979796	0
3	305	668.565266190094	0
3	335	746.322986805191	0
3	345	766.884422485837	0
3	350	769.669052624047	0
3	355	779.391853016187	0
3	367	815.902299426086	0
3	372	817.572190500044	0
3	375	820.088060618188	1.694831200853
3	387	851.345356059816	0
3	409	906.013461760535	0
3	429	939.383849919173	0
3	435	955.915434262725	0
3	440	964.391603333616	7.432842042758
3	441	965.441254809805	7.979799139131
3	446	975.50190493379	0
3	453	986.879967410732	0
3	487	1055.885023117775	0
3	494	1061.159175255097	1.528932408142
3	524	1145.316987997786	0
3	536	1165.70992133794	0
3	559	1199.983447462322	0
3	571	1227.224402541465	0
3	577	1250.640409287308	0
3	580	1257.510858437562	3.912230292153
3	583	1273.121481900732	0
3	586	1278.10411848818	0
3	599	1296.391501752732	0
3	621	1373.490195164909	0
3	631	1396.378671918339	0
3	634	1404.998596004887	0
3	641	1441.491428769926	0
3	656	1500.224709875965	0
3	666	1512.548829056849	0
3	674	1521.35570542557	0
3	683	1537.225514547729	0
3	695	1568.230041862579	0
3	709	1630.928663981691	0
3	745	1737.19410452424	0
3	750	1745.526155976342	1.651124939353
3	760	1764.137385416466	0
3	769	1781.645970838625	4.26164452566
3	772	1784.016498561004	0
3	783	1817.563950498099	0
3	788	1831.000081940892	0
3	796	1849.6697379151	0
3	801	1856.575467137775	5.747395224901
3	808	1870.994647250275	0
3	815	1893.698305662355	0
3	820	1904.479950762439	0
3	825	1911.450390093181	6.700304038398
3	836	1935.146117081951	0
3	851	1974.554008801891	0
3	854	1981.808488126002	0
3	857	1986.362462881426	0
3	868	2014.879474030786	0
3	895	2072.110436258973	0
3	898	2088.926457153495	6.602720707217
3	910	2102.142222095481	0
3	915	2130.15466470212	0
3	930	2151.655274757864	0
3	940	2170.100655578106	0
3	946	2177.404956811009	0
3	957	2195.021371265093	5.969297174553
3	960	2198.587809483838	7.356345549998
3	965	2209.341922937825	0
3	968	2218.118859979382	0
3	979	2267.984510232703	0
3	986	2295.117984520488	0
3	1000	2341.666917677911	0
3	1004	2343.790800771955	0
3	1012	2361.192018666655	0
3	1016	2371.777703174319	0
3	1042	2425.669696899728	0
3	1045	2428.847801434976	1.973048574949
3	1052	2450.298982238692	0
3	1072	2486.924382343612	0
4	149	357.110273761727	5
4	153	360.782346563254	6
4	155	360.900786523798	7
4	159	365.810453568358	6
4	161	367.412899786366	7
4	166	376.122387271869	7
4	168	384.627559805106	8
4	170	385.834413027814	9
4	172	386.576892817182	10
4	179	401.181908524793	10
4	187	416.321708143119	8
4	191	420.069603263322	9
4	199	432.528569256868	10
4	207	442.913448376436	9
4	209	444.803130129404	10
4	211	445.135584916655	11
4	216	449.401489746978	11
4	219	451.221452777944	12
4	223	454.576488467537	13
4	227	460.202995459364	13
4	229	464.638686879267	14
4	232	467.223887546964	14
4	238	484.831073808571	11
4	244	518.735864083602	11
4	248	529.169429449537	12
4	255	552.701837662188	12
4	257	557.823998198495	13
4	271	577.898028766112	7
4	274	583.100866190608	8
4	276	583.427779886505	9
4	281	592.018243094432	10
4	287	608.087541157606	10
4	290	618.533539022096	10
4	301	642.194701466183	7
4	311	682.979150824183	4
4	317	695.150857070289	1
4	320	698.967478304851	1
4	322	701.57739216657	2
4	326	713.191993803831	1
4	329	718.492683037777	1
4	332	722.564048108325	1
4	338	761.028255665413	1
4	340	761.487909032096	2
4	343	765.478455412807	2
4	348	767.320131015934	3
4	353	776.371885117411	4
4	362	804.13294165697	1
4	365	811.808337935243	1
4	370	817.455280928788	2
4	377	823.637458456528	3
4	380	831.508393944909	4
4	383	834.067640015354	4
4	385	843.377789365346	5
4	391	868.704436630748	5
4	395	878.544751053541	4
4	398	887.981957247444	4
4	400	888.398460733039	5
4	402	890.884252885326	6
4	405	901.853393344468	6
4	407	902.25416399318	7
4	414	915.149172449138	6
4	417	923.087460793294	6
4	420	926.920114016937	6
4	423	927.865272905843	6
4	426	930.983038456167	6
4	432	948.024276580382	6
4	443	970.800367903949	6
4	449	982.306886979273	7
4	451	983.530452524714	8
4	458	1010.992334053645	7
4	462	1021.313715227685	6
4	464	1022.255844706883	7
4	468	1031.154393004607	6
4	470	1031.28886926745	7
4	472	1033.225056498623	8
4	474	1035.659953448519	9
4	477	1038.551823205842	9
4	481	1043.392157736558	8
4	483	1045.419253597348	9
4	489	1058.795578569949	8
4	491	1059.042887166149	9
4	496	1061.987326247723	10
4	498	1062.741491367953	11
4	500	1065.690552507971	12
4	506	1088.20665058496	10
4	508	1090.936952841159	11
4	520	1140.475554567249	2
4	522	1141.601879095854	3
4	529	1157.494283946164	2
4	531	1159.506583065727	3
4	533	1159.587698204853	4
4	542	1181.930640896007	1
4	544	1182.152906295878	2
4	547	1182.768867144938	2
4	549	1184.969599222507	3
4	551	1186.784380597366	4
4	554	1192.143366601033	4
4	556	1192.520514962675	5
4	562	1211.805728267594	5
4	567	1223.873945092779	3
4	569	1224.744438681014	4
4	589	1281.731393799702	2
4	591	1288.810266778806	3
4	593	1289.987153130249	4
4	595	1290.252851183042	5
4	602	1303.146600035626	4
4	604	1312.273084810844	5
4	606	1316.389124757649	6
4	609	1346.850799411842	6
4	612	1348.796696255572	6
4	616	1356.337181890864	5
4	626	1384.787550339199	1
4	629	1393.455638340852	1
4	638	1430.725391606938	1
4	644	1452.039160495682	1
4	647	1466.510899405055	1
4	650	1491.916215156343	1
4	653	1497.066978577859	1
4	658	1504.221754487347	1
4	662	1509.634805061608	1
4	664	1510.171494330509	2
4	671	1520.527234707304	1
4	677	1524.96445812091	1
4	679	1525.327820162718	2
4	686	1541.829508091436	1
4	688	1543.276083854784	2
4	692	1560.585597844298	1
4	698	1570.658007599415	1
4	701	1595.824246247895	1
4	704	1622.495889256859	1
4	706	1623.642751490942	2
4	713	1653.684944445692	1
4	716	1669.074259599486	1
4	719	1677.360257209685	1
4	722	1696.172959194833	1
4	725	1698.555926067567	1
4	727	1701.053979771413	2
4	729	1708.839332401317	3
4	734	1721.058067293559	1
4	736	1722.961603454763	2
4	738	1727.137787525301	3
4	740	1728.733597568893	4
4	743	1730.093735591804	4
4	747	1743.058090492531	5
4	758	1763.393878676221	1
4	762	1765.748169376143	2
4	764	1775.793398433086	3
4	766	1776.016775535124	4
4	774	1789.277059377877	5
4	779	1799.111210359416	4
4	781	1800.559418640174	5
4	786	1830.70500639445	6
4	790	1832.010909947143	7
4	800	1854.416367651413	5
4	804	1862.229586683131	6
4	806	1866.838260173935	7
4	811	1874.052896741215	8
4	818	1900.459589706337	7
4	824	1905.322787154266	8
4	828	1912.556391803308	9
4	831	1923.034351827729	9
4	839	1951.806771612204	7
4	841	1961.866252201993	8
4	844	1970.293660341468	8
4	846	1973.607775948638	9
4	848	1973.741657500567	10
4	860	1989.469899896957	10
4	862	1993.598979995522	11
4	864	1995.919065059989	12
4	866	1997.182016906037	13
4	872	2024.339075712373	13
4	876	2028.503767400147	12
4	880	2042.844716623217	11
4	882	2047.370582727142	12
4	887	2055.676399834504	10
4	890	2066.310848008636	10
4	893	2066.779377899461	10
4	902	2094.26848032071	10
4	904	2094.311972251083	11
4	906	2096.536844739733	12
4	917	2131.423627661612	9
4	922	2141.199999379404	8
4	924	2146.335326496691	9
4	926	2148.0452512445	10
4	928	2151.136001806825	11
4	932	2151.997696375118	12
4	938	2164.023702648272	10
4	944	2175.835942713852	10
4	948	2183.253664310616	11
4	950	2186.451739360042	12
4	954	2190.271191358363	13
4	959	2195.461831745553	14
4	971	2224.188134757312	13
4	984	2282.880082712992	6
4	989	2298.569973153469	7
4	992	2305.584008865002	7
4	998	2327.57412025814	4
4	1010	2355.384984240619	1
4	1018	2374.355315969987	1
4	1021	2378.768449697843	2
4	1024	2381.829432356643	2
4	1027	2385.367600433471	2
4	1030	2398.60852433365	2
4	1032	2399.836363075805	3
4	1034	2402.207237734363	4
4	1037	2408.222033721261	4
4	1039	2418.017793774835	5
4	1054	2456.153930869414	1
4	1056	2463.66316072287	2
4	1061	2469.955638397126	1
4	1063	2471.525547650354	2
4	1065	2471.855350292107	3
4	1067	2481.15861096232	4
4	1076	2491.824172234539	1
5	149	357.110273761727	4
5	153	360.782346563254	5
5	155	360.900786523798	6
5	156	361.42408824441	6
5	157	364.546318897401	5
5	159	365.810453568358	5
5	161	367.412899786366	6
5	162	370.005047407987	6
5	166	376.122387271869	6
5	168	384.627559805106	7
5	170	385.834413027814	8
5	172	386.576892817182	9
5	177	399.701120172271	9
5	179	401.181908524793	9
5	180	406.271497634397	9
5	184	410.490281424991	8
5	185	413.877737382103	7
5	187	416.321708143119	7
5	191	420.069603263322	8
5	199	432.528569256868	9
5	201	433.340922148656	9
5	202	436.13782690644	8
5	207	442.913448376436	8
5	209	444.803130129404	9
5	211	445.135584916655	10
5	212	447.929755242857	10
5	216	449.401489746978	10
5	219	451.221452777944	11
5	223	454.576488467537	12
5	225	459.89024858238	12
5	227	460.202995459364	12
5	229	464.638686879267	13
5	230	467.055924946795	13
5	232	467.223887546964	13
5	233	470.474700222114	13
5	234	473.558642456311	12
5	235	478.228523733575	11
5	236	482.352740094298	10
5	238	484.831073808571	10
5	239	496.095609875388	10
5	244	518.735864083602	10
5	248	529.169429449537	11
5	253	550.170071130639	11
5	255	552.701837662188	11
5	257	557.823998198495	12
5	258	560.010407824185	12
5	259	564.731007901169	11
5	260	566.117242377166	10
5	261	567.444050118673	9
5	265	571.458120082815	8
5	266	572.079550911649	7
5	267	574.987951797405	6
5	271	577.898028766112	6
5	274	583.100866190608	7
5	276	583.427779886505	8
5	281	592.018243094432	9
5	282	594.874849667206	9
5	287	608.087541157606	9
5	288	617.595141080377	9
5	290	618.533539022096	9
5	291	618.54212252227	9
5	292	621.611141945127	8
5	296	633.713659718235	7
5	297	636.274841874313	6
5	301	642.194701466183	6
5	303	650.386661452111	6
5	307	675.531980828616	5
5	308	677.221283477254	4
5	309	678.968523900143	3
5	311	682.979150824183	3
5	312	684.369075917686	3
5	313	685.541181337202	2
5	314	691.031480826822	1
5	315	691.281522968447	0
5	317	695.150857070289	0
5	318	695.809937807751	0
5	320	698.967478304851	0
5	322	701.57739216657	1
5	323	710.890754137985	1
5	324	712.13626140228	0
5	326	713.191993803831	0
5	327	713.815131280026	0
5	329	718.492683037777	0
5	330	718.739576234043	0
5	332	722.564048108325	0
5	333	731.057545952627	0
5	338	761.028255665413	0
5	340	761.487909032096	1
5	341	762.67422361897	1
5	343	765.478455412807	1
5	348	767.320131015934	2
5	353	776.371885117411	3
5	357	787.612421559192	3
5	358	790.772736147279	2
5	359	792.17025700513	1
5	360	793.691387095858	0
5	362	804.13294165697	0
5	363	811.783570682961	0
5	365	811.808337935243	0
5	370	817.455280928788	1
5	377	823.637458456528	2
5	380	831.508393944909	3
5	381	831.520371688967	3
5	383	834.067640015354	3
5	385	843.377789365346	4
5	389	854.01756324056	4
5	391	868.704436630748	4
5	392	871.002527591033	4
5	393	874.224051227113	3
5	395	878.544751053541	3
5	396	879.085680222393	3
5	398	887.981957247444	3
5	400	888.398460733039	4
5	402	890.884252885326	5
5	403	894.422474072238	5
5	405	901.853393344468	5
5	407	902.25416399318	6
5	411	913.511006086823	6
5	412	914.656500079164	5
5	414	915.149172449138	5
5	415	919.595839979899	5
5	417	923.087460793294	5
5	418	924.738554373764	5
5	420	926.920114016937	5
5	421	926.966530685598	5
5	423	927.865272905843	5
5	424	929.264475789856	5
5	426	930.983038456167	5
5	427	938.278067014182	5
5	432	948.024276580382	5
5	433	949.889143245638	5
5	443	970.800367903949	5
5	449	982.306886979273	6
5	451	983.530452524714	7
5	455	992.964085639552	7
5	456	1002.331078455905	6
5	458	1010.992334053645	6
5	459	1019.399605483484	6
5	460	1019.516363407832	5
5	462	1021.313715227685	5
5	464	1022.255844706883	6
5	465	1023.458218289143	6
5	466	1028.631790926353	5
5	468	1031.154393004607	5
5	470	1031.28886926745	6
5	472	1033.225056498623	7
5	474	1035.659953448519	8
5	475	1037.179741748851	8
5	477	1038.551823205842	8
5	478	1040.784664224366	8
5	479	1042.829656646961	7
5	481	1043.392157736558	7
5	483	1045.419253597348	8
5	484	1045.979100906357	8
5	485	1046.38630525763	7
5	489	1058.795578569949	7
5	491	1059.042887166149	8
5	496	1061.987326247723	9
5	498	1062.741491367953	10
5	500	1065.690552507971	11
5	502	1069.135588034544	11
5	503	1069.895775232108	10
5	504	1074.341360909103	9
5	506	1088.20665058496	9
5	508	1090.936952841159	10
5	509	1096.755737695866	10
5	510	1101.330885224689	9
5	511	1102.092611745805	8
5	512	1107.111338607042	7
5	513	1112.848448321955	6
5	514	1121.445586260924	5
5	515	1121.796289738278	4
5	516	1124.254565271771	3
5	517	1126.059810169249	2
5	518	1139.460195914071	1
5	520	1140.475554567249	1
5	522	1141.601879095854	2
5	526	1146.126817745179	2
5	527	1146.732897035076	1
5	529	1157.494283946164	1
5	531	1159.506583065727	2
5	533	1159.587698204853	3
5	534	1163.764770687351	3
5	538	1172.30708284176	2
5	539	1178.09995704434	1
5	540	1180.743174566284	0
5	542	1181.930640896007	0
5	544	1182.152906295878	1
5	545	1182.298492534786	1
5	547	1182.768867144938	1
5	549	1184.969599222507	2
5	551	1186.784380597366	3
5	552	1190.411858850729	3
5	554	1192.143366601033	3
5	556	1192.520514962675	4
5	557	1196.665075185528	4
5	562	1211.805728267594	4
5	563	1212.135175158049	4
5	564	1213.858958292045	3
5	565	1218.963356744006	2
5	567	1223.873945092779	2
5	569	1224.744438681014	3
5	573	1230.814137333003	3
5	574	1246.158045323015	2
5	575	1246.456213308033	1
5	589	1281.731393799702	1
5	591	1288.810266778806	2
5	593	1289.987153130249	3
5	595	1290.252851183042	4
5	596	1293.066971133899	4
5	597	1295.71390405268	3
5	602	1303.146600035626	3
5	604	1312.273084810844	4
5	606	1316.389124757649	5
5	607	1326.839726931762	5
5	609	1346.850799411842	5
5	610	1347.962374852137	5
5	612	1348.796696255572	5
5	613	1348.836333853231	5
5	614	1350.180900786959	4
5	616	1356.337181890864	4
5	617	1358.423823960416	4
5	618	1359.995414185159	3
5	619	1367.338694872711	2
5	623	1378.668568743292	1
5	624	1381.395929967343	0
5	626	1384.787550339199	0
5	627	1392.143927819705	0
5	629	1393.455638340852	0
5	636	1427.739698686151	0
5	638	1430.725391606938	0
5	639	1434.011028807727	0
5	644	1452.039160495682	0
5	645	1458.377078632265	0
5	647	1466.510899405055	0
5	648	1474.343675863387	0
5	650	1491.916215156343	0
5	651	1496.229096462656	0
5	653	1497.066978577859	0
5	654	1498.983206786881	0
5	658	1504.221754487347	0
5	660	1507.675568717322	0
5	662	1509.634805061608	0
5	664	1510.171494330509	1
5	668	1519.489804113299	1
5	669	1520.189054287288	0
5	671	1520.527234707304	0
5	672	1520.582532124488	0
5	677	1524.96445812091	0
5	679	1525.327820162718	1
5	680	1525.542368949844	1
5	681	1527.740638542798	0
5	686	1541.829508091436	0
5	688	1543.276083854784	1
5	689	1545.137336177282	1
5	690	1554.535365475344	0
5	692	1560.585597844298	0
5	693	1564.264769219687	0
5	698	1570.658007599415	0
5	699	1572.84095097245	0
5	701	1595.824246247895	0
5	702	1596.419690228308	0
5	704	1622.495889256859	0
5	706	1623.642751490942	1
5	707	1628.897961935807	1
5	711	1648.158382950174	0
5	713	1653.684944445692	0
5	714	1660.393075952632	0
5	716	1669.074259599486	0
5	717	1669.449531996215	0
5	719	1677.360257209685	0
5	720	1679.974495177982	0
5	722	1696.172959194833	0
5	723	1696.194396046204	0
5	725	1698.555926067567	0
5	727	1701.053979771413	1
5	729	1708.839332401317	2
5	730	1713.499646541521	2
5	731	1714.216803526015	1
5	732	1718.669595673625	0
5	734	1721.058067293559	0
5	736	1722.961603454763	1
5	738	1727.137787525301	2
5	740	1728.733597568893	3
5	741	1729.762905224281	3
5	743	1730.093735591804	3
5	747	1743.058090492531	4
5	752	1758.464765692359	4
5	753	1759.724374492213	3
5	754	1761.325890630311	2
5	755	1762.482603292714	1
5	756	1763.032043855796	0
5	758	1763.393878676221	0
5	762	1765.748169376143	1
5	764	1775.793398433086	2
5	766	1776.016775535124	3
5	774	1789.277059377877	4
5	776	1793.612924155392	4
5	777	1797.318120068944	3
5	779	1799.111210359416	3
5	781	1800.559418640174	4
5	786	1830.70500639445	5
5	790	1832.010909947143	6
5	792	1835.387833047087	6
5	793	1837.013189820592	5
5	794	1841.87773495512	4
5	800	1854.416367651413	4
5	804	1862.229586683131	5
5	806	1866.838260173935	6
5	811	1874.052896741215	7
5	812	1874.728936587992	7
5	813	1891.950364797637	6
5	818	1900.459589706337	6
5	824	1905.322787154266	7
5	828	1912.556391803308	8
5	829	1918.655162562758	8
5	831	1923.034351827729	8
5	832	1927.116593141542	8
5	833	1928.818155258464	7
5	834	1930.742986566724	6
5	839	1951.806771612204	6
5	841	1961.866252201993	7
5	842	1963.891158418328	7
5	844	1970.293660341468	7
5	846	1973.607775948638	8
5	848	1973.741657500567	9
5	849	1974.494007520326	9
5	860	1989.469899896957	9
5	862	1993.598979995522	10
5	864	1995.919065059989	11
5	866	1997.182016906037	12
5	870	2020.741074706152	12
5	872	2024.339075712373	12
5	873	2026.201426891661	12
5	874	2026.700204077746	11
5	876	2028.503767400147	11
5	877	2034.220155703054	11
5	878	2041.057913315993	10
5	880	2042.844716623217	10
5	882	2047.370582727142	11
5	883	2049.463798085032	11
5	884	2051.594860064746	10
5	885	2054.80494218402	9
5	887	2055.676399834504	9
5	888	2064.596283049992	9
5	890	2066.310848008636	9
5	891	2066.617355640184	9
5	893	2066.779377899461	9
5	900	2091.857367228342	9
5	902	2094.26848032071	9
5	904	2094.311972251083	10
5	906	2096.536844739733	11
5	907	2099.688310443496	11
5	908	2100.209034581102	10
5	912	2115.787627988003	9
5	913	2129.954108088984	8
5	917	2131.423627661612	8
5	919	2138.988529401789	8
5	920	2140.718181902567	7
5	922	2141.199999379404	7
5	924	2146.335326496691	8
5	926	2148.0452512445	9
5	928	2151.136001806825	10
5	932	2151.997696375118	11
5	934	2157.876810805765	11
5	935	2158.879905541845	10
5	936	2160.399967816033	9
5	938	2164.023702648272	9
5	942	2173.029482545095	9
5	944	2175.835942713852	9
5	948	2183.253664310616	10
5	950	2186.451739360042	11
5	954	2190.271191358363	12
5	959	2195.461831745553	13
5	962	2205.1365536716	13
5	963	2209.144716046336	12
5	971	2224.188134757312	12
5	972	2234.607906651178	12
5	973	2235.392944116572	11
5	974	2252.629304137423	10
5	975	2259.650949598308	9
5	976	2261.750603770565	8
5	977	2267.186099562436	7
5	981	2281.58101768978	6
5	982	2282.726022738741	5
5	984	2282.880082712992	5
5	989	2298.569973153469	6
5	990	2300.553796419293	6
5	992	2305.584008865002	6
5	993	2314.514193612066	6
5	994	2316.316020047189	5
5	995	2317.770932608138	4
5	996	2319.418864383779	3
5	998	2327.57412025814	3
5	1002	2342.560634669023	3
5	1006	2350.788606791646	2
5	1007	2351.711883359755	1
5	1008	2353.37003722343	0
5	1010	2355.384984240619	0
5	1014	2366.324425500951	0
5	1018	2374.355315969987	0
5	1021	2378.768449697843	1
5	1022	2379.565110413612	1
5	1024	2381.829432356643	1
5	1025	2384.964295124576	1
5	1027	2385.367600433471	1
5	1028	2393.067850293498	1
5	1030	2398.60852433365	1
5	1032	2399.836363075805	2
5	1034	2402.207237734363	3
5	1035	2405.232693325979	3
5	1037	2408.222033721261	3
5	1039	2418.017793774835	4
5	1040	2422.961630391974	4
5	1047	2434.604944823192	3
5	1048	2435.275766500938	2
5	1049	2448.591664979581	1
5	1050	2449.68761633898	0
5	1054	2456.153930869414	0
5	1056	2463.66316072287	1
5	1058	2469.726702361961	1
5	1059	2469.769705184714	0
5	1061	2469.955638397126	0
5	1063	2471.525547650354	1
5	1065	2471.855350292107	2
5	1067	2481.15861096232	3
5	1068	2481.92059171572	3
5	1069	2483.447032161043	2
5	1070	2486.307949309919	1
5	1074	2489.312021185009	0
5	1076	2491.824172234539	0
5	1077	2494.366406718045	0
6	150	357.668990570731	19
6	151	360.178274960902	20
6	175	397.097243986551	21
6	176	398.191803291242	22
6	183	409.596779402928	23
6	192	422.197702765853	24
6	195	430.383290957005	25
6	200	432.55206609077	26
6	205	439.826481921449	27
6	217	451.042987407861	28
6	224	459.499185918743	29
6	242	513.485081178421	30
6	251	538.933351470887	31
6	252	542.673094280428	32
6	264	568.916801915733	33
6	272	581.286941701047	34
6	279	591.957117060929	35
6	285	606.890082736268	36
6	295	629.179499635418	37
6	302	644.706724266971	38
6	306	674.096445909051	39
6	336	746.521984671736	40
6	346	766.931348941997	41
6	351	770.47887744132	42
6	356	782.132125082796	43
6	368	816.639519259393	44
6	375	820.088060618188	45
6	378	825.331508287574	46
6	388	851.72546539451	47
6	410	913.22201434533	48
6	430	946.738718068327	49
6	440	964.391603333616	50
6	441	965.441254809805	51
6	444	972.185784296342	52
6	447	978.657536732851	53
6	454	991.059747104206	54
6	494	1061.159175255097	55
6	501	1067.339515706698	56
6	525	1145.35795675073	57
6	537	1166.06877894903	58
6	560	1200.335425730451	59
6	572	1229.286725389194	60
6	580	1257.510858437562	61
6	581	1270.027869550522	62
6	584	1273.978213224102	63
6	587	1279.52297548282	64
6	600	1300.217978792204	65
6	622	1376.988549681913	66
6	632	1402.017997306941	67
6	635	1422.349746560505	68
6	642	1445.156644197776	69
6	659	1505.612382442165	70
6	667	1516.212432009559	71
6	675	1523.215808920552	72
6	684	1540.360079566128	73
6	696	1569.615891102953	74
6	710	1632.331521095503	75
6	750	1745.526155976342	76
6	751	1757.652178232477	77
6	769	1781.645970838625	78
6	770	1782.215590877506	79
6	775	1792.013773638752	80
6	784	1820.850523245913	81
6	791	1833.426759479058	82
6	801	1856.575467137775	83
6	802	1858.615454519147	84
6	809	1873.425244089209	85
6	816	1894.578748275942	86
6	825	1911.450390093181	87
6	826	1912.034256253574	88
6	837	1942.274086764021	89
6	852	1975.938183774526	90
6	855	1983.506288357835	91
6	858	1988.403077452434	92
6	869	2020.47504942552	93
6	898	2088.926457153495	94
6	899	2089.891795753963	95
6	911	2114.30641181425	96
6	918	2135.727740587557	97
6	933	2155.134183557966	98
6	941	2171.859258928309	99
6	957	2195.021371265093	100
6	960	2198.587809483838	101
6	961	2201.571752163075	102
6	966	2210.805529080339	103
6	969	2222.32902991189	104
6	980	2271.77470898217	105
6	987	2297.17633165126	106
6	1001	2342.428280242852	107
6	1005	2344.086361280089	108
6	1013	2365.975220688492	109
6	1019	2374.916637926777	110
6	1045	2428.847801434976	111
6	1046	2430.196564887572	112
6	1057	2465.36818893642	113
6	1073	2488.952754676314	114
7	150	357.668990570731	4.936270320356
7	151	360.178274960902	4.745227105639
7	175	397.097243986551	24.323812242796
7	176	398.191803291242	8.280106997085
7	183	409.596779402928	0.395872170178
7	192	422.197702765853	3.081897597947
7	195	430.383290957005	2.097377977159
7	200	432.55206609077	0.531375770223
7	205	439.826481921449	1.833161164384
7	217	451.042987407861	2.058824762602
7	224	459.499185918743	6.192901227946
7	242	513.485081178421	3.097955288567
7	251	538.933351470887	12.463739163037
7	252	542.673094280428	9.109738362499
7	264	568.916801915733	0.421838187455
7	272	581.286941701047	3.655724913899
7	279	591.957117060929	0.324470157038
7	285	606.890082736268	5.340814733218
7	295	629.179499635418	4.363382758604
7	302	644.706724266971	4.646229287175
7	306	674.096445909051	5.531179718957
7	336	746.521984671736	0.198997866545
7	346	766.931348941997	0.04692645616
7	351	770.47887744132	0.809824817273
7	356	782.132125082796	2.740272066609
7	368	816.639519259393	0.737219833307
7	375	820.088060618188	2.515870118144
7	378	825.331508287574	6.938278870239
7	388	851.72546539451	0.380109334694
7	410	913.22201434533	7.208552584795
7	430	946.738718068327	7.354868149154
7	440	964.391603333616	8.476169070891
7	441	965.441254809805	8.482493518947
7	444	972.185784296342	14.724328625668
7	447	978.657536732851	3.155631799061
7	454	991.059747104206	4.179779693474
7	494	1061.159175255097	5.274152137322
7	501	1067.339515706698	7.709272859743
7	525	1145.35795675073	0.040968752944
7	537	1166.06877894903	0.35885761109
7	560	1200.335425730451	0.351978268129
7	572	1229.286725389194	2.062322847729
7	580	1257.510858437562	6.870449150254
7	581	1270.027869550522	16.429241405113
7	584	1273.978213224102	0.85673132337
7	587	1279.52297548282	1.41885699464
7	600	1300.217978792204	3.826477039472
7	622	1376.988549681913	3.498354517004
7	632	1402.017997306941	5.639325388602
7	635	1422.349746560505	17.351150555618
7	642	1445.156644197776	3.66521542785
7	659	1505.612382442165	5.3876725662
7	667	1516.212432009559	3.66360295271
7	675	1523.215808920552	1.860103494982
7	684	1540.360079566128	3.134565018399
7	696	1569.615891102953	1.385849240374
7	710	1632.331521095503	1.402857113812
7	750	1745.526155976342	8.332051452102
7	751	1757.652178232477	13.777147195488
7	769	1781.645970838625	17.508585422159
7	770	1782.215590877506	4.831264564541
7	775	1792.013773638752	7.997275077748
7	784	1820.850523245913	3.286572747814
7	791	1833.426759479058	2.426677538166
7	801	1856.575467137775	6.905729222675
7	802	1858.615454519147	7.787382606273
7	809	1873.425244089209	2.430596838934
7	816	1894.578748275942	0.880442613587
7	825	1911.450390093181	6.970439330742
7	826	1912.034256253574	7.284170198791
7	837	1942.274086764021	7.12796968207
7	852	1975.938183774526	1.384174972635
7	855	1983.506288357835	1.697800231833
7	858	1988.403077452434	2.040614571008
7	869	2020.47504942552	5.595575394734
7	898	2088.926457153495	16.816020894522
7	899	2089.891795753963	7.568059307685
7	911	2114.30641181425	12.164189718769
7	918	2135.727740587557	5.573075885437
7	933	2155.134183557966	3.478908800102
7	941	2171.859258928309	1.758603350203
7	957	2195.021371265093	17.616414454084
7	960	2198.587809483838	9.535735393298
7	961	2201.571752163075	10.340288229235
7	966	2210.805529080339	1.463606142514
7	969	2222.32902991189	4.210169932508
7	980	2271.77470898217	3.790198749467
7	987	2297.17633165126	2.058347130772
7	1001	2342.428280242852	0.761362564941
7	1005	2344.086361280089	0.295560508134
7	1013	2365.975220688492	4.783202021837
7	1019	2374.916637926777	3.138934752458
7	1045	2428.847801434976	3.178104535248
7	1046	2430.196564887572	3.321812027545
7	1057	2465.36818893642	15.069206697728
7	1073	2488.952754676314	2.028372332702
8	151	360.178274960902	54.821777618464
8	156	361.42408824441	43.894336100431
8	157	364.546318897401	31.982069429654
8	162	370.005047407987	17.272327157612
8	176	398.191803291242	41.081529529515
8	177	399.701120172271	38.918773609017
8	180	406.271497634397	45.370711110599
8	183	409.596779402928	43.78632583457
8	184	410.490281424991	43.077381638625
8	185	413.877737382103	41.104305638348
8	192	422.197702765853	46.075315493984
8	195	430.383290957005	45.755731151899
8	200	432.55206609077	46.717653062956
8	201	433.340922148656	46.764029331474
8	202	436.13782690644	34.955918381647
8	205	439.826481921449	30.625574688699
8	212	447.929755242857	31.608047099738
8	217	451.042987407861	31.927182239955
8	224	459.499185918743	39.429582655421
8	225	459.89024858238	31.604335602534
8	230	467.055924946795	35.035234626248
8	233	470.474700222114	37.946130965246
8	234	473.558642456311	35.565321699246
8	235	478.228523733575	35.315075357139
8	236	482.352740094298	37.549609964894
8	239	496.095609875388	50.960024958733
8	242	513.485081178421	64.500918533162
8	252	542.673094280428	93.27160453345
8	253	550.170071130639	98.948618352695
8	258	560.010407824185	106.70412313339
8	259	564.731007901169	110.15451943363
8	260	566.117242377166	105.9142469178
8	261	567.444050118673	102.80536323941
8	264	568.916801915733	101.69291436877
8	265	571.458120082815	86.627046274244
8	266	572.079550911649	61.692425021795
8	267	574.987951797405	56.252087713803
8	272	581.286941701047	54.817329393197
8	279	591.957117060929	62.787687611392
8	282	594.874849667206	42.173012005018
8	285	606.890082736268	49.066084537773
8	288	617.595141080377	49.100177352099
8	291	618.54212252227	40.910905735122
8	292	621.611141945127	43.713113179015
8	295	629.179499635418	46.07863344481
8	296	633.713659718235	50.28587983173
8	297	636.274841874313	44.642194970422
8	302	644.706724266971	52.688481172539
8	303	650.386661452111	48.837393449061
8	306	674.096445909051	66.008904751445
8	307	675.531980828616	56.99844180652
8	308	677.221283477254	52.40516660044
8	309	678.968523900143	38.908028920347
8	312	684.369075917686	42.174374451503
8	313	685.541181337202	16.975915147108
8	314	691.031480826822	8.052330002639
8	317	695.150857070289	0
8	320	698.967478304851	0
8	323	710.890754137985	9.313361971415
8	326	713.191993803831	0
8	329	718.492683037777	0
8	332	722.564048108325	0
8	338	761.028255665413	0
8	341	762.67422361897	1.186314586874
8	346	766.931348941997	1.45289352919
8	351	770.47887744132	3.594454955483
8	356	782.132125082796	14.811994066862
8	357	787.612421559192	17.943368935145
8	358	790.772736147279	14.400851029868
8	359	792.17025700513	12.778403988943
8	362	804.13294165697	0
8	365	811.808337935243	0
8	368	816.639519259393	0.737219833307
8	378	825.331508287574	7.876227358786
8	381	831.520371688967	13.948181188923
8	388	851.72546539451	28.088006937982
8	389	854.01756324056	22.509169295651
8	392	871.002527591033	36.934887575679
8	393	874.224051227113	30.846261861767
8	396	879.085680222393	27.740324162577
8	403	894.422474072238	25.71803744149
8	410	913.22201434533	34.677263291789
8	411	913.511006086823	25.529048839379
8	412	914.656500079164	26.258039346125
8	415	919.595839979899	28.711587094573
8	418	924.738554373764	22.885161029296
8	421	926.966530685598	24.712366692418
8	424	929.264475789856	23.251014029321
8	427	938.278067014182	23.128894565044
8	430	946.738718068327	23.651257275033
8	433	949.889143245638	22.969029228701
8	444	972.185784296342	44.320511390499
8	447	978.657536732851	47.674498276684
8	454	991.059747104206	51.675897185033
8	455	992.964085639552	44.93980905917
8	456	1002.331078455905	46.41564419318
8	459	1019.399605483484	48.599237579535
8	460	1019.516363407832	44.014458474042
8	465	1023.458218289143	41.15133130987
8	466	1028.631790926353	45.101338401639
8	475	1037.179741748851	50.299774338119
8	478	1040.784664224366	29.792330170721
8	479	1042.829656646961	21.515941419276
8	484	1045.979100906357	23.723256199474
8	485	1046.38630525763	15.231912253023
8	501	1067.339515706698	36.050646439248
8	502	1069.135588034544	35.910531535921
8	503	1069.895775232108	34.235821783589
8	504	1074.341360909103	35.789537703261
8	509	1096.755737695866	53.363579959308
8	510	1101.330885224689	55.911631627341
8	511	1102.092611745805	46.20758862803
8	512	1107.111338607042	48.315760037093
8	513	1112.848448321955	53.805561155806
8	514	1121.445586260924	59.458260013201
8	515	1121.796289738278	59.054798370325
8	516	1124.254565271771	58.5640127638
8	517	1126.059810169249	37.853159584289
8	518	1139.460195914071	48.523243072912
8	525	1145.35795675073	4.882402183481
8	526	1146.126817745179	4.524938649325
8	527	1146.732897035076	1.41590903729
8	534	1163.764770687351	6.270486741187
8	537	1166.06877894903	6.562195883303
8	538	1172.30708284176	12.719384636907
8	539	1178.09995704434	12.3900357064
8	542	1181.930640896007	0
8	545	1182.298492534786	0.145586238908
8	552	1190.411858850729	7.642991705791
8	557	1196.665075185528	11.695475963021
8	560	1200.335425730451	13.551045133085
8	563	1212.135175158049	19.991808557016
8	564	1213.858958292045	21.33844332937
8	565	1218.963356744006	18.979909281684
8	572	1229.286725389194	17.4809971216
8	573	1230.814137333003	6.940192240224
8	574	1246.158045323015	21.413606642001
8	575	1246.456213308033	19.231810766568
8	581	1270.027869550522	19.387460263214
8	584	1273.978213224102	0.85673132337
8	587	1279.52297548282	1.41885699464
8	596	1293.066971133899	11.335577334197
8	597	1295.71390405268	6.903637273874
8	600	1300.217978792204	10.230825661955
8	607	1326.839726931762	36.58687574872
8	610	1347.962374852137	51.570873099405
8	613	1348.836333853231	45.689733817605
8	614	1350.180900786959	37.907815976115
8	617	1358.423823960416	42.034699202767
8	618	1359.995414185159	13.144614773317
8	619	1367.338694872711	18.541998617139
8	622	1376.988549681913	20.651367791049
8	623	1378.668568743292	5.178373578383
8	626	1384.787550339199	0
8	629	1393.455638340852	0
8	632	1402.017997306941	5.639325388602
8	635	1422.349746560505	17.351150555618
8	638	1430.725391606938	0
8	644	1452.039160495682	0
8	647	1466.510899405055	0
8	650	1491.916215156343	0
8	653	1497.066978577859	0
8	659	1505.612382442165	1.390627954818
8	662	1509.634805061608	0
8	667	1516.212432009559	6.04093767905
8	668	1519.489804113299	6.94097505645
8	671	1520.527234707304	0
8	677	1524.96445812091	0
8	680	1525.542368949844	0.214548787126
8	686	1541.829508091436	0
8	689	1545.137336177282	1.861252322498
8	692	1560.585597844298	0
8	698	1570.658007599415	0
8	701	1595.824246247895	0
8	704	1622.495889256859	0
8	707	1628.897961935807	5.255210444865
8	710	1632.331521095503	1.402857113812
8	713	1653.684944445692	0
8	716	1669.074259599486	0
8	719	1677.360257209685	0
8	722	1696.172959194833	0
8	725	1698.555926067567	0
8	730	1713.499646541521	12.445666770108
8	731	1714.216803526015	5.377471124698
8	734	1721.058067293559	0
8	741	1729.762905224281	6.801301769518
8	751	1757.652178232477	30.514390707176
8	752	1758.464765692359	29.731168123466
8	753	1759.724374492213	29.630638900409
8	754	1761.325890630311	24.131786106071
8	755	1762.482603292714	19.424512800183
8	758	1763.393878676221	0
8	770	1782.215590877506	18.07820546104
8	775	1792.013773638752	26.265604262609
8	776	1793.612924155392	17.819525722306
8	777	1797.318120068944	21.30134453382
8	784	1820.850523245913	36.834024684909
8	791	1833.426759479058	44.149700101181
8	792	1835.387833047087	36.276622687671
8	793	1837.013189820592	36.453771180418
8	794	1841.87773495512	24.313784457021
8	802	1858.615454519147	27.910448124697
8	809	1873.425244089209	42.425162148317
8	812	1874.728936587992	42.718026640849
8	813	1891.950364797637	42.280626882537
8	816	1894.578748275942	40.162380624529
8	826	1912.034256253574	49.804669570443
8	829	1918.655162562758	51.816902388823
8	832	1927.116593141542	56.121945891267
8	833	1928.818155258464	54.765258517249
8	834	1930.742986566724	37.044680904369
8	837	1942.274086764021	41.814497057684
8	842	1963.891158418328	59.411207655889
8	849	1974.494007520326	69.17122036606
8	852	1975.938183774526	63.381791971218
8	855	1983.506288357835	60.471936530106
8	858	1988.403077452434	53.256960370483
8	869	2020.47504942552	68.668277813316
8	870	2020.741074706152	58.874822504159
8	873	2026.201426891661	55.907766550193
8	874	2026.700204077746	53.092428129108
8	877	2034.220155703054	60.478498202487
8	878	2041.057913315993	66.503904514102
8	883	2049.463798085032	67.65530995903
8	884	2051.594860064746	65.23239718332
8	885	2054.80494218402	65.335042287063
8	888	2064.596283049992	70.99730305447
8	891	2066.617355640184	70.698290580195
8	899	2089.891795753963	92.709778847926
8	900	2091.857367228342	76.977893197556
8	907	2099.688310443496	75.349234731123
8	908	2100.209034581102	71.705267180955
8	911	2114.30641181425	71.461695191033
8	912	2115.787627988003	68.417045260861
8	913	2129.954108088984	74.27770825448
8	918	2135.727740587557	69.416892578921
8	919	2138.988529401789	72.209151502328
8	920	2140.718181902567	68.607745643594
8	933	2155.134183557966	60.865703237256
8	934	2157.876810805765	63.564838554682
8	935	2158.879905541845	62.343060802112
8	936	2160.399967816033	58.257745720552
8	941	2171.859258928309	41.704594226189
8	942	2173.029482545095	41.605854883483
8	961	2201.571752163075	60.371752783671
8	962	2205.1365536716	58.801227174909
8	963	2209.144716046336	61.099464801836
8	966	2210.805529080339	59.669527273514
8	969	2222.32902991189	70.673755154026
8	972	2234.607906651178	82.61021027606
8	973	2235.392944116572	71.3692414683
8	974	2252.629304137423	82.528648559317
8	975	2259.650949598308	83.815006884456
8	976	2261.750603770565	84.345646959556
8	977	2267.186099562436	83.93243525182
8	980	2271.77470898217	85.322969622128
8	981	2281.58101768978	91.309826331417
8	982	2282.726022738741	87.264190993188
8	987	2297.17633165126	87.834408713435
8	990	2300.553796419293	82.434936439911
8	993	2314.514193612066	90.326058854754
8	994	2316.316020047189	48.331509814486
8	995	2317.770932608138	34.890849895146
8	996	2319.418864383779	24.300879863291
8	1001	2342.428280242852	43.858307089383
8	1002	2342.560634669023	36.976625804021
8	1005	2344.086361280089	16.512241021949
8	1006	2350.788606791646	9.121689113735
8	1007	2351.711883359755	7.9210825878
8	1010	2355.384984240619	0
8	1013	2365.975220688492	4.783202021837
8	1019	2374.916637926777	0.56132195679
8	1022	2379.565110413612	0.796660715769
8	1025	2384.964295124576	3.134862767933
8	1028	2393.067850293498	7.700249860027
8	1035	2405.232693325979	6.624168992329
8	1040	2422.961630391974	23.125267316169
8	1046	2430.196564887572	27.989327153209
8	1047	2434.604944823192	26.382911101931
8	1048	2435.275766500938	17.257972726103
8	1049	2448.591664979581	22.921968079853
8	1057	2465.36818893642	9.214258067006
8	1058	2469.726702361961	6.063541639091
8	1061	2469.955638397126	0
8	1068	2481.92059171572	10.395044065366
8	1069	2483.447032161043	11.591681868936
8	1070	2486.307949309919	5.149338347599
8	1073	2488.952754676314	2.028372332702
8	1076	2491.824172234539	0
9	156	361.42408824441	28
9	157	364.546318897401	29
9	162	370.005047407987	30
9	177	399.701120172271	31
9	180	406.271497634397	32
9	184	410.490281424991	33
9	185	413.877737382103	34
9	201	433.340922148656	35
9	202	436.13782690644	36
9	212	447.929755242857	37
9	225	459.89024858238	38
9	230	467.055924946795	39
9	233	470.474700222114	40
9	234	473.558642456311	41
9	235	478.228523733575	42
9	236	482.352740094298	43
9	239	496.095609875388	44
9	253	550.170071130639	45
9	258	560.010407824185	46
9	259	564.731007901169	47
9	260	566.117242377166	48
9	261	567.444050118673	49
9	265	571.458120082815	50
9	266	572.079550911649	51
9	267	574.987951797405	52
9	282	594.874849667206	53
9	288	617.595141080377	54
9	291	618.54212252227	55
9	292	621.611141945127	56
9	296	633.713659718235	57
9	297	636.274841874313	58
9	303	650.386661452111	59
9	307	675.531980828616	60
9	308	677.221283477254	61
9	309	678.968523900143	62
9	312	684.369075917686	63
9	313	685.541181337202	64
9	314	691.031480826822	65
9	315	691.281522968447	66
9	318	695.809937807751	67
9	323	710.890754137985	68
9	324	712.13626140228	69
9	327	713.815131280026	70
9	330	718.739576234043	71
9	333	731.057545952627	72
9	341	762.67422361897	73
9	357	787.612421559192	74
9	358	790.772736147279	75
9	359	792.17025700513	76
9	360	793.691387095858	77
9	363	811.783570682961	78
9	381	831.520371688967	79
9	389	854.01756324056	80
9	392	871.002527591033	81
9	393	874.224051227113	82
9	396	879.085680222393	83
9	403	894.422474072238	84
9	411	913.511006086823	85
9	412	914.656500079164	86
9	415	919.595839979899	87
9	418	924.738554373764	88
9	421	926.966530685598	89
9	424	929.264475789856	90
9	427	938.278067014182	91
9	433	949.889143245638	92
9	455	992.964085639552	93
9	456	1002.331078455905	94
9	459	1019.399605483484	95
9	460	1019.516363407832	96
9	465	1023.458218289143	97
9	466	1028.631790926353	98
9	475	1037.179741748851	99
9	478	1040.784664224366	100
9	479	1042.829656646961	101
9	484	1045.979100906357	102
9	485	1046.38630525763	103
9	502	1069.135588034544	104
9	503	1069.895775232108	105
9	504	1074.341360909103	106
9	509	1096.755737695866	107
9	510	1101.330885224689	108
9	511	1102.092611745805	109
9	512	1107.111338607042	110
9	513	1112.848448321955	111
9	514	1121.445586260924	112
9	515	1121.796289738278	113
9	516	1124.254565271771	114
9	517	1126.059810169249	115
9	518	1139.460195914071	116
9	526	1146.126817745179	117
9	527	1146.732897035076	118
9	534	1163.764770687351	119
9	538	1172.30708284176	120
9	539	1178.09995704434	121
9	540	1180.743174566284	122
9	545	1182.298492534786	123
9	552	1190.411858850729	124
9	557	1196.665075185528	125
9	563	1212.135175158049	126
9	564	1213.858958292045	127
9	565	1218.963356744006	128
9	573	1230.814137333003	129
9	574	1246.158045323015	130
9	575	1246.456213308033	131
9	596	1293.066971133899	132
9	597	1295.71390405268	133
9	607	1326.839726931762	134
9	610	1347.962374852137	135
9	613	1348.836333853231	136
9	614	1350.180900786959	137
9	617	1358.423823960416	138
9	618	1359.995414185159	139
9	619	1367.338694872711	140
9	623	1378.668568743292	141
9	624	1381.395929967343	142
9	627	1392.143927819705	143
9	636	1427.739698686151	144
9	639	1434.011028807727	145
9	645	1458.377078632265	146
9	648	1474.343675863387	147
9	651	1496.229096462656	148
9	654	1498.983206786881	149
9	660	1507.675568717322	150
9	668	1519.489804113299	151
9	669	1520.189054287288	152
9	672	1520.582532124488	153
9	680	1525.542368949844	154
9	681	1527.740638542798	155
9	689	1545.137336177282	156
9	690	1554.535365475344	157
9	693	1564.264769219687	158
9	699	1572.84095097245	159
9	702	1596.419690228308	160
9	707	1628.897961935807	161
9	711	1648.158382950174	162
9	714	1660.393075952632	163
9	717	1669.449531996215	164
9	720	1679.974495177982	165
9	723	1696.194396046204	166
9	730	1713.499646541521	167
9	731	1714.216803526015	168
9	732	1718.669595673625	169
9	741	1729.762905224281	170
9	752	1758.464765692359	171
9	753	1759.724374492213	172
9	754	1761.325890630311	173
9	755	1762.482603292714	174
9	756	1763.032043855796	175
9	776	1793.612924155392	176
9	777	1797.318120068944	177
9	792	1835.387833047087	178
9	793	1837.013189820592	179
9	794	1841.87773495512	180
9	812	1874.728936587992	181
9	813	1891.950364797637	182
9	829	1918.655162562758	183
9	832	1927.116593141542	184
9	833	1928.818155258464	185
9	834	1930.742986566724	186
9	842	1963.891158418328	187
9	849	1974.494007520326	188
9	870	2020.741074706152	189
9	873	2026.201426891661	190
9	874	2026.700204077746	191
9	877	2034.220155703054	192
9	878	2041.057913315993	193
9	883	2049.463798085032	194
9	884	2051.594860064746	195
9	885	2054.80494218402	196
9	888	2064.596283049992	197
9	891	2066.617355640184	198
9	900	2091.857367228342	199
9	907	2099.688310443496	200
9	908	2100.209034581102	201
9	912	2115.787627988003	202
9	913	2129.954108088984	203
9	919	2138.988529401789	204
9	920	2140.718181902567	205
9	934	2157.876810805765	206
9	935	2158.879905541845	207
9	936	2160.399967816033	208
9	942	2173.029482545095	209
9	962	2205.1365536716	210
9	963	2209.144716046336	211
9	972	2234.607906651178	212
9	973	2235.392944116572	213
9	974	2252.629304137423	214
9	975	2259.650949598308	215
9	976	2261.750603770565	216
9	977	2267.186099562436	217
9	981	2281.58101768978	218
9	982	2282.726022738741	219
9	990	2300.553796419293	220
9	993	2314.514193612066	221
9	994	2316.316020047189	222
9	995	2317.770932608138	223
9	996	2319.418864383779	224
9	1002	2342.560634669023	225
9	1006	2350.788606791646	226
9	1007	2351.711883359755	227
9	1008	2353.37003722343	228
9	1014	2366.324425500951	229
9	1022	2379.565110413612	230
9	1025	2384.964295124576	231
9	1028	2393.067850293498	232
9	1035	2405.232693325979	233
9	1040	2422.961630391974	234
9	1047	2434.604944823192	235
9	1048	2435.275766500938	236
9	1049	2448.591664979581	237
9	1050	2449.68761633898	238
9	1058	2469.726702361961	239
9	1059	2469.769705184714	240
9	1068	2481.92059171572	241
9	1069	2483.447032161043	242
9	1070	2486.307949309919	243
9	1074	2489.312021185009	244
9	1077	2494.366406718045	245
10	156	361.42408824441	56.067590901972
10	157	364.546318897401	47.016566753422
10	162	370.005047407987	37.44079794024
10	177	399.701120172271	42.590846410544
10	180	406.271497634397	45.489151071143
10	184	410.490281424991	44.679827856633
10	185	413.877737382103	46.464837595737
10	201	433.340922148656	47.506509120842
10	202	436.13782690644	49.560934089258
10	212	447.929755242857	38.728848010107
10	225	459.89024858238	39.820645319058
10	230	467.055924946795	38.770011966949
10	233	470.474700222114	38.454009901567
10	234	473.558642456311	41.030073199443
10	235	478.228523733575	40.23520297651
10	236	482.352740094298	39.439291717862
10	239	496.095609875388	51.292479745984
10	253	550.170071130639	100.76858138366
10	258	560.010407824185	108.78895504624
10	259	564.731007901169	111.42472321037
10	260	566.117242377166	111.54075390963
10	261	567.444050118673	107.24105465931
10	265	571.458120082815	104.23423253585
10	266	572.079550911649	87.248477103078
10	267	574.987951797405	64.600825907551
10	282	594.874849667206	65.705420217669
10	288	617.595141080377	59.771142881882
10	291	618.54212252227	50.047158793992
10	292	621.611141945127	43.979925157979
10	296	633.713659718235	50.612793527627
10	297	636.274841874313	52.847061987808
10	303	650.386661452111	58.368418357679
10	307	675.531980828616	67.44443967101
10	308	677.221283477254	58.687744455158
10	309	678.968523900143	54.152407023329
10	312	684.369075917686	44.30858093789
10	313	685.541181337202	43.346479871019
10	314	691.031480826822	22.466214636728
10	315	691.281522968447	8.302372144264
10	318	695.809937807751	0.659080737462
10	323	710.890754137985	11.923275833134
10	324	712.13626140228	10.55886923571
10	327	713.815131280026	0.623137476195
10	330	718.739576234043	0.246893196266
10	333	731.057545952627	8.493497844302
10	341	762.67422361897	1.645967953557
10	357	787.612421559192	20.292290543258
10	358	790.772736147279	21.103683523232
10	359	792.17025700513	15.798371887719
10	360	793.691387095858	14.299534079671
10	363	811.783570682961	7.650629025991
10	381	831.520371688967	14.065090760179
10	389	854.01756324056	30.380104784032
10	392	871.002527591033	39.494133646124
10	393	874.224051227113	40.156411211759
10	396	879.085680222393	35.707890857047
10	403	894.422474072238	43.077118012422
10	411	913.511006086823	34.966255033282
10	412	914.656500079164	26.67454283172
10	415	919.595839979899	31.19737924686
10	418	924.738554373764	33.854301488438
10	421	926.966530685598	25.11313734113
10	424	929.264475789856	27.010311796676
10	427	938.278067014182	32.264605253647
10	433	949.889143245638	26.801682452344
10	455	992.964085639552	53.580235720379
10	456	1002.331078455905	54.306801875523
10	459	1019.399605483484	63.484171220759
10	460	1019.516363407832	48.715995503883
10	465	1023.458218289143	47.956313355353
10	466	1028.631790926353	46.32490394708
10	475	1037.179741748851	53.649289224137
10	478	1040.784664224366	53.904696813634
10	479	1042.829656646961	31.837322593316
10	484	1045.979100906357	24.665385678672
10	485	1046.38630525763	24.130460550747
10	502	1069.135588034544	37.846718767094
10	503	1069.895775232108	36.670718733485
10	504	1074.341360909103	38.681407460584
10	509	1096.755737695866	58.203914490024
10	510	1101.330885224689	57.938727488131
10	511	1102.092611745805	56.673358148457
10	512	1107.111338607042	51.226315489267
10	513	1112.848448321955	54.052869752006
10	514	1121.445586260924	62.402699094775
10	515	1121.796289738278	59.808963490555
10	516	1124.254565271771	61.513073903818
10	517	1126.059810169249	60.369257661278
10	518	1139.460195914071	51.253545329111
10	526	1146.126817745179	5.65126317793
10	527	1146.732897035076	5.131017939222
10	534	1163.764770687351	18.447782689565
10	538	1172.30708284176	12.800499776033
10	539	1178.09995704434	18.512258839487
10	540	1180.743174566284	15.033253228344
10	545	1182.298492534786	0.367851638779
10	552	1190.411858850729	8.258952554851
10	557	1196.665075185528	13.89620804059
10	563	1212.135175158049	25.350794560683
10	564	1213.858958292045	21.715591691012
10	565	1218.963356744006	26.442841781331
10	573	1230.814137333003	19.008409065409
10	574	1246.158045323015	22.284100230236
10	575	1246.456213308033	21.711774627019
10	596	1293.066971133899	14.962852645719
10	597	1295.71390405268	13.982510252978
10	607	1326.839726931762	36.852573801513
10	610	1347.962374852137	57.709523669095
10	613	1348.836333853231	52.444832100499
10	614	1350.180900786959	47.034300751333
10	617	1358.423823960416	46.150739149572
10	618	1359.995414185159	43.60628942751
10	619	1367.338694872711	20.487895460869
10	623	1378.668568743292	22.331386852428
10	624	1381.395929967343	7.905734802434
10	627	1392.143927819705	7.356377480506
10	636	1427.739698686151	22.741102681264
10	639	1434.011028807727	3.285637200789
10	645	1458.377078632265	6.337918136583
10	648	1474.343675863387	7.832776458332
10	651	1496.229096462656	4.312881306313
10	654	1498.983206786881	1.916228209022
10	660	1507.675568717322	3.453814229975
10	668	1519.489804113299	9.31830978279
10	669	1520.189054287288	7.640225230439
10	672	1520.582532124488	0.055297417184
10	680	1525.542368949844	0.577910828934
10	681	1527.740638542798	2.41281838008
10	689	1545.137336177282	3.307828085846
10	690	1554.535365475344	11.25928162056
10	693	1564.264769219687	3.679171375389
10	699	1572.84095097245	2.182943373035
10	702	1596.419690228308	0.595443980413
10	707	1628.897961935807	6.402072678948
10	711	1648.158382950174	17.229718968483
10	714	1660.393075952632	6.70813150694
10	717	1669.449531996215	0.375272396729
10	720	1679.974495177982	2.614237968297
10	723	1696.194396046204	0.021436851371
10	730	1713.499646541521	14.943720473954
10	731	1714.216803526015	13.162823754602
10	732	1718.669595673625	9.830263272308
10	741	1729.762905224281	8.704837930722
10	752	1758.464765692359	31.326978167058
10	753	1759.724374492213	30.99077692332
10	754	1761.325890630311	31.232155038507
10	755	1762.482603292714	25.288498768474
10	756	1763.032043855796	19.973953363265
10	776	1793.612924155392	27.864754779249
10	777	1797.318120068944	21.524721635858
10	792	1835.387833047087	46.11077366921
10	793	1837.013189820592	37.901979461176
10	794	1841.87773495512	41.318316314946
10	812	1874.728936587992	43.7288546471
10	813	1891.950364797637	59.939454850494
10	829	1918.655162562758	56.425575879627
10	832	1927.116593141542	60.278332967607
10	833	1928.818155258464	57.823508008189
10	834	1930.742986566724	56.690089825509
10	842	1963.891158418328	63.431568711991
10	849	1974.494007520326	70.014056757887
10	870	2020.741074706152	68.934303093948
10	873	2026.201426891661	64.335174689668
10	874	2026.700204077746	56.406543736278
10	877	2034.220155703054	60.612379754416
10	878	2041.057913315993	67.316255815426
10	883	2049.463798085032	74.909789283141
10	884	2051.594860064746	69.786371938744
10	885	2054.80494218402	68.442479302594
10	888	2064.596283049992	75.126383153035
10	891	2066.617355640184	73.018375644662
10	900	2091.857367228342	94.675350322305
10	907	2099.688310443496	84.80883641271
10	908	2100.209034581102	75.869958868729
10	912	2115.787627988003	72.942911364786
10	913	2129.954108088984	82.583525361842
10	919	2138.988529401789	72.677681393153
10	920	2140.718181902567	73.938804003106
10	934	2157.876810805765	63.608330485055
10	935	2158.879905541845	64.567933290762
10	936	2160.399967816033	63.8631230763
10	942	2173.029482545095	42.874817842975
10	962	2205.1365536716	63.936554292196
10	963	2209.144716046336	62.809389549645
10	972	2234.607906651178	82.952631893314
10	973	2235.392944116572	83.395247741454
10	974	2252.629304137423	88.605601489151
10	975	2259.650949598308	89.550294020202
10	976	2261.750603770565	85.914661056713
10	977	2267.186099562436	89.781142751427
10	981	2281.58101768978	95.129278329738
10	982	2282.726022738741	92.454831380378
10	990	2300.553796419293	91.211873481468
10	993	2314.514193612066	96.395333632684
10	994	2316.316020047189	92.127885289877
10	995	2317.770932608138	49.786422375435
10	996	2319.418864383779	36.538781670787
10	1002	2342.560634669023	43.990661515554
10	1006	2350.788606791646	23.214486533506
10	1007	2351.711883359755	10.044965681844
10	1008	2353.37003722343	9.579236451475
10	1014	2366.324425500951	5.132406834296
10	1022	2379.565110413612	5.209794443625
10	1025	2384.964295124576	6.195845426733
10	1028	2393.067850293498	11.238417936855
10	1035	2405.232693325979	19.865092892508
10	1040	2422.961630391974	24.353106058324
10	1047	2434.604944823192	32.397707088829
10	1048	2435.275766500938	27.053732779677
10	1049	2448.591664979581	30.573871204746
10	1050	2449.68761633898	24.017919439252
10	1058	2469.726702361961	13.572771492547
10	1059	2469.769705184714	6.106544461844
10	1068	2481.92059171572	11.964953318594
10	1069	2483.447032161043	11.921484510689
10	1070	2486.307949309919	14.452599017812
10	1074	2489.312021185009	2.387638841397
10	1077	2494.366406718045	2.542234483506
11	1078	2500	0.098
12	1078	2500	0.0456

