version 2
run experiments_medium_game_mode1-538-20230311-09:41:48-11378
attr configname experiments_medium_game_mode1
attr datetime 20230311-09:41:48
attr experiment experiments_medium_game_mode1
attr inifile omnetpp.ini
attr iterationvars "$0=5.5, $1=6, $2=100"
attr iterationvarsf 5.5,6,100-
attr measurement "$0=5.5, $1=6, $2=100"
attr network Network
attr processid 11378
attr repetition 28
attr replication #28
attr resultdir results
attr runnumber 538
attr seedset 28
param *.boss.arrival_mean 20
param *.boss.service_mean 5.5
param *.minion.arrival_mean 10
param *.minion.service_mean 6
param *.player.recover_rate_x 100
param **.minion.arrival_distribution 0
param **.minion.service_distribution 0
param **.boss.arrival_distribution 0
param **.boss.service_distribution 0

vector 0 Network.player minion_jobs_number_stat:vector ETV
attr source signal_minion_jobs_number
vector 1 Network.player minion_jobs_queue_number_stat:vector ETV
attr source signal_minion_jobs_queue_number
vector 2 Network.player minion_defeated_stat:vector ETV
attr source signal_minion_defeated
vector 3 Network.player minion_response_time_stat:vector ETV
attr source signal_minion_response_time
vector 4 Network.player minion_waiting_time_stat:vector ETV
attr source signal_minion_waiting_time
vector 5 Network.player boss_jobs_number_stat:vector ETV
attr source signal_boss_jobs_number
vector 6 Network.player boss_jobs_queue_number_stat:vector ETV
attr source signal_boss_jobs_queue_number
vector 7 Network.player minion_recovered_stat:vector ETV
attr source signal_minion_recovered
vector 8 Network.player boss_waiting_time_stat:vector ETV
attr source signal_boss_waiting_time
vector 9 Network.player boss_defeated_stat:vector ETV
attr source signal_boss_defeated
vector 10 Network.player boss_response_time_stat:vector ETV
attr source signal_boss_response_time
vector 11 Network.player minion_throughput:vector ETV
attr source signal_minion_throughput
vector 12 Network.player boss_throughput:vector ETV
attr source signal_boss_throughput
0	164	350.294513694894	7
0	167	363.639385191236	7
0	180	395.967732442049	7
0	186	427.159591447421	8
0	188	432.765782918222	9
0	197	449.947678496786	7
0	199	454.945726975953	8
0	206	459.176667775983	6
0	221	486.255948306324	4
0	223	491.012857394079	5
0	225	491.777575685855	6
0	230	507.137759544897	6
0	234	512.556181913125	6
0	236	513.4579622533	7
0	240	527.808006862067	6
0	243	535.706216348722	6
0	246	538.604951992273	6
0	249	540.375021267488	6
0	254	560.447999415621	6
0	256	563.873884554785	7
0	259	571.726134409241	8
0	261	572.186659351179	9
0	264	582.163489332664	9
0	268	586.200971562991	8
0	271	586.801018141556	8
0	277	600.139297678135	9
0	288	621.370227739097	10
0	294	639.646881293396	11
0	302	659.060776399104	10
0	308	671.417531041499	7
0	310	674.211585846454	8
0	312	676.299076244988	9
0	316	693.681225810529	8
0	329	736.134221527032	1
0	332	747.297448632487	1
0	335	752.207732643532	1
0	338	758.413090383666	1
0	341	765.407851661881	1
0	344	770.463541129355	1
0	347	784.88289423812	1
0	353	792.246328686303	1
0	356	803.757996106487	1
0	362	830.613305193708	1
0	365	843.413113944246	1
0	368	849.294871178456	1
0	371	851.704791292802	1
0	374	852.417378293355	1
0	378	866.818236715752	2
0	380	869.09392381702	3
0	382	869.875876308415	4
0	386	876.496034911976	4
0	389	885.934984987796	4
0	391	886.335462395712	5
0	395	891.880284731485	6
0	400	900.205063499668	7
0	402	902.875379046943	8
0	408	908.889970047335	9
0	414	916.853486259358	8
0	416	917.693032700502	9
0	420	926.294494189633	9
0	422	926.930844007641	10
0	426	934.871934789699	11
0	429	935.994326362746	12
0	432	937.677465601314	12
0	437	944.889580167609	10
0	444	954.901572751685	11
0	454	971.368637164473	12
0	456	972.524355441693	13
0	461	979.736233024576	13
0	463	980.954520292716	14
0	466	985.458950389984	14
0	470	992.314140590091	13
0	474	1011.689877239094	12
0	477	1016.425793707413	12
0	480	1023.747950625016	12
0	491	1062.408896828515	9
0	495	1073.920307508341	9
0	498	1086.412763685241	9
0	511	1129.504131067294	10
0	513	1130.137690966545	11
0	521	1142.125729052923	10
0	533	1165.179712411229	9
0	535	1165.298295139806	10
0	552	1194.743970844658	3
0	559	1217.401377583172	1
0	563	1235.076840789736	2
0	566	1237.656652970642	3
0	568	1239.329840174216	4
0	571	1242.417205123507	5
0	576	1253.007032138073	6
0	580	1270.715093928246	5
0	586	1287.140139812766	5
0	596	1311.575579480774	1
0	598	1312.641631723577	2
0	602	1316.994823514032	1
0	604	1318.060865432187	2
0	608	1328.019285020217	1
0	611	1330.670337975008	1
0	613	1333.970644627878	2
0	615	1340.742713307508	3
0	621	1346.771012237382	2
0	623	1351.270470131262	3
0	626	1359.232090685853	4
0	628	1359.562117816025	5
0	630	1360.141407267009	6
0	632	1362.380936788234	7
0	634	1362.446556802255	8
0	637	1364.573313357586	8
0	639	1371.430722611907	9
0	643	1376.481791297443	8
0	649	1388.535971260675	5
0	652	1390.92568428937	5
0	654	1396.260086775359	6
0	657	1398.526102203502	6
0	661	1413.164292923553	5
0	670	1438.443018201108	4
0	674	1446.242418118421	4
0	676	1452.889507469076	5
0	678	1454.61648399024	6
0	681	1457.106807366308	6
0	686	1463.341150504445	6
0	688	1464.518839651967	7
0	691	1465.471329612148	8
0	693	1465.677038760284	9
0	700	1474.210476258838	10
0	704	1476.798781879275	10
0	710	1482.087081506948	11
0	712	1482.241627916752	12
0	720	1490.828201086264	13
0	722	1491.60009994703	14
0	738	1528.860948272361	12
0	744	1535.771305000355	13
0	747	1542.574818051796	14
0	749	1546.140151323238	15
0	752	1550.28545153088	16
0	754	1550.620890325931	17
0	756	1550.911886505854	18
0	758	1551.388269856311	19
0	777	1610.406475456756	17
0	779	1619.737148409179	18
0	784	1623.255613144863	19
0	790	1636.170622927085	17
0	796	1647.276199399388	14
0	803	1653.367597601162	13
0	813	1677.043312469711	12
0	815	1677.669644042182	13
0	824	1696.856404307526	10
0	826	1700.616095823832	11
0	828	1703.81731854165	12
0	830	1703.958884704604	13
0	840	1721.840881323087	9
0	843	1738.639292207234	9
0	845	1740.28301290746	10
0	847	1741.94231495916	11
0	850	1746.278323822409	11
0	852	1747.132978468727	12
0	856	1763.744959369342	11
0	859	1766.832317197775	11
0	867	1781.194061412384	6
0	870	1784.007172870224	6
0	873	1791.444793225007	6
0	888	1818.767574374127	2
0	891	1823.912494308424	3
0	895	1825.031935837156	4
0	897	1826.742113535859	5
0	899	1829.177898004458	6
0	902	1830.475974871447	7
0	904	1832.727478097734	8
0	906	1837.836836424692	9
0	908	1849.063043979003	10
0	911	1855.172356944006	10
0	913	1857.001293247168	11
0	915	1858.512785288162	12
0	918	1865.0163181571	12
0	922	1870.890209302152	11
0	927	1882.319536835075	11
0	929	1894.652070974355	12
0	933	1897.0452703193	12
0	936	1901.13905651228	12
0	938	1906.165645035977	13
0	941	1911.414594258261	13
0	943	1913.696463255112	14
0	949	1918.988644349112	13
0	951	1921.236140018328	14
0	953	1925.822683503792	15
0	956	1930.040236147994	16
0	960	1942.644956077952	15
0	964	1954.128819601869	14
0	966	1954.985926865917	15
0	974	1976.050555183861	10
0	977	1988.908814795108	10
0	982	1994.899296821272	8
0	984	2000.710797375236	9
0	988	2017.872222831108	8
0	991	2023.586400580186	8
0	993	2035.149372275751	9
0	995	2036.383769932827	10
0	999	2052.6402209119	11
0	1001	2053.438782548318	12
0	1003	2056.466399041406	13
0	1008	2067.862028175937	14
0	1011	2076.376692711629	15
0	1015	2081.776984030721	14
0	1017	2083.457158291611	15
0	1025	2105.145380865089	10
0	1032	2135.309728064205	6
0	1037	2154.455229077172	4
0	1040	2156.522746367308	4
0	1044	2169.554756261325	3
0	1046	2170.07863638295	4
0	1059	2198.576693982376	2
0	1062	2201.61030075626	3
0	1064	2203.10283473555	4
0	1066	2204.885680249809	5
0	1068	2212.638258954712	6
0	1072	2229.449308528692	5
0	1074	2233.203004793729	6
0	1076	2234.707007767304	7
0	1079	2242.872358595071	7
0	1085	2255.528460384978	7
0	1093	2271.690803451792	5
0	1095	2277.261690615057	6
0	1098	2286.562431843466	6
0	1100	2288.617014748565	7
0	1102	2290.195723633174	8
0	1104	2291.789356918091	9
0	1106	2294.486130733997	10
0	1108	2301.721929275329	11
0	1110	2304.632968356191	12
0	1120	2330.756959188175	11
0	1127	2347.337730131784	10
0	1129	2347.355279760539	11
0	1131	2347.821212135755	12
0	1134	2349.35594733363	12
0	1136	2353.101277890705	13
0	1139	2357.587073636544	13
0	1141	2360.550717446282	14
0	1149	2392.293092303921	9
0	1155	2398.988939380238	9
0	1158	2399.35765296574	9
0	1161	2405.934133730232	9
0	1165	2415.654602181887	8
0	1176	2440.870673671743	8
0	1178	2444.982830372601	9
0	1181	2454.204788739677	10
0	1184	2463.184025075622	10
0	1186	2463.460184766505	11
1	164	350.294513694894	6
1	165	359.105407065084	6
1	167	363.639385191236	6
1	168	378.461381887321	6
1	180	395.967732442049	6
1	186	427.159591447421	7
1	188	432.765782918222	8
1	190	436.906669997324	8
1	194	444.473303566958	7
1	195	444.958664479282	6
1	197	449.947678496786	6
1	199	454.945726975953	7
1	200	455.682165369781	7
1	201	456.281909982389	6
1	202	456.897787536913	5
1	206	459.176667775983	5
1	208	459.975101911037	5
1	209	468.13992593899	4
1	216	482.954804183236	3
1	221	486.255948306324	3
1	223	491.012857394079	4
1	225	491.777575685855	5
1	226	497.012202106193	5
1	230	507.137759544897	5
1	232	511.261036244124	5
1	234	512.556181913125	5
1	236	513.4579622533	6
1	237	514.380387079767	6
1	238	518.745670594764	5
1	240	527.808006862067	5
1	241	529.803100758919	5
1	243	535.706216348722	5
1	244	538.563510196875	5
1	246	538.604951992273	5
1	247	539.186265383192	5
1	249	540.375021267488	5
1	250	548.424265784519	5
1	254	560.447999415621	5
1	256	563.873884554785	6
1	259	571.726134409241	7
1	261	572.186659351179	8
1	262	578.21083547259	8
1	264	582.163489332664	8
1	265	584.802362109589	8
1	266	585.544747986851	7
1	268	586.200971562991	7
1	269	586.697375767415	7
1	271	586.801018141556	7
1	277	600.139297678135	8
1	288	621.370227739097	9
1	294	639.646881293396	10
1	296	652.45691238406	10
1	297	653.929949187856	9
1	302	659.060776399104	9
1	303	660.914832189558	9
1	304	661.87788760983	8
1	305	665.312936893697	7
1	306	666.532415088085	6
1	308	671.417531041499	6
1	310	674.211585846454	7
1	312	676.299076244988	8
1	313	679.439427783686	8
1	314	692.647970002384	7
1	316	693.681225810529	7
1	317	702.867900054309	7
1	318	704.37869596958	6
1	319	704.609721318888	5
1	320	708.016525185526	4
1	321	713.351780346503	3
1	322	713.760807270617	2
1	323	715.708556674055	1
1	324	715.762267050367	0
1	329	736.134221527032	0
1	330	740.609993701426	0
1	332	747.297448632487	0
1	333	747.563377915612	0
1	335	752.207732643532	0
1	336	754.009152838882	0
1	338	758.413090383666	0
1	339	759.39014091627	0
1	341	765.407851661881	0
1	342	769.924580415082	0
1	344	770.463541129355	0
1	345	773.557866706028	0
1	347	784.88289423812	0
1	351	791.515155800169	0
1	353	792.246328686303	0
1	354	798.17476431454	0
1	356	803.757996106487	0
1	357	808.471706096625	0
1	362	830.613305193708	0
1	363	835.964524872437	0
1	365	843.413113944246	0
1	366	845.075992597902	0
1	368	849.294871178456	0
1	369	849.599493028303	0
1	371	851.704791292802	0
1	372	852.298663655234	0
1	374	852.417378293355	0
1	378	866.818236715752	1
1	380	869.09392381702	2
1	382	869.875876308415	3
1	384	876.231860847049	3
1	386	876.496034911976	3
1	387	877.492235542574	3
1	389	885.934984987796	3
1	391	886.335462395712	4
1	395	891.880284731485	5
1	400	900.205063499668	6
1	402	902.875379046943	7
1	408	908.889970047335	8
1	409	909.185851737734	8
1	410	911.260600665884	7
1	414	916.853486259358	7
1	416	917.693032700502	8
1	418	926.24493485415	8
1	420	926.294494189633	8
1	422	926.930844007641	9
1	426	934.871934789699	10
1	429	935.994326362746	11
1	430	937.30672295559	11
1	432	937.677465601314	11
1	433	939.4442105874	11
1	434	941.356064952834	10
1	435	942.251425470064	9
1	437	944.889580167609	9
1	444	954.901572751685	10
1	454	971.368637164473	11
1	456	972.524355441693	12
1	459	975.924815815474	12
1	461	979.736233024576	12
1	463	980.954520292716	13
1	464	982.351168097338	13
1	466	985.458950389984	13
1	467	987.819188106195	13
1	468	988.974278909495	12
1	470	992.314140590091	12
1	471	1000.075959774101	12
1	472	1009.565462919704	11
1	474	1011.689877239094	11
1	475	1014.189104479908	11
1	477	1016.425793707413	11
1	478	1019.666200455566	11
1	480	1023.747950625016	11
1	481	1026.094562587844	11
1	482	1032.66984289603	10
1	483	1038.396707146375	9
1	484	1044.523202124738	8
1	491	1062.408896828515	8
1	493	1068.489498019306	8
1	495	1073.920307508341	8
1	496	1076.334101815564	8
1	498	1086.412763685241	8
1	511	1129.504131067294	9
1	513	1130.137690966545	10
1	515	1135.022376021141	10
1	516	1136.045080976164	9
1	521	1142.125729052923	9
1	525	1149.109461501022	9
1	529	1159.43656418246	8
1	533	1165.179712411229	8
1	535	1165.298295139806	9
1	540	1178.102301523878	9
1	541	1178.622087120215	8
1	542	1181.698464766682	7
1	543	1185.65239466094	6
1	544	1188.658394502489	5
1	545	1190.322452638584	4
1	549	1193.229091993291	3
1	550	1193.4350716781	2
1	552	1194.743970844658	2
1	553	1202.632393497784	2
1	554	1211.986720477096	1
1	555	1213.827330102852	0
1	559	1217.401377583172	0
1	563	1235.076840789736	1
1	566	1237.656652970642	2
1	568	1239.329840174216	3
1	571	1242.417205123507	4
1	576	1253.007032138073	5
1	577	1258.71448573479	5
1	578	1260.154487932313	4
1	580	1270.715093928246	4
1	584	1286.717965105967	4
1	586	1287.140139812766	4
1	587	1290.789741010273	4
1	588	1293.057392547518	3
1	589	1295.060592709799	2
1	590	1302.360738667333	1
1	594	1310.052188240081	0
1	596	1311.575579480774	0
1	598	1312.641631723577	1
1	599	1314.978809924312	1
1	600	1316.342041677423	0
1	602	1316.994823514032	0
1	604	1318.060865432187	1
1	605	1320.92452958934	1
1	606	1327.840908512878	0
1	608	1328.019285020217	0
1	609	1329.190704884336	0
1	611	1330.670337975008	0
1	613	1333.970644627878	1
1	615	1340.742713307508	2
1	616	1341.556128389717	2
1	617	1342.675850540859	1
1	621	1346.771012237382	1
1	623	1351.270470131262	2
1	626	1359.232090685853	3
1	628	1359.562117816025	4
1	630	1360.141407267009	5
1	632	1362.380936788234	6
1	634	1362.446556802255	7
1	635	1363.485890038096	7
1	637	1364.573313357586	7
1	639	1371.430722611907	8
1	640	1371.58359310492	8
1	641	1374.006111855038	7
1	643	1376.481791297443	7
1	644	1378.041195981521	7
1	645	1378.944672258498	6
1	646	1383.999003317405	5
1	647	1385.200562175392	4
1	649	1388.535971260675	4
1	650	1388.664732637444	4
1	652	1390.92568428937	4
1	654	1396.260086775359	5
1	655	1397.539175013548	5
1	657	1398.526102203502	5
1	658	1406.698340119411	5
1	659	1407.500257986161	4
1	661	1413.164292923553	4
1	665	1432.894826387442	4
1	666	1435.627581072501	3
1	670	1438.443018201108	3
1	672	1446.222716353284	3
1	674	1446.242418118421	3
1	676	1452.889507469076	4
1	678	1454.61648399024	5
1	679	1454.771996729891	5
1	681	1457.106807366308	5
1	682	1461.943008826073	5
1	686	1463.341150504445	5
1	688	1464.518839651967	6
1	691	1465.471329612148	7
1	693	1465.677038760284	8
1	700	1474.210476258838	9
1	702	1474.678055484851	9
1	704	1476.798781879275	9
1	710	1482.087081506948	10
1	712	1482.241627916752	11
1	720	1490.828201086264	12
1	722	1491.60009994703	13
1	725	1500.341456031053	13
1	729	1513.133532907387	12
1	736	1527.441785888431	11
1	738	1528.860948272361	11
1	744	1535.771305000355	12
1	747	1542.574818051796	13
1	749	1546.140151323238	14
1	752	1550.28545153088	15
1	754	1550.620890325931	16
1	756	1550.911886505854	17
1	758	1551.388269856311	18
1	759	1557.077949386262	18
1	763	1576.453224049315	17
1	773	1600.078983190354	16
1	777	1610.406475456756	16
1	779	1619.737148409179	17
1	784	1623.255613144863	18
1	786	1628.687419065611	18
1	787	1629.768174598433	17
1	788	1632.58839495645	16
1	790	1636.170622927085	16
1	791	1637.430230477253	16
1	792	1638.104146323834	15
1	793	1640.181521947561	14
1	794	1643.073021185128	13
1	796	1647.276199399388	13
1	797	1650.314726883663	13
1	801	1652.233458696674	12
1	803	1653.367597601162	12
1	804	1662.120161193066	12
1	811	1675.491212347824	11
1	813	1677.043312469711	11
1	815	1677.669644042182	12
1	816	1677.696601144754	12
1	817	1680.001420020519	11
1	818	1688.082228857426	10
1	819	1688.62079533489	9
1	824	1696.856404307526	9
1	826	1700.616095823832	10
1	828	1703.81731854165	11
1	830	1703.958884704604	12
1	831	1705.378990831528	12
1	832	1709.3661457492	11
1	833	1717.182947460692	10
1	834	1717.765372925816	9
1	838	1721.585374544009	8
1	840	1721.840881323087	8
1	841	1737.615834451735	8
1	843	1738.639292207234	8
1	845	1740.28301290746	9
1	847	1741.94231495916	10
1	848	1744.384126039881	10
1	850	1746.278323822409	10
1	852	1747.132978468727	11
1	853	1751.442263655479	11
1	854	1755.99593286271	10
1	856	1763.744959369342	10
1	857	1766.429982103252	10
1	859	1766.832317197775	10
1	860	1767.593042579431	10
1	861	1768.77308513056	9
1	862	1770.220110739747	8
1	863	1774.744170689382	7
1	864	1774.865373495287	6
1	865	1775.209495335105	5
1	867	1781.194061412384	5
1	868	1783.137715233301	5
1	870	1784.007172870224	5
1	871	1789.059188867781	5
1	873	1791.444793225007	5
1	874	1795.925466487623	5
1	875	1799.892136062215	4
1	879	1801.455383861048	3
1	880	1802.880350868188	2
1	881	1803.278023094289	1
1	888	1818.767574374127	1
1	891	1823.912494308424	2
1	895	1825.031935837156	3
1	897	1826.742113535859	4
1	899	1829.177898004458	5
1	902	1830.475974871447	6
1	904	1832.727478097734	7
1	906	1837.836836424692	8
1	908	1849.063043979003	9
1	909	1854.26507156336	9
1	911	1855.172356944006	9
1	913	1857.001293247168	10
1	915	1858.512785288162	11
1	916	1863.520927397049	11
1	918	1865.0163181571	11
1	919	1866.711604527043	11
1	920	1870.332965714514	10
1	922	1870.890209302152	10
1	923	1879.132407258629	10
1	927	1882.319536835075	10
1	929	1894.652070974355	11
1	931	1895.439830647426	11
1	933	1897.0452703193	11
1	934	1897.93066404189	11
1	936	1901.13905651228	11
1	938	1906.165645035977	12
1	939	1909.024865579213	12
1	941	1911.414594258261	12
1	943	1913.696463255112	13
1	944	1914.526787995812	13
1	945	1915.028992228687	12
1	949	1918.988644349112	12
1	951	1921.236140018328	13
1	953	1925.822683503792	14
1	956	1930.040236147994	15
1	957	1936.642964808781	15
1	958	1936.867319614774	14
1	960	1942.644956077952	14
1	961	1948.044946465735	14
1	962	1952.919074022455	13
1	964	1954.128819601869	13
1	966	1954.985926865917	14
1	967	1956.234518769902	14
1	968	1962.520606548996	13
1	969	1968.4079809406	12
1	970	1970.38458685705	11
1	971	1975.392706069021	10
1	972	1975.547876292549	9
1	974	1976.050555183861	9
1	975	1978.644601854441	9
1	977	1988.908814795108	9
1	978	1990.236086988875	9
1	979	1991.246107311248	8
1	980	1991.306226555743	7
1	982	1994.899296821272	7
1	984	2000.710797375236	8
1	985	2001.628015284915	8
1	986	2014.823185951712	7
1	988	2017.872222831108	7
1	989	2020.600373130156	7
1	991	2023.586400580186	7
1	993	2035.149372275751	8
1	995	2036.383769932827	9
1	999	2052.6402209119	10
1	1001	2053.438782548318	11
1	1003	2056.466399041406	12
1	1008	2067.862028175937	13
1	1011	2076.376692711629	14
1	1012	2079.77938978091	14
1	1013	2081.461222365935	13
1	1015	2081.776984030721	13
1	1017	2083.457158291611	14
1	1018	2088.13758820728	14
1	1019	2089.669027294643	13
1	1020	2092.187222651302	12
1	1021	2094.670203854715	11
1	1022	2096.375298244303	10
1	1023	2101.326793465226	9
1	1025	2105.145380865089	9
1	1026	2111.565990517258	9
1	1027	2113.044963671229	8
1	1028	2123.564063509654	7
1	1029	2130.395698000626	6
1	1030	2130.578853245764	5
1	1032	2135.309728064205	5
1	1033	2142.550207509642	5
1	1034	2148.775231063473	4
1	1035	2150.993140400989	3
1	1037	2154.455229077172	3
1	1038	2155.386673181815	3
1	1040	2156.522746367308	3
1	1041	2158.012258211171	3
1	1042	2159.39172153531	2
1	1044	2169.554756261325	2
1	1046	2170.07863638295	3
1	1047	2171.810251070921	3
1	1048	2173.934364267091	2
1	1049	2174.607846819158	1
1	1059	2198.576693982376	1
1	1062	2201.61030075626	2
1	1064	2203.10283473555	3
1	1066	2204.885680249809	4
1	1068	2212.638258954712	5
1	1069	2224.000048933303	5
1	1070	2229.030953343733	4
1	1072	2229.449308528692	4
1	1074	2233.203004793729	5
1	1076	2234.707007767304	6
1	1077	2235.181337825679	6
1	1079	2242.872358595071	6
1	1083	2248.356438230681	6
1	1085	2255.528460384978	6
1	1086	2264.696187124778	6
1	1090	2267.752332380535	5
1	1091	2271.205070041446	4
1	1093	2271.690803451792	4
1	1095	2277.261690615057	5
1	1096	2278.676778712882	5
1	1098	2286.562431843466	5
1	1100	2288.617014748565	6
1	1102	2290.195723633174	7
1	1104	2291.789356918091	8
1	1106	2294.486130733997	9
1	1108	2301.721929275329	10
1	1110	2304.632968356191	11
1	1111	2313.244503902657	11
1	1112	2313.832023166557	10
1	1120	2330.756959188175	10
1	1121	2334.189020857542	10
1	1125	2340.168904759309	9
1	1127	2347.337730131784	9
1	1129	2347.355279760539	10
1	1131	2347.821212135755	11
1	1132	2349.158907123548	11
1	1134	2349.35594733363	11
1	1136	2353.101277890705	12
1	1137	2353.803311469201	12
1	1139	2357.587073636544	12
1	1141	2360.550717446282	13
1	1142	2360.89514586196	13
1	1143	2363.031679689326	12
1	1144	2369.622599182674	11
1	1145	2374.110447907631	10
1	1146	2376.154060787001	9
1	1147	2388.751385116808	8
1	1149	2392.293092303921	8
1	1153	2397.984376539384	8
1	1155	2398.988939380238	8
1	1156	2399.151444326963	8
1	1158	2399.35765296574	8
1	1159	2403.395158230154	8
1	1161	2405.934133730232	8
1	1162	2407.088907914222	8
1	1163	2413.547773972993	7
1	1165	2415.654602181887	7
1	1172	2438.27530873543	7
1	1176	2440.870673671743	7
1	1178	2444.982830372601	8
1	1181	2454.204788739677	9
1	1182	2456.597600120411	9
1	1184	2463.184025075622	9
1	1186	2463.460184766505	10
1	1187	2467.928513506645	10
1	1188	2468.167298087043	9
2	165	359.105407065084	26
2	168	378.461381887321	27
2	190	436.906669997324	28
2	194	444.473303566958	29
2	195	444.958664479282	30
2	200	455.682165369781	31
2	201	456.281909982389	32
2	202	456.897787536913	33
2	208	459.975101911037	34
2	209	468.13992593899	35
2	216	482.954804183236	36
2	226	497.012202106193	37
2	232	511.261036244124	38
2	237	514.380387079767	39
2	238	518.745670594764	40
2	241	529.803100758919	41
2	244	538.563510196875	42
2	247	539.186265383192	43
2	250	548.424265784519	44
2	262	578.21083547259	45
2	265	584.802362109589	46
2	266	585.544747986851	47
2	269	586.697375767415	48
2	296	652.45691238406	49
2	297	653.929949187856	50
2	303	660.914832189558	51
2	304	661.87788760983	52
2	305	665.312936893697	53
2	306	666.532415088085	54
2	313	679.439427783686	55
2	314	692.647970002384	56
2	317	702.867900054309	57
2	318	704.37869596958	58
2	319	704.609721318888	59
2	320	708.016525185526	60
2	321	713.351780346503	61
2	322	713.760807270617	62
2	323	715.708556674055	63
2	324	715.762267050367	64
2	330	740.609993701426	65
2	333	747.563377915612	66
2	336	754.009152838882	67
2	339	759.39014091627	68
2	342	769.924580415082	69
2	345	773.557866706028	70
2	351	791.515155800169	71
2	354	798.17476431454	72
2	357	808.471706096625	73
2	363	835.964524872437	74
2	366	845.075992597902	75
2	369	849.599493028303	76
2	372	852.298663655234	77
2	384	876.231860847049	78
2	387	877.492235542574	79
2	409	909.185851737734	80
2	410	911.260600665884	81
2	418	926.24493485415	82
2	430	937.30672295559	83
2	433	939.4442105874	84
2	434	941.356064952834	85
2	435	942.251425470064	86
2	459	975.924815815474	87
2	464	982.351168097338	88
2	467	987.819188106195	89
2	468	988.974278909495	90
2	471	1000.075959774101	91
2	472	1009.565462919704	92
2	475	1014.189104479908	93
2	478	1019.666200455566	94
2	481	1026.094562587844	95
2	482	1032.66984289603	96
2	483	1038.396707146375	97
2	484	1044.523202124738	98
2	493	1068.489498019306	99
2	496	1076.334101815564	100
2	515	1135.022376021141	101
2	516	1136.045080976164	102
2	525	1149.109461501022	103
2	529	1159.43656418246	104
2	540	1178.102301523878	105
2	541	1178.622087120215	106
2	542	1181.698464766682	107
2	543	1185.65239466094	108
2	544	1188.658394502489	109
2	545	1190.322452638584	110
2	549	1193.229091993291	111
2	550	1193.4350716781	112
2	553	1202.632393497784	113
2	554	1211.986720477096	114
2	555	1213.827330102852	115
2	577	1258.71448573479	116
2	578	1260.154487932313	117
2	584	1286.717965105967	118
2	587	1290.789741010273	119
2	588	1293.057392547518	120
2	589	1295.060592709799	121
2	590	1302.360738667333	122
2	594	1310.052188240081	123
2	599	1314.978809924312	124
2	600	1316.342041677423	125
2	605	1320.92452958934	126
2	606	1327.840908512878	127
2	609	1329.190704884336	128
2	616	1341.556128389717	129
2	617	1342.675850540859	130
2	635	1363.485890038096	131
2	640	1371.58359310492	132
2	641	1374.006111855038	133
2	644	1378.041195981521	134
2	645	1378.944672258498	135
2	646	1383.999003317405	136
2	647	1385.200562175392	137
2	650	1388.664732637444	138
2	655	1397.539175013548	139
2	658	1406.698340119411	140
2	659	1407.500257986161	141
2	665	1432.894826387442	142
2	666	1435.627581072501	143
2	672	1446.222716353284	144
2	679	1454.771996729891	145
2	682	1461.943008826073	146
2	702	1474.678055484851	147
2	725	1500.341456031053	148
2	729	1513.133532907387	149
2	736	1527.441785888431	150
2	759	1557.077949386262	151
2	763	1576.453224049315	152
2	773	1600.078983190354	153
2	786	1628.687419065611	154
2	787	1629.768174598433	155
2	788	1632.58839495645	156
2	791	1637.430230477253	157
2	792	1638.104146323834	158
2	793	1640.181521947561	159
2	794	1643.073021185128	160
2	797	1650.314726883663	161
2	801	1652.233458696674	162
2	804	1662.120161193066	163
2	811	1675.491212347824	164
2	816	1677.696601144754	165
2	817	1680.001420020519	166
2	818	1688.082228857426	167
2	819	1688.62079533489	168
2	831	1705.378990831528	169
2	832	1709.3661457492	170
2	833	1717.182947460692	171
2	834	1717.765372925816	172
2	838	1721.585374544009	173
2	841	1737.615834451735	174
2	848	1744.384126039881	175
2	853	1751.442263655479	176
2	854	1755.99593286271	177
2	857	1766.429982103252	178
2	860	1767.593042579431	179
2	861	1768.77308513056	180
2	862	1770.220110739747	181
2	863	1774.744170689382	182
2	864	1774.865373495287	183
2	865	1775.209495335105	184
2	868	1783.137715233301	185
2	871	1789.059188867781	186
2	874	1795.925466487623	187
2	875	1799.892136062215	188
2	879	1801.455383861048	189
2	880	1802.880350868188	190
2	881	1803.278023094289	191
2	909	1854.26507156336	192
2	916	1863.520927397049	193
2	919	1866.711604527043	194
2	920	1870.332965714514	195
2	923	1879.132407258629	196
2	931	1895.439830647426	197
2	934	1897.93066404189	198
2	939	1909.024865579213	199
2	944	1914.526787995812	200
2	945	1915.028992228687	201
2	957	1936.642964808781	202
2	958	1936.867319614774	203
2	961	1948.044946465735	204
2	962	1952.919074022455	205
2	967	1956.234518769902	206
2	968	1962.520606548996	207
2	969	1968.4079809406	208
2	970	1970.38458685705	209
2	971	1975.392706069021	210
2	972	1975.547876292549	211
2	975	1978.644601854441	212
2	978	1990.236086988875	213
2	979	1991.246107311248	214
2	980	1991.306226555743	215
2	985	2001.628015284915	216
2	986	2014.823185951712	217
2	989	2020.600373130156	218
2	1012	2079.77938978091	219
2	1013	2081.461222365935	220
2	1018	2088.13758820728	221
2	1019	2089.669027294643	222
2	1020	2092.187222651302	223
2	1021	2094.670203854715	224
2	1022	2096.375298244303	225
2	1023	2101.326793465226	226
2	1026	2111.565990517258	227
2	1027	2113.044963671229	228
2	1028	2123.564063509654	229
2	1029	2130.395698000626	230
2	1030	2130.578853245764	231
2	1033	2142.550207509642	232
2	1034	2148.775231063473	233
2	1035	2150.993140400989	234
2	1038	2155.386673181815	235
2	1041	2158.012258211171	236
2	1042	2159.39172153531	237
2	1047	2171.810251070921	238
2	1048	2173.934364267091	239
2	1049	2174.607846819158	240
2	1069	2224.000048933303	241
2	1070	2229.030953343733	242
2	1077	2235.181337825679	243
2	1083	2248.356438230681	244
2	1086	2264.696187124778	245
2	1090	2267.752332380535	246
2	1091	2271.205070041446	247
2	1096	2278.676778712882	248
2	1111	2313.244503902657	249
2	1112	2313.832023166557	250
2	1121	2334.189020857542	251
2	1125	2340.168904759309	252
2	1132	2349.158907123548	253
2	1137	2353.803311469201	254
2	1142	2360.89514586196	255
2	1143	2363.031679689326	256
2	1144	2369.622599182674	257
2	1145	2374.110447907631	258
2	1146	2376.154060787001	259
2	1147	2388.751385116808	260
2	1153	2397.984376539384	261
2	1156	2399.151444326963	262
2	1159	2403.395158230154	263
2	1162	2407.088907914222	264
2	1163	2413.547773972993	265
2	1172	2438.27530873543	266
2	1182	2456.597600120411	267
2	1187	2467.928513506645	268
2	1188	2468.167298087043	269
3	165	359.105407065084	32.250612685301
3	168	378.461381887321	49.047886232871
3	190	436.906669997324	95.179875199248
3	194	444.473303566958	96.015236229225
3	195	444.958664479282	94.664150784388
3	200	455.682165369781	92.042780178545
3	201	456.281909982389	77.572757732255
3	202	456.897787536913	60.930055094864
3	208	459.975101911037	27.209318992815
3	209	468.13992593899	27.60979873125
3	216	482.954804183236	25.535780948674
3	226	497.012202106193	28.213137960902
3	232	511.261036244124	26.351512395254
3	237	514.380387079767	28.124438773443
3	238	518.745670594764	27.732813200685
3	241	529.803100758919	38.025525073064
3	244	538.563510196875	32.601659547441
3	247	539.186265383192	32.048505838295
3	250	548.424265784519	35.868083871394
3	262	578.21083547259	50.402828610523
3	265	584.802362109589	49.096145760867
3	266	585.544747986851	46.939795994578
3	269	586.697375767415	46.322354499927
3	296	652.45691238406	92.008912968439
3	297	653.929949187856	90.056064633071
3	303	660.914832189558	88.728172838379
3	304	661.87788760983	79.714398277166
3	305	665.312936893697	79.111965330706
3	306	666.532415088085	79.731396946529
3	313	679.439427783686	92.260991639577
3	314	692.647970002384	92.508672324249
3	317	702.867900054309	81.497672315212
3	318	704.37869596958	64.731814676184
3	319	704.609721318888	49.411048249313
3	320	708.016525185526	48.955748786422
3	321	713.351780346503	41.934249305004
3	322	713.760807270617	39.549221424163
3	323	715.708556674055	39.409480429067
3	324	715.762267050367	22.081041239838
3	330	740.609993701426	4.475772174394
3	333	747.563377915612	0.265929283125
3	336	754.009152838882	1.80142019535
3	339	759.39014091627	0.977050532604
3	342	769.924580415082	4.516728753201
3	345	773.557866706028	3.094325576673
3	351	791.515155800169	6.416619226169
3	354	798.17476431454	5.928435628237
3	357	808.471706096625	4.713709990138
3	363	835.964524872437	5.351219678729
3	366	845.075992597902	1.662878653656
3	369	849.599493028303	0.304621849847
3	372	852.298663655234	0.593872362432
3	384	876.231860847049	21.400297909068
3	387	877.492235542574	10.673998826822
3	409	909.185851737734	39.309975429319
3	410	911.260600665884	34.764565753908
3	418	926.24493485415	39.909472458438
3	430	937.30672295559	45.426438224105
3	433	939.4442105874	39.239147087732
3	434	941.356064952834	38.480685905891
3	435	942.251425470064	33.361455422729
3	459	975.924815815474	59.071329556116
3	464	982.351168097338	64.658135396836
3	467	987.819188106195	61.524693916562
3	468	988.974278909495	62.043434901854
3	471	1000.075959774101	71.68811203799
3	472	1009.565462919704	74.693528130005
3	475	1014.189104479908	78.194778117162
3	478	1019.666200455566	81.988734854252
3	481	1026.094562587844	81.204982420235
3	482	1032.66984289603	81.358931833537
3	483	1038.396707146375	83.49513439469
3	484	1044.523202124738	73.154564960265
3	493	1068.489498019306	88.75326499473
3	496	1076.334101815564	95.379581522848
3	515	1135.022376021141	111.27442539612
3	516	1136.045080976164	79.798169329229
3	525	1149.109461501022	62.696697815781
3	529	1159.43656418246	57.88780147717
3	540	1178.102301523878	48.598170456584
3	541	1178.622087120215	48.48439615367
3	542	1181.698464766682	43.215447928774
3	543	1185.65239466094	43.526665608017
3	544	1188.658394502489	45.434282026728
3	545	1190.322452638584	39.173266283153
3	549	1193.229091993291	28.049379582062
3	550	1193.4350716781	28.136776538294
3	553	1202.632393497784	28.834856109319
3	554	1211.986720477096	20.618476821372
3	555	1213.827330102852	19.083359258194
3	577	1258.71448573479	23.637644945054
3	578	1260.154487932313	22.497834961671
3	584	1286.717965105967	44.30075998246
3	587	1290.789741010273	41.58936326254
3	588	1293.057392547518	40.050360409445
3	589	1295.060592709799	24.345498781553
3	590	1302.360738667333	25.27757937882
3	594	1310.052188240081	6.334495373106
3	599	1314.978809924312	3.403230443538
3	600	1316.342041677423	3.700409953846
3	605	1320.92452958934	3.929706075308
3	606	1327.840908512878	9.780043080691
3	609	1329.190704884336	1.171419864119
3	616	1341.556128389717	10.885790414709
3	617	1342.675850540859	8.705205912981
3	635	1363.485890038096	17.332709862878
3	640	1371.58359310492	24.812580867538
3	641	1374.006111855038	22.735641723776
3	644	1378.041195981521	18.809105295668
3	645	1378.944672258498	19.382554442473
3	646	1383.999003317405	23.857596050396
3	647	1385.200562175392	22.819625387158
3	650	1388.664732637444	26.218175835189
3	655	1397.539175013548	32.965861655962
3	658	1406.698340119411	35.267617507504
3	659	1407.500257986161	31.018466688718
3	665	1432.894826387442	41.969142098072
3	666	1435.627581072501	39.367494297142
3	672	1446.222716353284	33.058423429731
3	679	1454.771996729891	36.770524243678
3	682	1461.943008826073	25.763642033491
3	702	1474.678055484851	20.061571494611
3	725	1500.341456031053	37.000305526608
3	729	1513.133532907387	47.662203295239
3	736	1527.441785888431	56.477129088251
3	759	1557.077949386262	80.279167506987
3	763	1576.453224049315	94.366142542367
3	773	1600.078983190354	111.61576102785
3	786	1628.687419065611	119.05825277701
3	787	1629.768174598433	115.24878703864
3	788	1632.58839495645	110.10469163006
3	791	1637.430230477253	108.56928220489
3	792	1638.104146323834	106.20228616188
3	793	1640.181521947561	104.41021694721
3	794	1643.073021185128	100.49820313333
3	797	1650.314726883663	104.17457556042
3	801	1652.233458696674	101.61256837074
3	804	1662.120161193066	111.20827468721
3	811	1675.491212347824	102.50439121044
3	816	1677.696601144754	99.520647497401
3	817	1680.001420020519	72.134519790451
3	818	1688.082228857426	77.67575340067
3	819	1688.62079533489	68.883646925711
3	831	1705.378990831528	82.123377686665
3	832	1709.3661457492	73.195522822115
3	833	1717.182947460692	69.906748061304
3	834	1717.765372925816	66.10816146763
3	838	1721.585374544009	58.126922572502
3	841	1737.615834451735	60.572521982024
3	848	1744.384126039881	66.714481997699
3	853	1751.442263655479	61.58393985602
3	854	1755.99593286271	59.139528555184
3	857	1766.429982103252	65.81388627942
3	860	1767.593042579431	63.775724037781
3	861	1768.77308513056	64.814200425956
3	862	1770.220110739747	51.804419250254
3	863	1774.744170689382	52.903289366295
3	864	1774.865373495287	36.226081288053
3	865	1775.209495335105	34.926482427645
3	868	1783.137715233301	41.195400274141
3	871	1789.059188867781	42.780865045372
3	874	1795.925466487623	48.792488018896
3	875	1799.892136062215	36.147176692873
3	879	1801.455383861048	20.261322448664
3	880	1802.880350868188	18.873177997964
3	881	1803.278023094289	11.833229869282
3	909	1854.26507156336	35.497497189233
3	916	1863.520927397049	39.608433088625
3	919	1866.711604527043	42.322706586784
3	920	1870.332965714514	45.301029877358
3	923	1879.132407258629	52.39029372277
3	931	1895.439830647426	64.963855775979
3	934	1897.93066404189	65.203185944156
3	939	1909.024865579213	71.188029154521
3	944	1914.526787995812	65.463744016809
3	945	1915.028992228687	59.856635284681
3	957	1936.642964808781	78.130179520619
3	958	1936.867319614774	71.851001457674
3	961	1948.044946465735	77.154737163583
3	962	1952.919074022455	70.971632857333
3	967	1956.234518769902	73.914981934827
3	968	1962.520606548996	67.868535574641
3	969	1968.4079809406	71.3627106213
3	970	1970.38458685705	69.24553034477
3	971	1975.392706069021	69.227061033044
3	972	1975.547876292549	64.133282034288
3	975	1978.644601854441	64.948138599329
3	978	1990.236086988875	74.113688760449
3	979	1991.246107311248	72.257462962136
3	980	1991.306226555743	70.070086537415
3	985	2001.628015284915	75.805331781123
3	986	2014.823185951712	84.782949803718
3	989	2020.600373130156	77.955417052204
3	1012	2079.77938978091	124.79346291499
3	1013	2081.461222365935	105.41066718207
3	1018	2088.13758820728	99.228773412172
3	1019	2089.669027294643	94.769730473371
3	1020	2092.187222651302	91.476425276066
3	1021	2094.670203854715	76.797981023607
3	1022	2096.375298244303	72.788897664117
3	1023	2101.326793465226	66.177421189475
3	1026	2111.565990517258	75.182220584431
3	1027	2113.044963671229	67.378289877473
3	1028	2123.564063509654	70.923842597754
3	1029	2130.395698000626	76.956915452308
3	1030	2130.578853245764	74.112454204358
3	1033	2142.550207509642	74.688179333705
3	1034	2148.775231063473	72.398538351844
3	1035	2150.993140400989	69.216156370268
3	1038	2155.386673181815	71.929514890204
3	1041	2158.012258211171	52.866877346082
3	1042	2159.39172153531	24.081993471105
3	1047	2171.810251070921	17.355021993749
3	1048	2173.934364267091	17.411617899783
3	1049	2174.607846819158	5.053090557833
3	1069	2224.000048933303	27.700349017707
3	1070	2229.030953343733	30.454259361357
3	1077	2235.181337825679	33.571037069419
3	1083	2248.356438230681	43.470757980872
3	1086	2264.696187124778	52.057928170066
3	1090	2267.752332380535	34.549327586806
3	1091	2271.205070041446	36.498062274142
3	1096	2278.676778712882	35.804420117811
3	1111	2313.244503902657	69.147161404537
3	1112	2313.832023166557	58.303562781579
3	1121	2334.189020857542	62.49821740575
3	1125	2340.168904759309	53.606472915843
3	1132	2349.158907123548	60.541892374983
3	1137	2353.803311469201	63.607587836027
3	1142	2360.89514586196	69.105788943869
3	1143	2363.031679689326	68.545548955329
3	1144	2369.622599182674	67.900669907345
3	1145	2374.110447907631	69.47747955144
3	1146	2376.154060787001	59.18352792026
3	1147	2388.751385116808	57.994425928633
3	1153	2397.984376539384	50.6466464076
3	1156	2399.151444326963	51.796164566424
3	1159	2403.395158230154	55.573946094399
3	1162	2407.088907914222	57.732960580592
3	1163	2413.547773972993	60.446496082288
3	1172	2438.27530873543	45.982216431509
3	1182	2456.597600120411	57.608660740173
3	1187	2467.928513506645	68.570860540905
3	1188	2468.167298087043	62.233164356811
4	165	359.105407065084	29.691911410634
4	168	378.461381887321	46.587225159563
4	189	433.128238413619	91.401443615543
4	190	436.906669997324	95.130303321085
4	193	441.37584365362	92.917776315887
4	194	444.473303566958	94.178789872064
4	195	444.958664479282	81.319279288046
4	200	455.682165369781	76.973013119647
4	201	456.281909982389	60.31417754034
4	202	456.897787536913	29.738196089492
4	207	459.384015933449	26.618233015227
4	208	459.975101911037	19.444974703297
4	209	468.13992593899	18.192247442204
4	212	469.712481738318	14.766754762365
4	215	481.245676999422	23.82665376486
4	216	482.954804183236	23.778136407253
4	219	486.179701436593	17.380637291302
4	226	497.012202106193	16.69397130899
4	231	507.542097539768	22.632573690898
4	232	511.261036244124	25.0050879378
4	237	514.380387079767	23.367529685688
4	238	518.745670594764	26.968094908909
4	241	529.803100758919	23.841250109485
4	244	538.563510196875	31.425750651978
4	247	539.186265383192	26.630083470067
4	250	548.424265784519	34.966303531219
4	257	569.258987202998	41.450980340931
4	262	578.21083547259	42.504619123868
4	265	584.802362109589	46.197410117316
4	266	585.544747986851	45.169726719363
4	269	586.697375767415	32.587266990869
4	295	648.300960387178	87.852960971557
4	296	652.45691238406	88.583027829275
4	297	653.929949187856	82.203814778615
4	300	657.129567833061	84.942908481882
4	303	660.914832189558	78.751342856894
4	304	661.87788760983	75.676916046839
4	305	665.312936893697	78.511918752141
4	306	666.532415088085	79.353978943976
4	313	679.439427783686	79.300130105551
4	314	692.647970002384	71.277742263287
4	317	702.867900054309	63.221018760913
4	318	704.37869596958	49.180022900005
4	319	704.609721318888	45.548944919784
4	320	708.016525185526	36.598994144027
4	321	713.351780346503	39.140194500049
4	322	713.760807270617	37.461731025629
4	323	715.708556674055	22.027330863526
4	329	736.134221527032	0
4	332	747.297448632487	0
4	335	752.207732643532	0
4	338	758.413090383666	0
4	341	765.407851661881	0
4	344	770.463541129355	0
4	347	784.88289423812	0
4	350	789.290842800095	4.192306226095
4	353	792.246328686303	0
4	356	803.757996106487	0
4	362	830.613305193708	0
4	365	843.413113944246	0
4	368	849.294871178456	0
4	371	851.704791292802	0
4	374	852.417378293355	0
4	383	873.680340768845	18.848777830864
4	384	876.231860847049	9.413624131297
4	387	877.492235542574	8.398311725554
4	406	908.208723755499	38.332847447084
4	409	909.185851737734	32.689816825758
4	410	911.260600665884	25.325615678088
4	417	924.715840379714	38.380377984002
4	418	926.24493485415	35.376842769683
4	427	935.160223228292	43.279938496807
4	430	937.30672295559	37.101659455922
4	433	939.4442105874	36.568831540457
4	434	941.356064952834	32.466094905499
4	435	942.251425470064	28.227417755905
4	458	975.885810856889	59.032324597531
4	459	975.924815815474	58.231783114972
4	464	982.351168097338	56.056673907705
4	467	987.819188106195	60.888344098554
4	468	988.974278909495	60.586431173384
4	471	1000.075959774101	65.204024984402
4	472	1009.565462919704	73.571136556958
4	475	1014.189104479908	76.511638878594
4	478	1019.666200455566	74.776620287957
4	481	1026.094562587844	74.783651525351
4	482	1032.66984289603	77.768270144345
4	483	1038.396707146375	67.028069981902
4	484	1044.523202124738	71.998846683045
4	492	1063.511620937072	83.775387912496
4	493	1068.489498019306	87.53497772659
4	496	1076.334101815564	90.87515142558
4	501	1095.682089398831	103.36794880874
4	504	1104.622048375946	92.932171136852
4	507	1112.324918471875	95.899124764462
4	514	1130.298181363572	106.55023073856
4	515	1135.022376021141	78.775464374206
4	516	1136.045080976164	73.636184147649
4	519	1139.840331073326	65.920023564985
4	524	1144.517398002091	58.10463431685
4	525	1149.109461501022	55.13590864302
4	528	1154.702605980971	53.153843275681
4	529	1159.43656418246	47.503653609077
4	536	1165.820452751738	38.034048617011
4	539	1174.414724232736	44.910593165442
4	540	1178.102301523878	47.964610557333
4	541	1178.622087120215	40.139070282307
4	542	1181.698464766682	39.572735713759
4	543	1185.65239466094	42.428282185179
4	544	1188.658394502489	37.509208147058
4	545	1190.322452638584	28.865613445067
4	548	1193.113638890336	27.933926479107
4	549	1193.229091993291	27.930796853485
4	550	1193.4350716781	19.637534289635
4	553	1202.632393497784	11.26414984206
4	554	1211.986720477096	17.242749632438
4	569	1240.765273013148	23.363895429976
4	574	1249.877558538909	14.800717749173
4	577	1258.71448573479	21.057832764148
4	578	1260.154487932313	20.824647758097
4	583	1286.70354000466	44.286334881153
4	584	1286.717965105967	37.517587358234
4	587	1290.789741010273	37.7827088722
4	588	1293.057392547518	22.342298619272
4	589	1295.060592709799	17.977433421286
4	590	1302.360738667333	15.220598854567
4	593	1306.356296587139	2.638603720164
4	596	1311.575579480774	0
4	599	1314.978809924312	2.337178200735
4	602	1316.994823514032	0
4	605	1320.92452958934	2.863664157153
4	608	1328.019285020217	0
4	611	1330.670337975008	0
4	616	1341.556128389717	7.585483761839
4	617	1342.675850540859	1.933137233351
4	624	1355.929239813019	9.776059637801
4	635	1363.485890038096	16.714877800714
4	640	1371.58359310492	20.313122973658
4	641	1374.006111855038	14.774021169185
4	644	1378.041195981521	18.479078165496
4	645	1378.944672258498	18.803264991489
4	646	1383.999003317405	21.618066529171
4	647	1385.200562175392	22.754005373137
4	650	1388.664732637444	24.091419279858
4	655	1397.539175013548	26.108452401641
4	658	1406.698340119411	30.216548821968
4	659	1407.500257986161	18.964286725486
4	664	1422.88635416102	31.96066987165
4	665	1432.894826387442	36.634739612083
4	666	1435.627581072501	37.101478868999
4	671	1444.540477148798	31.376184225245
4	672	1446.222716353284	28.221243867071
4	679	1454.771996729891	18.592629937309
4	682	1461.943008826073	23.499990624965
4	689	1464.919526612869	18.677108494448
4	696	1466.801805125089	13.912297656013
4	701	1474.373076631771	19.756592641531
4	702	1474.678055484851	17.571248118543
4	714	1483.657970555671	21.42632920721
4	724	1497.679882546859	34.338732042414
4	725	1500.341456031053	35.822616379086
4	728	1511.884936455323	46.413606843175
4	729	1513.133532907387	47.456494147103
4	732	1521.224092345244	54.882487442257
4	735	1523.650199366205	52.685542566025
4	736	1527.441785888431	53.231309629593
4	750	1549.234031418051	72.435249538776
4	759	1557.077949386262	79.299704137302
4	762	1573.474501883317	91.387420376369
4	763	1576.453224049315	94.211596132563
4	772	1596.271364434554	107.80814227205
4	773	1600.078983190354	109.25078210409
4	780	1620.629704192004	129.02960424497
4	785	1625.177549031103	115.54838274251
4	786	1628.687419065611	114.16803150582
4	787	1629.768174598433	107.28447127204
4	788	1632.58839495645	103.72744668409
4	791	1637.430230477253	105.5283703153
4	792	1638.104146323834	102.33284132348
4	793	1640.181521947561	97.606703895765
4	794	1643.073021185128	96.93286986189
4	797	1650.314726883663	100.02927535278
4	800	1651.659160558626	101.03827023269
4	801	1652.233458696674	101.32157219082
4	804	1662.120161193066	110.73189133675
4	810	1674.9895809918	102.00275985441
4	811	1675.491212347824	97.315258700471
4	816	1677.696601144754	69.829700914686
4	817	1680.001420020519	69.594944563763
4	818	1688.082228857426	68.345080448247
4	819	1688.62079533489	67.762048996975
4	822	1694.537288354916	71.281675210053
4	831	1705.378990831528	69.208367904443
4	832	1709.3661457492	62.089946349812
4	833	1717.182947460692	65.525736002506
4	834	1717.765372925816	64.397775324654
4	837	1719.57641807002	56.117966098513
4	838	1721.585374544009	44.542062074298
4	841	1737.615834451735	59.946190409553
4	848	1744.384126039881	54.525802240422
4	853	1751.442263655479	54.585859347953
4	854	1755.99593286271	55.379837038878
4	857	1766.429982103252	62.612663561602
4	860	1767.593042579431	63.634157874827
4	861	1768.77308513056	50.357393641067
4	862	1770.220110739747	48.37922941666
4	863	1774.744170689382	36.104878482148
4	864	1774.865373495287	34.582360587827
4	865	1775.209495335105	33.267180375945
4	868	1783.137715233301	36.859391410892
4	871	1789.059188867781	41.926210399054
4	874	1795.925466487623	32.180507118281
4	875	1799.892136062215	33.05981886444
4	878	1801.137856357017	19.943794944633
4	879	1801.455383861048	17.448210990824
4	880	1802.880350868188	11.435557643181
4	881	1803.278023094289	3.262137975233
4	889	1818.982854119794	10.902513126194
4	900	1829.96149814846	11.193923774333
4	909	1854.26507156336	30.352577254936
4	916	1863.520927397049	39.13202945679
4	919	1866.711604527043	41.679668689887
4	920	1870.332965714514	43.590852178655
4	923	1879.132407258629	49.954509254171
4	930	1895.22577745265	64.749802581203
4	931	1895.439830647426	62.712352549692
4	934	1897.93066404189	60.093827617198
4	939	1909.024865579213	59.96182160021
4	944	1914.526787995812	59.354431051806
4	945	1915.028992228687	58.027698981519
4	954	1926.944428266701	68.431642978539
4	957	1936.642964808781	71.626646651681
4	958	1936.867319614774	65.977110312622
4	961	1948.044946465735	66.097505300613
4	962	1952.919074022455	70.59953718738
4	967	1956.234518769902	61.582447795547
4	968	1962.520606548996	65.475336229696
4	969	1968.4079809406	67.26892442832
4	970	1970.38458685705	64.218941821073
4	971	1975.392706069021	63.97811181076
4	972	1975.547876292549	61.851413037437
4	975	1978.644601854441	62.522203626015
4	978	1990.236086988875	71.247442639763
4	979	1991.246107311248	70.00996729292
4	980	1991.306226555743	65.483543051951
4	985	2001.628015284915	71.587779136921
4	986	2014.823185951712	72.17822987376
4	989	2020.600373130156	66.471553528287
4	1009	2070.273930916855	115.28800405094
4	1012	2079.77938978091	103.72883459705
4	1013	2081.461222365935	92.552407570827
4	1018	2088.13758820728	93.238291386008
4	1019	2089.669027294643	88.958229919407
4	1020	2092.187222651302	74.314999820194
4	1021	2094.670203854715	71.083803274529
4	1022	2096.375298244303	61.225925968552
4	1023	2101.326793465226	64.943023532399
4	1026	2111.565990517258	65.899316723502
4	1027	2113.044963671229	60.404742759329
4	1028	2123.564063509654	70.125280961336
4	1029	2130.395698000626	73.92929895922
4	1030	2130.578853245764	62.716825069827
4	1033	2142.550207509642	66.173514798013
4	1034	2148.775231063473	66.998247032752
4	1035	2150.993140400989	67.535982109378
4	1038	2155.386673181815	50.241292316726
4	1041	2158.012258211171	22.702530146966
4	1042	2159.39172153531	4.936492458138
4	1047	2171.810251070921	15.287504703613
4	1048	2173.934364267091	4.379608005766
4	1049	2174.607846819158	4.529210436208
4	1052	2186.201631296938	0.154691814833
4	1055	2196.164498599017	1.33136865286
4	1060	2200.548765262009	4.249065346413
4	1069	2224.000048933303	25.423354950927
4	1070	2229.030953343733	27.420652587473
4	1077	2235.181337825679	32.078503090129
4	1082	2245.243531250884	40.357851001075
4	1083	2248.356438230681	35.718179275969
4	1086	2264.696187124778	35.246878596086
4	1089	2265.447768052674	32.244763258945
4	1090	2267.752332380535	33.045324613231
4	1091	2271.205070041446	28.332711446375
4	1096	2278.676778712882	34.579436214762
4	1111	2313.244503902657	57.716043517679
4	1112	2313.832023166557	48.606875383077
4	1118	2327.986249934025	56.295446482233
4	1121	2334.189020857542	56.927330242485
4	1124	2339.920051463521	53.357619620055
4	1125	2340.168904759309	51.551890010744
4	1132	2349.158907123548	58.963183490374
4	1137	2353.803311469201	62.01395455111
4	1142	2360.89514586196	66.409015127963
4	1143	2363.031679689326	61.309750413997
4	1144	2369.622599182674	64.989630826483
4	1145	2374.110447907631	57.13991504089
4	1146	2376.154060787001	45.397101598826
4	1147	2388.751385116808	50.654908528743
4	1152	2395.741248215716	48.403518083932
4	1153	2397.984376539384	50.629096778845
4	1156	2399.151444326963	51.330232191208
4	1159	2403.395158230154	54.039210896524
4	1162	2407.088907914222	53.987630023517
4	1163	2413.547773972993	55.960700336449
4	1168	2418.739518902685	58.188801456403
4	1171	2429.230886802438	36.937794498517
4	1172	2438.27530873543	42.917891719754
4	1179	2445.341379966832	46.352440586594
4	1182	2456.597600120411	57.239947154671
4	1187	2467.928513506645	61.994379776413
4	1188	2468.167298087043	52.512695905156
4	1191	2487.432932482901	69.72087019846
4	1194	2497.632859238079	70.893584269101
5	170	378.709152250134	1
5	172	380.27431564241	2
5	175	389.235505617551	2
5	177	390.977351324658	3
5	183	418.365243161892	2
5	192	440.53012720774	1
5	204	457.419023234562	1
5	211	468.799064145291	1
5	214	480.318230797203	1
5	218	484.90952384887	1
5	228	505.961850649434	1
5	252	554.110108776546	1
5	273	587.178436144109	1
5	275	592.643012636746	2
5	279	600.245437869745	3
5	281	600.66151758005	4
5	284	608.864634039198	4
5	291	628.992075770935	2
5	299	655.198673069575	1
5	326	721.458044270898	1
5	349	785.098536574	1
5	359	813.085741460761	1
5	376	854.831562937981	1
5	393	890.868092084467	1
5	397	892.822221156924	2
5	404	904.440978452057	2
5	412	914.024007714159	1
5	424	928.387847736111	1
5	439	951.310911062493	1
5	441	951.721988495665	2
5	446	954.912534915324	2
5	448	963.443723202907	3
5	452	968.301676543182	2
5	486	1056.246911646935	1
5	488	1057.563382410452	2
5	500	1093.973552858002	1
5	503	1101.54876270529	1
5	506	1111.932910573383	1
5	509	1127.786404134727	1
5	518	1138.483016837908	1
5	523	1143.224112475761	1
5	527	1151.149186355431	1
5	531	1161.456839193517	1
5	538	1173.797537388465	1
5	547	1191.368243655724	1
5	557	1216.415934965837	1
5	561	1217.598482219436	2
5	573	1249.200377747733	1
5	582	1277.083159288513	1
5	592	1303.717692866975	1
5	619	1346.153180175218	1
5	663	1418.001472486213	1
5	668	1436.179366792582	1
5	684	1462.231641348461	1
5	695	1466.341604902987	1
5	698	1470.96465680018	1
5	706	1477.77824524896	1
5	708	1478.053095075698	2
5	716	1488.463222162503	1
5	718	1490.418657299978	2
5	727	1509.629166288597	1
5	731	1514.519387559795	1
5	734	1522.483703326391	1
5	740	1531.901860161949	1
5	742	1535.646236770744	2
5	761	1572.986821137387	1
5	765	1578.175953647353	1
5	767	1585.241753050579	2
5	769	1587.132978603985	3
5	775	1607.866900230068	1
5	782	1620.858746337915	1
5	799	1651.657211458186	1
5	806	1663.458451971507	1
5	808	1669.807579158733	2
5	821	1689.858323799459	1
5	836	1718.415691489493	1
5	877	1800.015885119056	1
5	883	1808.0803409936	1
5	885	1810.341179370831	2
5	893	1824.388897940259	1
5	925	1881.947441165122	1
5	947	1916.122398228426	1
5	997	2045.666673793756	1
5	1005	2059.687067641443	2
5	1051	2186.046939482105	1
5	1054	2194.833129946157	1
5	1057	2196.299699915596	1
5	1081	2244.09734249812	1
5	1088	2265.22514778348	1
5	1114	2316.970532866741	1
5	1116	2323.784024738193	2
5	1123	2338.096476588065	1
5	1151	2395.357417015676	1
5	1167	2417.712062284441	1
5	1170	2426.739274968978	1
5	1174	2439.090611052453	1
5	1190	2480.174805911224	1
5	1193	2495.979355742821	1
6	170	378.709152250134	0
6	172	380.27431564241	1
6	173	385.430920471266	1
6	175	389.235505617551	1
6	177	390.977351324658	2
6	178	392.349507266839	2
6	181	396.059256471321	1
6	183	418.365243161892	1
6	184	425.941454825716	1
6	189	433.128238413619	0
6	192	440.53012720774	0
6	193	441.37584365362	0
6	204	457.419023234562	0
6	207	459.384015933449	0
6	211	468.799064145291	0
6	212	469.712481738318	0
6	214	480.318230797203	0
6	215	481.245676999422	0
6	218	484.90952384887	0
6	219	486.179701436593	0
6	228	505.961850649434	0
6	231	507.542097539768	0
6	252	554.110108776546	0
6	257	569.258987202998	0
6	273	587.178436144109	0
6	275	592.643012636746	1
6	279	600.245437869745	2
6	281	600.66151758005	3
6	282	602.936921475162	3
6	284	608.864634039198	3
6	285	611.844960151098	3
6	286	613.99039112254	2
6	289	627.172428720909	1
6	291	628.992075770935	1
6	292	629.535732284638	1
6	295	648.300960387178	0
6	299	655.198673069575	0
6	300	657.129567833061	0
6	326	721.458044270898	0
6	327	729.737678090866	0
6	349	785.098536574	0
6	350	789.290842800095	0
6	359	813.085741460761	0
6	360	825.374866031221	0
6	376	854.831562937981	0
6	383	873.680340768845	0
6	393	890.868092084467	0
6	397	892.822221156924	1
6	398	892.924707757544	1
6	404	904.440978452057	1
6	405	904.55180092781	1
6	406	908.208723755499	0
6	412	914.024007714159	0
6	417	924.715840379714	0
6	424	928.387847736111	0
6	427	935.160223228292	0
6	439	951.310911062493	0
6	441	951.721988495665	1
6	442	952.396813534867	1
6	446	954.912534915324	1
6	448	963.443723202907	2
6	449	964.855932776059	2
6	450	964.969502332229	1
6	452	968.301676543182	1
6	457	973.20225201469	1
6	458	975.885810856889	0
6	486	1056.246911646935	0
6	488	1057.563382410452	1
6	489	1057.889841093595	1
6	492	1063.511620937072	0
6	500	1093.973552858002	0
6	501	1095.682089398831	0
6	503	1101.54876270529	0
6	504	1104.622048375946	0
6	506	1111.932910573383	0
6	507	1112.324918471875	0
6	509	1127.786404134727	0
6	514	1130.298181363572	0
6	518	1138.483016837908	0
6	519	1139.840331073326	0
6	523	1143.224112475761	0
6	524	1144.517398002091	0
6	527	1151.149186355431	0
6	528	1154.702605980971	0
6	531	1161.456839193517	0
6	536	1165.820452751738	0
6	538	1173.797537388465	0
6	539	1174.414724232736	0
6	547	1191.368243655724	0
6	548	1193.113638890336	0
6	557	1216.415934965837	0
6	561	1217.598482219436	1
6	564	1236.023202327306	1
6	569	1240.765273013148	0
6	573	1249.200377747733	0
6	574	1249.877558538909	0
6	582	1277.083159288513	0
6	583	1286.70354000466	0
6	592	1303.717692866975	0
6	593	1306.356296587139	0
6	619	1346.153180175218	0
6	624	1355.929239813019	0
6	663	1418.001472486213	0
6	664	1422.88635416102	0
6	668	1436.179366792582	0
6	671	1444.540477148798	0
6	684	1462.231641348461	0
6	689	1464.919526612869	0
6	695	1466.341604902987	0
6	696	1466.801805125089	0
6	698	1470.96465680018	0
6	701	1474.373076631771	0
6	706	1477.77824524896	0
6	708	1478.053095075698	1
6	713	1483.097667817443	1
6	714	1483.657970555671	0
6	716	1488.463222162503	0
6	718	1490.418657299978	1
6	723	1491.826652938163	1
6	724	1497.679882546859	0
6	727	1509.629166288597	0
6	728	1511.884936455323	0
6	731	1514.519387559795	0
6	732	1521.224092345244	0
6	734	1522.483703326391	0
6	735	1523.650199366205	0
6	740	1531.901860161949	0
6	742	1535.646236770744	1
6	745	1540.94821493639	1
6	750	1549.234031418051	0
6	761	1572.986821137387	0
6	762	1573.474501883317	0
6	765	1578.175953647353	0
6	767	1585.241753050579	1
6	769	1587.132978603985	2
6	770	1593.158154634016	2
6	771	1595.564394936705	1
6	772	1596.271364434554	0
6	775	1607.866900230068	0
6	780	1620.629704192004	0
6	782	1620.858746337915	0
6	785	1625.177549031103	0
6	799	1651.657211458186	0
6	800	1651.659160558626	0
6	806	1663.458451971507	0
6	808	1669.807579158733	1
6	809	1673.234149407519	1
6	810	1674.9895809918	0
6	821	1689.858323799459	0
6	822	1694.537288354916	0
6	836	1718.415691489493	0
6	837	1719.57641807002	0
6	877	1800.015885119056	0
6	878	1801.137856357017	0
6	883	1808.0803409936	0
6	885	1810.341179370831	1
6	886	1810.572075866355	1
6	889	1818.982854119794	0
6	893	1824.388897940259	0
6	900	1829.96149814846	0
6	925	1881.947441165122	0
6	930	1895.22577745265	0
6	947	1916.122398228426	0
6	954	1926.944428266701	0
6	997	2045.666673793756	0
6	1005	2059.687067641443	1
6	1006	2060.392946580334	1
6	1009	2070.273930916855	0
6	1051	2186.046939482105	0
6	1052	2186.201631296938	0
6	1054	2194.833129946157	0
6	1055	2196.164498599017	0
6	1057	2196.299699915596	0
6	1060	2200.548765262009	0
6	1081	2244.09734249812	0
6	1082	2245.243531250884	0
6	1088	2265.22514778348	0
6	1089	2265.447768052674	0
6	1114	2316.970532866741	0
6	1116	2323.784024738193	1
6	1117	2327.839451454783	1
6	1118	2327.986249934025	0
6	1123	2338.096476588065	0
6	1124	2339.920051463521	0
6	1151	2395.357417015676	0
6	1152	2395.741248215716	0
6	1167	2417.712062284441	0
6	1168	2418.739518902685	0
6	1170	2426.739274968978	0
6	1171	2429.230886802438	0
6	1174	2439.090611052453	0
6	1179	2445.341379966832	0
6	1190	2480.174805911224	0
6	1191	2487.432932482901	0
6	1193	2495.979355742821	0
6	1194	2497.632859238079	0
7	170	378.709152250134	16
7	192	440.53012720774	17
7	204	457.419023234562	18
7	211	468.799064145291	19
7	214	480.318230797203	20
7	218	484.90952384887	21
7	228	505.961850649434	22
7	252	554.110108776546	23
7	273	587.178436144109	24
7	299	655.198673069575	25
7	349	785.098536574	26
7	376	854.831562937981	27
7	393	890.868092084467	28
7	412	914.024007714159	29
7	424	928.387847736111	30
7	439	951.310911062493	31
7	486	1056.246911646935	32
7	500	1093.973552858002	33
7	503	1101.54876270529	34
7	506	1111.932910573383	35
7	509	1127.786404134727	36
7	518	1138.483016837908	37
7	523	1143.224112475761	38
7	527	1151.149186355431	39
7	531	1161.456839193517	40
7	538	1173.797537388465	41
7	547	1191.368243655724	42
7	573	1249.200377747733	43
7	582	1277.083159288513	44
7	592	1303.717692866975	45
7	619	1346.153180175218	46
7	663	1418.001472486213	47
7	668	1436.179366792582	48
7	684	1462.231641348461	49
7	695	1466.341604902987	50
7	698	1470.96465680018	51
7	706	1477.77824524896	52
7	716	1488.463222162503	53
7	727	1509.629166288597	54
7	731	1514.519387559795	55
7	734	1522.483703326391	56
7	740	1531.901860161949	57
7	761	1572.986821137387	58
7	765	1578.175953647353	59
7	775	1607.866900230068	60
7	782	1620.858746337915	61
7	799	1651.657211458186	62
7	806	1663.458451971507	63
7	821	1689.858323799459	64
7	836	1718.415691489493	65
7	877	1800.015885119056	66
7	883	1808.0803409936	67
7	893	1824.388897940259	68
7	925	1881.947441165122	69
7	947	1916.122398228426	70
7	997	2045.666673793756	71
7	1051	2186.046939482105	72
7	1054	2194.833129946157	73
7	1057	2196.299699915596	74
7	1081	2244.09734249812	75
7	1088	2265.22514778348	76
7	1114	2316.970532866741	77
7	1123	2338.096476588065	78
7	1151	2395.357417015676	79
7	1167	2417.712062284441	80
7	1170	2426.739274968978	81
7	1174	2439.090611052453	82
7	1190	2480.174805911224	83
7	1193	2495.979355742821	84
8	170	378.709152250134	0
8	173	385.430920471266	5.156604828856
8	178	392.349507266839	3.114001649288
8	181	396.059256471321	5.081905146663
8	184	425.941454825716	7.576211663824
8	192	440.53012720774	0
8	204	457.419023234562	0
8	211	468.799064145291	0
8	214	480.318230797203	0
8	218	484.90952384887	0
8	228	505.961850649434	0
8	252	554.110108776546	0
8	273	587.178436144109	0
8	282	602.936921475162	10.293908838416
8	285	611.844960151098	11.599522281353
8	286	613.99039112254	13.32887354249
8	289	627.172428720909	18.307794681711
8	292	629.535732284638	0.543656513703
8	299	655.198673069575	0
8	326	721.458044270898	0
8	349	785.098536574	0
8	359	813.085741460761	0
8	376	854.831562937981	0
8	393	890.868092084467	0
8	398	892.924707757544	0.10248660062
8	405	904.55180092781	0.110822475753
8	412	914.024007714159	0
8	424	928.387847736111	0
8	439	951.310911062493	0
8	442	952.396813534867	0.674825039202
8	449	964.855932776059	9.943397860735
8	450	964.969502332229	1.525779129322
8	457	973.20225201469	4.900575471508
8	486	1056.246911646935	0
8	489	1057.889841093595	0.326458683143
8	500	1093.973552858002	0
8	503	1101.54876270529	0
8	506	1111.932910573383	0
8	509	1127.786404134727	0
8	518	1138.483016837908	0
8	523	1143.224112475761	0
8	527	1151.149186355431	0
8	531	1161.456839193517	0
8	538	1173.797537388465	0
8	547	1191.368243655724	0
8	557	1216.415934965837	0
8	564	1236.023202327306	18.42472010787
8	573	1249.200377747733	0
8	582	1277.083159288513	0
8	592	1303.717692866975	0
8	619	1346.153180175218	0
8	663	1418.001472486213	0
8	668	1436.179366792582	0
8	684	1462.231641348461	0
8	695	1466.341604902987	0
8	698	1470.96465680018	0
8	706	1477.77824524896	0
8	713	1483.097667817443	5.044572741745
8	716	1488.463222162503	0
8	723	1491.826652938163	1.407995638185
8	727	1509.629166288597	0
8	731	1514.519387559795	0
8	734	1522.483703326391	0
8	740	1531.901860161949	0
8	745	1540.94821493639	5.301978165646
8	761	1572.986821137387	0
8	765	1578.175953647353	0
8	770	1593.158154634016	7.916401583437
8	771	1595.564394936705	8.43141633272
8	775	1607.866900230068	0
8	782	1620.858746337915	0
8	799	1651.657211458186	0
8	806	1663.458451971507	0
8	809	1673.234149407519	3.426570248786
8	821	1689.858323799459	0
8	836	1718.415691489493	0
8	877	1800.015885119056	0
8	883	1808.0803409936	0
8	886	1810.572075866355	0.230896495524
8	893	1824.388897940259	0
8	925	1881.947441165122	0
8	947	1916.122398228426	0
8	997	2045.666673793756	0
8	1006	2060.392946580334	0.705878938891
8	1051	2186.046939482105	0
8	1054	2194.833129946157	0
8	1057	2196.299699915596	0
8	1081	2244.09734249812	0
8	1088	2265.22514778348	0
8	1114	2316.970532866741	0
8	1117	2327.839451454783	4.05542671659
8	1123	2338.096476588065	0
8	1151	2395.357417015676	0
8	1167	2417.712062284441	0
8	1170	2426.739274968978	0
8	1174	2439.090611052453	0
8	1190	2480.174805911224	0
8	1193	2495.979355742821	0
9	173	385.430920471266	26
9	178	392.349507266839	27
9	181	396.059256471321	28
9	184	425.941454825716	29
9	189	433.128238413619	30
9	193	441.37584365362	31
9	207	459.384015933449	32
9	212	469.712481738318	33
9	215	481.245676999422	34
9	219	486.179701436593	35
9	231	507.542097539768	36
9	257	569.258987202998	37
9	282	602.936921475162	38
9	285	611.844960151098	39
9	286	613.99039112254	40
9	289	627.172428720909	41
9	292	629.535732284638	42
9	295	648.300960387178	43
9	300	657.129567833061	44
9	327	729.737678090866	45
9	350	789.290842800095	46
9	360	825.374866031221	47
9	383	873.680340768845	48
9	398	892.924707757544	49
9	405	904.55180092781	50
9	406	908.208723755499	51
9	417	924.715840379714	52
9	427	935.160223228292	53
9	442	952.396813534867	54
9	449	964.855932776059	55
9	450	964.969502332229	56
9	457	973.20225201469	57
9	458	975.885810856889	58
9	489	1057.889841093595	59
9	492	1063.511620937072	60
9	501	1095.682089398831	61
9	504	1104.622048375946	62
9	507	1112.324918471875	63
9	514	1130.298181363572	64
9	519	1139.840331073326	65
9	524	1144.517398002091	66
9	528	1154.702605980971	67
9	536	1165.820452751738	68
9	539	1174.414724232736	69
9	548	1193.113638890336	70
9	564	1236.023202327306	71
9	569	1240.765273013148	72
9	574	1249.877558538909	73
9	583	1286.70354000466	74
9	593	1306.356296587139	75
9	624	1355.929239813019	76
9	664	1422.88635416102	77
9	671	1444.540477148798	78
9	689	1464.919526612869	79
9	696	1466.801805125089	80
9	701	1474.373076631771	81
9	713	1483.097667817443	82
9	714	1483.657970555671	83
9	723	1491.826652938163	84
9	724	1497.679882546859	85
9	728	1511.884936455323	86
9	732	1521.224092345244	87
9	735	1523.650199366205	88
9	745	1540.94821493639	89
9	750	1549.234031418051	90
9	762	1573.474501883317	91
9	770	1593.158154634016	92
9	771	1595.564394936705	93
9	772	1596.271364434554	94
9	780	1620.629704192004	95
9	785	1625.177549031103	96
9	800	1651.659160558626	97
9	809	1673.234149407519	98
9	810	1674.9895809918	99
9	822	1694.537288354916	100
9	837	1719.57641807002	101
9	878	1801.137856357017	102
9	886	1810.572075866355	103
9	889	1818.982854119794	104
9	900	1829.96149814846	105
9	930	1895.22577745265	106
9	954	1926.944428266701	107
9	1006	2060.392946580334	108
9	1009	2070.273930916855	109
9	1052	2186.201631296938	110
9	1055	2196.164498599017	111
9	1060	2200.548765262009	112
9	1082	2245.243531250884	113
9	1089	2265.447768052674	114
9	1117	2327.839451454783	115
9	1118	2327.986249934025	116
9	1124	2339.920051463521	117
9	1152	2395.741248215716	118
9	1168	2418.739518902685	119
9	1171	2429.230886802438	120
9	1179	2445.341379966832	121
9	1191	2487.432932482901	122
9	1194	2497.632859238079	123
10	173	385.430920471266	6.721768221132
10	178	392.349507266839	12.075191624429
10	181	396.059256471321	6.82375085377
10	184	425.941454825716	34.964103501058
10	189	433.128238413619	14.762995251727
10	193	441.37584365362	0.84571644588
10	207	459.384015933449	1.964992698887
10	212	469.712481738318	0.913417593027
10	215	481.245676999422	0.927446202219
10	219	486.179701436593	1.270177587723
10	231	507.542097539768	1.580246890334
10	257	569.258987202998	15.148878426452
10	282	602.936921475162	15.758485331053
10	285	611.844960151098	19.201947514352
10	286	613.99039112254	13.744953252795
10	289	627.172428720909	26.510911140859
10	292	629.535732284638	20.67109824544
10	295	648.300960387178	19.308884616243
10	300	657.129567833061	1.930894763486
10	327	729.737678090866	8.279633819968
10	350	789.290842800095	4.192306226095
10	360	825.374866031221	12.28912457046
10	383	873.680340768845	18.848777830864
10	398	892.924707757544	2.056615673077
10	405	904.55180092781	11.729579770886
10	406	908.208723755499	3.767745303442
10	417	924.715840379714	10.691832665555
10	427	935.160223228292	6.772375492181
10	442	952.396813534867	1.085902472374
10	449	964.855932776059	13.133944280394
10	450	964.969502332229	10.056967416905
10	457	973.20225201469	9.758528811783
10	458	975.885810856889	7.584134313707
10	489	1057.889841093595	1.64292944666
10	492	1063.511620937072	5.94823852662
10	501	1095.682089398831	1.708536540829
10	504	1104.622048375946	3.073285670656
10	507	1112.324918471875	0.392007898492
10	514	1130.298181363572	2.511777228845
10	519	1139.840331073326	1.357314235418
10	524	1144.517398002091	1.29328552633
10	528	1154.702605980971	3.55341962554
10	536	1165.820452751738	4.363613558221
10	539	1174.414724232736	0.617186844271
10	548	1193.113638890336	1.745395234612
10	564	1236.023202327306	19.607267361469
10	569	1240.765273013148	23.166790793712
10	574	1249.877558538909	0.677180791176
10	583	1286.70354000466	9.620380716147
10	593	1306.356296587139	2.638603720164
10	624	1355.929239813019	9.776059637801
10	664	1422.88635416102	4.884881674807
10	671	1444.540477148798	8.361110356216
10	689	1464.919526612869	2.687885264408
10	696	1466.801805125089	0.460200222102
10	701	1474.373076631771	3.408419831591
10	713	1483.097667817443	5.319422568483
10	714	1483.657970555671	5.604875479973
10	723	1491.826652938163	3.36343077566
10	724	1497.679882546859	7.261225246881
10	728	1511.884936455323	2.255770166726
10	732	1521.224092345244	6.704704785449
10	735	1523.650199366205	1.166496039814
10	745	1540.94821493639	9.046354774441
10	750	1549.234031418051	13.587794647307
10	762	1573.474501883317	0.48768074593
10	770	1593.158154634016	14.982200986663
10	771	1595.564394936705	10.322641886126
10	772	1596.271364434554	9.138385830569
10	780	1620.629704192004	12.762803961936
10	785	1625.177549031103	4.318802693188
10	800	1651.659160558626	0.00194910044
10	809	1673.234149407519	9.775697436012
10	810	1674.9895809918	5.182001833067
10	822	1694.537288354916	4.678964555457
10	837	1719.57641807002	1.160726580527
10	878	1801.137856357017	1.121971237961
10	886	1810.572075866355	2.491734872755
10	889	1818.982854119794	8.641674748963
10	900	1829.96149814846	5.572600208201
10	930	1895.22577745265	13.278336287528
10	954	1926.944428266701	10.822030038275
10	1006	2060.392946580334	14.726272786578
10	1009	2070.273930916855	10.586863275412
10	1052	2186.201631296938	0.154691814833
10	1055	2196.164498599017	1.33136865286
10	1060	2200.548765262009	4.249065346413
10	1082	2245.243531250884	1.146188752764
10	1089	2265.447768052674	0.222620269194
10	1117	2327.839451454783	10.868918588042
10	1118	2327.986249934025	4.202225195832
10	1124	2339.920051463521	1.823574875456
10	1152	2395.741248215716	0.38383120004
10	1168	2418.739518902685	1.027456618244
10	1171	2429.230886802438	2.49161183346
10	1179	2445.341379966832	6.250768914379
10	1191	2487.432932482901	7.258126571677
10	1194	2497.632859238079	1.653503495258
11	1195	2500	0.1076
12	1195	2500	0.0492

