version 2
run experiments_medium_game_mode1-1098-20230311-09:43:48-14181
attr configname experiments_medium_game_mode1
attr datetime 20230311-09:43:48
attr experiment experiments_medium_game_mode1
attr inifile omnetpp.ini
attr iterationvars "$0=6.5, $1=6, $2=0"
attr iterationvarsf 6.5,6,0-
attr measurement "$0=6.5, $1=6, $2=0"
attr network Network
attr processid 14181
attr repetition 18
attr replication #18
attr resultdir results
attr runnumber 1098
attr seedset 18
param *.boss.arrival_mean 20
param *.boss.service_mean 6.5
param *.minion.arrival_mean 10
param *.minion.service_mean 6
param *.player.recover_rate_x 0
param **.minion.arrival_distribution 0
param **.minion.service_distribution 0
param **.boss.arrival_distribution 0
param **.boss.service_distribution 0

vector 0 Network.player boss_jobs_number_stat:vector ETV
attr source signal_boss_jobs_number
vector 1 Network.player boss_jobs_queue_number_stat:vector ETV
attr source signal_boss_jobs_queue_number
vector 2 Network.player minion_recovered_stat:vector ETV
attr source signal_minion_recovered
vector 3 Network.player boss_waiting_time_stat:vector ETV
attr source signal_boss_waiting_time
vector 4 Network.player minion_jobs_number_stat:vector ETV
attr source signal_minion_jobs_number
vector 5 Network.player minion_jobs_queue_number_stat:vector ETV
attr source signal_minion_jobs_queue_number
vector 6 Network.player boss_defeated_stat:vector ETV
attr source signal_boss_defeated
vector 7 Network.player boss_response_time_stat:vector ETV
attr source signal_boss_response_time
vector 8 Network.player minion_waiting_time_stat:vector ETV
attr source signal_minion_waiting_time
vector 9 Network.player minion_defeated_stat:vector ETV
attr source signal_minion_defeated
vector 10 Network.player minion_response_time_stat:vector ETV
attr source signal_minion_response_time
vector 11 Network.player minion_throughput:vector ETV
attr source signal_minion_throughput
vector 12 Network.player boss_throughput:vector ETV
attr source signal_boss_throughput
0	139	352.65760743913	1
0	145	359.293699558628	1
0	149	361.689670555923	1
0	174	423.510220605586	1
0	190	464.310329824607	1
0	205	490.311357624162	1
0	213	503.252965294132	1
0	217	507.787385408353	2
0	221	509.460907223688	3
0	229	515.59083765368	2
0	231	518.812306809382	3
0	237	528.789657893763	4
0	240	536.621619676878	4
0	244	539.876371230947	5
0	246	540.011977590143	6
0	266	576.409290106954	1
0	276	601.646983798841	1
0	287	620.5673933378	1
0	289	621.913209437982	2
0	301	646.35204339536	1
0	305	657.379640067769	1
0	340	733.174320689637	1
0	351	765.857088538859	1
0	382	831.36383180455	1
0	384	831.962629369746	2
0	391	850.840600045191	2
0	397	865.76178541671	3
0	415	901.223484359462	1
0	431	932.184322298713	1
0	434	937.929585530627	1
0	453	971.342649776712	1
0	464	983.072545625181	1
0	467	991.427067730116	1
0	479	1015.605515033844	1
0	486	1025.81114179477	1
0	514	1109.798972014767	1
0	526	1149.457133924026	1
0	548	1196.526696454582	1
0	550	1196.569454728748	2
0	554	1210.285144495441	1
0	556	1213.98675580795	2
0	563	1231.630065478987	2
0	567	1241.308179746611	3
0	579	1263.189796643971	1
0	591	1281.513172219529	1
0	595	1292.096612948606	1
0	601	1294.89263798076	2
0	603	1295.723033753267	3
0	605	1296.428746356222	4
0	607	1297.941004178685	5
0	619	1322.14802534089	2
0	621	1323.120498050406	3
0	631	1338.292960251381	4
0	653	1384.918681491055	1
0	660	1412.519964056525	1
0	670	1429.644800299848	1
0	672	1432.943823798201	2
0	680	1454.825693868242	3
0	682	1456.237201907714	4
0	688	1463.501273298819	3
0	695	1476.895200702336	3
0	699	1478.65248867971	4
0	707	1493.942844496456	3
0	713	1513.068384497825	2
0	721	1530.316331484607	1
0	765	1626.275814319071	1
0	778	1648.090529582688	1
0	780	1648.406833864499	2
0	786	1660.09057612624	1
0	790	1673.738745992098	2
0	793	1676.701949053993	2
0	796	1677.810560318481	2
0	799	1682.363952277894	2
0	804	1701.700788650236	2
0	806	1706.668184001908	3
0	826	1748.582026119455	1
0	843	1779.095334613409	1
0	854	1801.263659048677	1
0	866	1825.874136888878	1
0	871	1830.294960282079	1
0	878	1845.141402175686	1
0	886	1885.574877957284	1
0	918	1962.87460879635	1
0	938	2024.60862566707	1
0	940	2030.819784934859	2
0	947	2055.285658945094	1
0	967	2081.351597619549	1
0	978	2096.782173260599	1
0	983	2106.087901989699	1
0	1009	2154.144294006872	1
0	1024	2167.364661838233	1
0	1030	2176.992351096176	1
0	1042	2206.891406240519	1
0	1059	2247.512079356014	1
0	1070	2306.924212961346	1
0	1076	2348.186366084548	1
0	1084	2370.15674638938	1
0	1108	2425.111267728735	1
0	1119	2451.626198357569	1
0	1127	2469.476608553846	1
0	1133	2490.238705866935	1
0	1135	2494.252370332495	2
0	1137	2494.636027121347	3
1	139	352.65760743913	0
1	142	355.703566186043	0
1	145	359.293699558628	0
1	146	359.657255433514	0
1	149	361.689670555923	0
1	152	379.316303527276	0
1	174	423.510220605586	0
1	177	428.37336638007	0
1	190	464.310329824607	0
1	191	471.099744422452	0
1	205	490.311357624162	0
1	208	496.483405877664	0
1	213	503.252965294132	0
1	217	507.787385408353	1
1	221	509.460907223688	2
1	222	510.494649186258	2
1	227	515.241939575575	1
1	229	515.59083765368	1
1	231	518.812306809382	2
1	237	528.789657893763	3
1	238	532.674913750502	3
1	240	536.621619676878	3
1	244	539.876371230947	4
1	246	540.011977590143	5
1	247	541.386932297028	5
1	252	548.593004727279	4
1	253	554.745215551369	3
1	254	556.462045490053	2
1	257	561.363424998395	1
1	258	563.284120579267	0
1	266	576.409290106954	0
1	267	579.126805227539	0
1	276	601.646983798841	0
1	279	603.303714845084	0
1	287	620.5673933378	0
1	289	621.913209437982	1
1	290	623.811876594215	1
1	291	624.358809205034	0
1	301	646.35204339536	0
1	302	652.52369743127	0
1	305	657.379640067769	0
1	308	658.701358011141	0
1	340	733.174320689637	0
1	341	737.260557405909	0
1	351	765.857088538859	0
1	354	774.247289193267	0
1	382	831.36383180455	0
1	384	831.962629369746	1
1	385	832.215218214019	1
1	391	850.840600045191	1
1	397	865.76178541671	2
1	400	876.679713004382	2
1	401	879.645068814511	1
1	402	880.649422012931	0
1	415	901.223484359462	0
1	416	906.938110664597	0
1	431	932.184322298713	0
1	432	933.805336420488	0
1	434	937.929585530627	0
1	435	939.242818201198	0
1	453	971.342649776712	0
1	454	973.463974763839	0
1	464	983.072545625181	0
1	465	988.294416282776	0
1	467	991.427067730116	0
1	472	1000.361929522128	0
1	479	1015.605515033844	0
1	480	1016.784071286072	0
1	486	1025.81114179477	0
1	493	1051.397855172608	0
1	514	1109.798972014767	0
1	517	1114.31673109513	0
1	526	1149.457133924026	0
1	531	1159.23999660465	0
1	548	1196.526696454582	0
1	550	1196.569454728748	1
1	551	1202.472171353812	1
1	552	1210.193598552159	0
1	554	1210.285144495441	0
1	556	1213.98675580795	1
1	559	1230.15333329112	1
1	563	1231.630065478987	1
1	567	1241.308179746611	2
1	568	1249.427776302673	2
1	569	1252.818451648103	1
1	570	1253.345247341331	0
1	579	1263.189796643971	0
1	584	1276.873777862033	0
1	591	1281.513172219529	0
1	592	1283.045904439954	0
1	595	1292.096612948606	0
1	601	1294.89263798076	1
1	603	1295.723033753267	2
1	605	1296.428746356222	3
1	607	1297.941004178685	4
1	608	1299.421312504599	4
1	611	1306.53917111398	3
1	614	1309.816170283197	2
1	617	1320.257246256737	1
1	619	1322.14802534089	1
1	621	1323.120498050406	2
1	631	1338.292960251381	3
1	634	1352.297902226264	3
1	641	1358.908765347971	2
1	642	1361.456623679984	1
1	645	1361.676752862523	0
1	653	1384.918681491055	0
1	654	1393.542859689152	0
1	660	1412.519964056525	0
1	661	1414.702290381791	0
1	670	1429.644800299848	0
1	672	1432.943823798201	1
1	680	1454.825693868242	2
1	682	1456.237201907714	3
1	683	1456.781185792327	3
1	684	1457.35992553548	2
1	688	1463.501273298819	2
1	691	1468.431003447416	2
1	695	1476.895200702336	2
1	699	1478.65248867971	3
1	700	1481.961445929331	3
1	705	1488.181318711033	2
1	707	1493.942844496456	2
1	708	1508.298276545551	2
1	709	1512.142297380226	1
1	713	1513.068384497825	1
1	716	1520.614862079329	1
1	719	1528.237688607655	0
1	721	1530.316331484607	0
1	722	1530.482674252872	0
1	765	1626.275814319071	0
1	768	1632.412555281644	0
1	778	1648.090529582688	0
1	780	1648.406833864499	1
1	783	1657.248981537841	1
1	784	1658.958271747962	0
1	786	1660.09057612624	0
1	790	1673.738745992098	1
1	791	1674.545497583759	1
1	793	1676.701949053993	1
1	794	1676.802368471594	1
1	796	1677.810560318481	1
1	797	1678.805478516572	1
1	799	1682.363952277894	1
1	800	1689.561999629622	1
1	804	1701.700788650236	1
1	806	1706.668184001908	2
1	807	1706.975374085533	2
1	808	1712.644150284357	1
1	809	1716.047065889556	0
1	826	1748.582026119455	0
1	827	1752.908701737004	0
1	843	1779.095334613409	0
1	846	1782.582142369935	0
1	854	1801.263659048677	0
1	855	1803.993204916013	0
1	866	1825.874136888878	0
1	867	1827.30769927589	0
1	871	1830.294960282079	0
1	872	1835.269790153754	0
1	878	1845.141402175686	0
1	881	1872.731985054519	0
1	886	1885.574877957284	0
1	887	1885.663440595922	0
1	918	1962.87460879635	0
1	919	1965.317633177366	0
1	938	2024.60862566707	0
1	940	2030.819784934859	1
1	941	2033.714354258077	1
1	942	2034.996568990195	0
1	947	2055.285658945094	0
1	950	2061.38661790672	0
1	967	2081.351597619549	0
1	968	2081.42674774771	0
1	978	2096.782173260599	0
1	979	2101.855104244472	0
1	983	2106.087901989699	0
1	986	2116.60296388292	0
1	1009	2154.144294006872	0
1	1010	2156.795316359501	0
1	1024	2167.364661838233	0
1	1027	2171.920744072419	0
1	1030	2176.992351096176	0
1	1031	2180.550481843781	0
1	1042	2206.891406240519	0
1	1045	2210.995203955663	0
1	1059	2247.512079356014	0
1	1060	2251.632975273075	0
1	1070	2306.924212961346	0
1	1071	2316.749782658747	0
1	1076	2348.186366084548	0
1	1077	2350.307649376867	0
1	1084	2370.15674638938	0
1	1085	2372.323658483539	0
1	1108	2425.111267728735	0
1	1109	2432.341519343713	0
1	1119	2451.626198357569	0
1	1120	2452.371733944965	0
1	1127	2469.476608553846	0
1	1128	2477.544811993261	0
1	1133	2490.238705866935	0
1	1135	2494.252370332495	1
1	1137	2494.636027121347	2
2	139	352.65760743913	6
2	145	359.293699558628	7
2	149	361.689670555923	8
2	174	423.510220605586	9
2	190	464.310329824607	10
2	205	490.311357624162	11
2	213	503.252965294132	12
2	266	576.409290106954	13
2	276	601.646983798841	14
2	287	620.5673933378	15
2	301	646.35204339536	16
2	305	657.379640067769	17
2	340	733.174320689637	18
2	351	765.857088538859	19
2	382	831.36383180455	20
2	415	901.223484359462	21
2	431	932.184322298713	22
2	434	937.929585530627	23
2	453	971.342649776712	24
2	464	983.072545625181	25
2	467	991.427067730116	26
2	486	1025.81114179477	27
2	514	1109.798972014767	28
2	526	1149.457133924026	29
2	548	1196.526696454582	30
2	554	1210.285144495441	31
2	579	1263.189796643971	32
2	591	1281.513172219529	33
2	595	1292.096612948606	34
2	653	1384.918681491055	35
2	660	1412.519964056525	36
2	670	1429.644800299848	37
2	721	1530.316331484607	38
2	765	1626.275814319071	39
2	778	1648.090529582688	40
2	786	1660.09057612624	41
2	826	1748.582026119455	42
2	843	1779.095334613409	43
2	854	1801.263659048677	44
2	866	1825.874136888878	45
2	871	1830.294960282079	46
2	878	1845.141402175686	47
2	886	1885.574877957284	48
2	918	1962.87460879635	49
2	938	2024.60862566707	50
2	947	2055.285658945094	51
2	967	2081.351597619549	52
2	978	2096.782173260599	53
2	983	2106.087901989699	54
2	1009	2154.144294006872	55
2	1024	2167.364661838233	56
2	1030	2176.992351096176	57
2	1042	2206.891406240519	58
2	1059	2247.512079356014	59
2	1084	2370.15674638938	60
2	1108	2425.111267728735	61
2	1119	2451.626198357569	62
3	139	352.65760743913	0
3	145	359.293699558628	0
3	149	361.689670555923	0
3	174	423.510220605586	0
3	190	464.310329824607	0
3	205	490.311357624162	0
3	213	503.252965294132	0
3	222	510.494649186258	2.707263777905
3	227	515.241939575575	5.781032351887
3	238	532.674913750502	17.084076096822
3	247	541.386932297028	22.574625487646
3	252	548.593004727279	19.803346833516
3	253	554.745215551369	18.123595874491
3	254	556.462045490053	16.585674259106
3	257	561.363424998395	21.351447408252
3	266	576.409290106954	0
3	276	601.646983798841	0
3	287	620.5673933378	0
3	290	623.811876594215	1.898667156233
3	301	646.35204339536	0
3	305	657.379640067769	0
3	340	733.174320689637	0
3	351	765.857088538859	0
3	382	831.36383180455	0
3	385	832.215218214019	0.252588844273
3	400	876.679713004382	25.839112959191
3	401	879.645068814511	13.883283397801
3	415	901.223484359462	0
3	431	932.184322298713	0
3	434	937.929585530627	0
3	453	971.342649776712	0
3	464	983.072545625181	0
3	467	991.427067730116	0
3	479	1015.605515033844	0
3	486	1025.81114179477	0
3	514	1109.798972014767	0
3	526	1149.457133924026	0
3	548	1196.526696454582	0
3	551	1202.472171353812	5.902716625064
3	554	1210.285144495441	0
3	559	1230.15333329112	16.16657748317
3	568	1249.427776302673	17.797710823686
3	569	1252.818451648103	11.510271901492
3	579	1263.189796643971	0
3	591	1281.513172219529	0
3	595	1292.096612948606	0
3	608	1299.421312504599	4.528674523839
3	611	1306.53917111398	10.816137360713
3	614	1309.816170283197	13.387423926975
3	617	1320.257246256737	22.316242078052
3	634	1352.297902226264	30.149876885374
3	641	1358.908765347971	35.788267297565
3	642	1361.456623679984	23.163663428603
3	653	1384.918681491055	0
3	660	1412.519964056525	0
3	670	1429.644800299848	0
3	683	1456.781185792327	23.837361994126
3	684	1457.35992553548	2.534231667238
3	691	1468.431003447416	12.193801539702
3	700	1481.961445929331	18.460172630512
3	705	1488.181318711033	11.286118008697
3	708	1508.298276545551	29.645787865841
3	709	1512.142297380226	18.19945288377
3	716	1520.614862079329	7.546477581504
3	721	1530.316331484607	0
3	765	1626.275814319071	0
3	778	1648.090529582688	0
3	783	1657.248981537841	8.842147673342
3	786	1660.09057612624	0
3	791	1674.545497583759	0.806751591661
3	794	1676.802368471594	0.100419417601
3	797	1678.805478516572	0.994918198091
3	800	1689.561999629622	7.198047351728
3	807	1706.975374085533	5.274585435297
3	808	1712.644150284357	5.975966282449
3	826	1748.582026119455	0
3	843	1779.095334613409	0
3	854	1801.263659048677	0
3	866	1825.874136888878	0
3	871	1830.294960282079	0
3	878	1845.141402175686	0
3	886	1885.574877957284	0
3	918	1962.87460879635	0
3	938	2024.60862566707	0
3	941	2033.714354258077	2.894569323218
3	947	2055.285658945094	0
3	967	2081.351597619549	0
3	978	2096.782173260599	0
3	983	2106.087901989699	0
3	1009	2154.144294006872	0
3	1024	2167.364661838233	0
3	1030	2176.992351096176	0
3	1042	2206.891406240519	0
3	1059	2247.512079356014	0
3	1070	2306.924212961346	0
3	1076	2348.186366084548	0
3	1084	2370.15674638938	0
3	1108	2425.111267728735	0
3	1119	2451.626198357569	0
3	1127	2469.476608553846	0
3	1133	2490.238705866935	0
4	141	355.05946736505	8
4	151	370.780850023652	7
4	156	386.01824043156	6
4	160	397.684376195028	5
4	164	407.278190585379	4
4	166	407.91544005567	5
4	169	417.79778371846	5
4	171	419.657785982005	6
4	176	424.276063284641	6
4	182	445.699346670034	4
4	184	447.543103794211	5
4	188	460.516704985146	4
4	196	474.19422053615	2
4	198	481.095683169202	3
4	202	486.127831312219	2
4	207	490.485140357307	2
4	211	501.288951545055	2
4	215	505.002956299096	3
4	219	508.839663443019	4
4	224	513.738271046524	5
4	226	514.458292495847	6
4	233	525.229499277953	7
4	235	525.730885217399	8
4	242	537.391873471516	9
4	249	543.219500807899	10
4	251	548.535664666951	11
4	256	560.623706455632	12
4	262	568.939460714816	11
4	270	584.468749162211	9
4	274	599.791279867924	8
4	278	602.50064407349	9
4	281	605.718975695784	10
4	283	616.248476632966	11
4	285	619.18447714698	12
4	294	639.624648878793	12
4	296	641.806301898067	13
4	299	644.169706261645	13
4	307	658.230766056464	13
4	310	659.622136286692	14
4	314	665.804613480816	13
4	320	682.178400840308	10
4	327	700.87674194091	6
4	329	701.285677243009	7
4	333	717.967404583469	6
4	336	722.446726874082	6
4	344	739.610347347772	4
4	349	750.885863105092	2
4	353	769.247020053464	3
4	358	786.806884617963	2
4	362	796.034432044079	1
4	365	801.770196139294	1
4	367	802.643361737249	2
4	369	803.466342464771	3
4	374	821.989938605393	1
4	377	822.971999659924	1
4	379	825.692127493628	2
4	387	837.481048809211	2
4	389	837.528711359265	3
4	393	853.367451096851	4
4	395	864.80791871467	5
4	399	868.699468202168	6
4	410	892.215476562267	1
4	412	896.95419122637	2
4	418	908.783784786466	2
4	421	921.983408396422	2
4	423	923.077491675642	3
4	425	926.313872219769	4
4	427	928.366526091904	5
4	429	931.138786419577	6
4	443	951.775819964726	1
4	446	954.938401825785	1
4	448	960.15791517345	2
4	451	961.941637758824	2
4	456	973.955373969978	3
4	458	974.438970779056	4
4	460	976.208487875792	5
4	469	994.275476802733	4
4	471	998.967850855492	5
4	482	1021.422423220967	1
4	484	1025.61861987627	2
4	488	1034.732109192486	3
4	490	1038.782605635946	4
4	492	1043.159900290471	5
4	497	1064.460086608793	4
4	499	1065.265403748812	5
4	504	1093.886914810011	3
4	506	1095.796884728062	4
4	509	1100.441881947243	4
4	511	1102.411024622887	5
4	516	1110.248847979331	5
4	519	1115.662036455481	6
4	521	1127.991864436109	7
4	528	1150.403494908239	5
4	530	1157.698185414769	6
4	534	1160.726672716901	6
4	540	1179.987550244786	3
4	543	1190.406193379886	3
4	546	1192.060187505366	3
4	558	1214.542207979603	4
4	561	1230.587609546064	5
4	565	1239.074375508244	6
4	572	1257.072305290322	7
4	574	1258.154433461831	8
4	576	1258.463916101759	9
4	581	1268.084140595639	9
4	583	1269.559912571375	10
4	587	1279.343956200392	10
4	589	1281.438934440836	11
4	597	1293.39115214529	11
4	599	1294.09831111435	12
4	610	1306.377084729727	13
4	613	1308.790255576544	14
4	616	1312.306243155178	15
4	623	1325.552127347144	16
4	625	1329.476278199886	17
4	627	1331.977731951153	18
4	629	1335.18914020612	19
4	633	1345.473493177319	20
4	636	1353.837422051082	21
4	638	1355.903882210185	22
4	640	1356.72186603143	23
4	644	1361.4761275669	24
4	647	1367.411236736202	25
4	657	1399.696189430956	21
4	664	1417.078528100198	20
4	666	1420.290782061921	21
4	674	1438.259455455825	20
4	676	1444.792201787484	21
4	678	1449.871614903672	22
4	686	1460.060926220485	23
4	690	1464.592283923065	24
4	693	1476.202711998038	25
4	697	1478.069516448218	26
4	702	1485.640289736562	27
4	704	1487.04370975529	28
4	711	1512.283199849435	29
4	715	1514.492181875754	30
4	718	1525.749158143837	31
4	724	1532.577202008577	32
4	726	1538.005236612714	33
4	729	1551.435827516609	33
4	735	1561.172855466474	30
4	737	1562.687982903677	31
4	743	1576.644626109085	28
4	745	1577.971520441329	29
4	747	1578.224976662378	30
4	749	1580.245655261544	31
4	752	1584.930820075336	31
4	754	1598.806839497624	32
4	759	1609.425566048026	30
4	763	1624.066798678646	29
4	767	1627.508938156312	30
4	774	1644.804533826314	27
4	782	1656.941765470321	26
4	788	1667.440571028196	27
4	802	1696.918963719115	28
4	813	1719.112607261954	27
4	816	1730.314919826024	27
4	822	1747.308895643383	24
4	824	1748.047353153453	25
4	829	1758.501417219979	26
4	831	1759.620362943869	27
4	833	1761.129210365635	28
4	836	1763.813737269511	28
4	839	1770.185782847709	28
4	841	1778.687776808715	29
4	845	1781.263490443706	30
4	848	1783.647511303199	31
4	850	1791.920343721064	32
4	860	1809.927053426328	28
4	864	1824.121326190655	27
4	869	1828.799173711548	28
4	874	1836.776512552437	29
4	880	1863.001971466587	28
4	884	1877.221133022566	28
4	889	1886.960024108163	29
4	891	1894.963428843149	30
4	893	1898.466332015644	31
4	895	1905.001104474535	32
4	900	1918.282732109325	30
4	903	1930.581653249306	30
4	906	1935.826789934323	30
4	908	1942.879357732617	31
4	912	1951.691519557266	30
4	914	1951.845844740435	31
4	916	1955.941756291918	32
4	926	1981.415149903608	28
4	929	1991.932271441198	28
4	944	2036.820239663622	22
4	949	2055.395634036457	22
4	955	2066.336908056797	20
4	958	2068.572735745909	20
4	962	2073.629401755589	19
4	970	2090.373689927269	17
4	972	2091.510531786147	18
4	974	2094.509784816636	19
4	981	2103.10888607586	18
4	985	2109.544519618569	19
4	988	2121.370922174609	20
4	990	2121.865282291356	21
4	997	2140.760935507749	17
4	1001	2148.408502014201	16
4	1005	2150.88545136286	15
4	1007	2153.152701023359	16
4	1012	2156.826185249186	17
4	1016	2158.885137271309	16
4	1026	2167.645034195839	11
4	1033	2180.820140528645	11
4	1036	2190.617248134383	11
4	1044	2208.631005398133	8
4	1047	2213.327587140208	9
4	1055	2229.887447686045	4
4	1062	2260.949383513056	3
4	1067	2299.27861517504	1
4	1073	2325.819276184382	1
4	1079	2354.169776292782	1
4	1082	2363.140470416597	1
4	1088	2372.742441384221	1
4	1090	2376.357023247149	2
4	1094	2387.929246926715	1
4	1096	2388.368622764903	2
4	1099	2399.324458944691	2
4	1103	2416.76104363929	1
4	1106	2420.683923370384	1
4	1111	2433.483901769592	2
4	1114	2436.064121627286	2
4	1117	2449.110225251561	2
4	1123	2452.839439866003	2
4	1130	2485.429838161415	1
5	141	355.05946736505	7
5	143	358.033257894335	7
5	147	360.697748640155	6
5	151	370.780850023652	6
5	153	384.646368171663	6
5	154	385.317568911774	5
5	156	386.01824043156	5
5	157	394.104826960596	5
5	158	395.927464525431	4
5	160	397.684376195028	4
5	161	398.22301150296	4
5	162	405.935793162197	3
5	164	407.278190585379	3
5	166	407.91544005567	4
5	167	409.460491511203	4
5	169	417.79778371846	4
5	171	419.657785982005	5
5	172	422.001794475855	5
5	176	424.276063284641	5
5	178	443.458793561087	5
5	179	444.616670733634	4
5	180	445.282078436409	3
5	182	445.699346670034	3
5	184	447.543103794211	4
5	185	454.804072262158	4
5	186	454.819252044016	3
5	188	460.516704985146	3
5	192	471.855031976321	3
5	193	472.121423287643	2
5	194	473.857355867436	1
5	196	474.19422053615	1
5	198	481.095683169202	2
5	199	485.543418733478	2
5	200	485.751239773761	1
5	202	486.127831312219	1
5	203	488.599356190407	1
5	207	490.485140357307	1
5	209	499.334578018579	1
5	211	501.288951545055	1
5	215	505.002956299096	2
5	219	508.839663443019	3
5	224	513.738271046524	4
5	226	514.458292495847	5
5	233	525.229499277953	6
5	235	525.730885217399	7
5	242	537.391873471516	8
5	249	543.219500807899	9
5	251	548.535664666951	10
5	256	560.623706455632	11
5	259	563.451151358994	11
5	260	564.505929867517	10
5	262	568.939460714816	10
5	263	571.724420898945	10
5	264	574.194802116026	9
5	268	580.415893222264	8
5	270	584.468749162211	8
5	271	597.295341949357	8
5	272	599.172767014931	7
5	274	599.791279867924	7
5	278	602.50064407349	8
5	281	605.718975695784	9
5	283	616.248476632966	10
5	285	619.18447714698	11
5	292	624.838966298986	11
5	294	639.624648878793	11
5	296	641.806301898067	12
5	297	642.482518597692	12
5	299	644.169706261645	12
5	303	656.720988476132	12
5	307	658.230766056464	12
5	310	659.622136286692	13
5	311	661.435168361435	13
5	312	661.613540260847	12
5	314	665.804613480816	12
5	315	668.002720317726	12
5	316	674.655731300914	11
5	317	674.997893399097	10
5	318	676.861278728463	9
5	320	682.178400840308	9
5	321	682.198188482368	9
5	322	689.209066820788	8
5	323	689.550509080358	7
5	324	695.627078044808	6
5	325	696.281568719827	5
5	327	700.87674194091	5
5	329	701.285677243009	6
5	330	705.907892352332	6
5	331	712.694514206607	5
5	333	717.967404583469	5
5	334	718.234041834074	5
5	336	722.446726874082	5
5	337	724.08738273741	5
5	338	724.864223366644	4
5	342	738.696737895185	3
5	344	739.610347347772	3
5	345	740.425916384615	3
5	346	744.674726861152	2
5	347	748.294714860014	1
5	349	750.885863105092	1
5	353	769.247020053464	2
5	355	778.131724520956	2
5	356	783.662053526016	1
5	358	786.806884617963	1
5	359	790.017486354816	1
5	360	790.52699294218	0
5	362	796.034432044079	0
5	363	800.635182167008	0
5	365	801.770196139294	0
5	367	802.643361737249	1
5	369	803.466342464771	2
5	370	804.41992985254	2
5	371	805.498470132989	1
5	372	813.425917881737	0
5	374	821.989938605393	0
5	375	822.328304582108	0
5	377	822.971999659924	0
5	379	825.692127493628	1
5	380	830.853452270679	1
5	387	837.481048809211	1
5	389	837.528711359265	2
5	393	853.367451096851	3
5	395	864.80791871467	4
5	399	868.699468202168	5
5	403	881.007667812501	5
5	404	881.761325025228	4
5	405	887.533847020148	3
5	406	887.791974492472	2
5	407	889.36202287786	1
5	408	891.665903118523	0
5	410	892.215476562267	0
5	412	896.95419122637	1
5	413	898.878576971887	1
5	418	908.783784786466	1
5	419	915.542488371573	1
5	421	921.983408396422	1
5	423	923.077491675642	2
5	425	926.313872219769	3
5	427	928.366526091904	4
5	429	931.138786419577	5
5	436	943.694594531432	5
5	437	944.176381180095	4
5	438	944.882296440031	3
5	439	946.735527436623	2
5	440	947.524809340098	1
5	441	949.017670620896	0
5	443	951.775819964726	0
5	444	951.826888963618	0
5	446	954.938401825785	0
5	448	960.15791517345	1
5	449	960.235705892085	1
5	451	961.941637758824	1
5	456	973.955373969978	2
5	458	974.438970779056	3
5	460	976.208487875792	4
5	461	976.773183169842	4
5	462	979.134694716749	3
5	469	994.275476802733	3
5	471	998.967850855492	4
5	473	1002.270424939497	4
5	474	1003.587172071828	3
5	475	1006.495730237632	2
5	476	1006.811030634849	1
5	477	1012.611243860264	0
5	482	1021.422423220967	0
5	484	1025.61861987627	1
5	488	1034.732109192486	2
5	490	1038.782605635946	3
5	492	1043.159900290471	4
5	494	1062.454881975685	4
5	495	1063.356391532087	3
5	497	1064.460086608793	3
5	499	1065.265403748812	4
5	500	1083.298686873946	4
5	501	1089.941921238384	3
5	502	1089.975348668443	2
5	504	1093.886914810011	2
5	506	1095.796884728062	3
5	507	1096.656675872319	3
5	509	1100.441881947243	3
5	511	1102.411024622887	4
5	512	1103.654546515999	4
5	516	1110.248847979331	4
5	519	1115.662036455481	5
5	521	1127.991864436109	6
5	522	1128.011465778132	6
5	523	1137.646347875132	5
5	524	1147.096769755535	4
5	528	1150.403494908239	4
5	530	1157.698185414769	5
5	532	1159.481747637629	5
5	534	1160.726672716901	5
5	535	1166.036144964224	5
5	536	1166.507795523321	4
5	537	1167.288651780563	3
5	538	1177.227692359761	2
5	540	1179.987550244786	2
5	541	1190.266720980524	2
5	543	1190.406193379886	2
5	544	1191.3256298605	2
5	546	1192.060187505366	2
5	558	1214.542207979603	3
5	561	1230.587609546064	4
5	565	1239.074375508244	5
5	572	1257.072305290322	6
5	574	1258.154433461831	7
5	576	1258.463916101759	8
5	577	1259.56261865909	8
5	581	1268.084140595639	8
5	583	1269.559912571375	9
5	585	1278.546101089583	9
5	587	1279.343956200392	9
5	589	1281.438934440836	10
5	593	1284.073522095209	10
5	597	1293.39115214529	10
5	599	1294.09831111435	11
5	610	1306.377084729727	12
5	613	1308.790255576544	13
5	616	1312.306243155178	14
5	623	1325.552127347144	15
5	625	1329.476278199886	16
5	627	1331.977731951153	17
5	629	1335.18914020612	18
5	633	1345.473493177319	19
5	636	1353.837422051082	20
5	638	1355.903882210185	21
5	640	1356.72186603143	22
5	644	1361.4761275669	23
5	647	1367.411236736202	24
5	648	1375.428736743191	24
5	649	1379.622341949638	23
5	650	1382.045232915269	22
5	651	1384.75880660458	21
5	655	1395.845926627366	20
5	657	1399.696189430956	20
5	658	1402.56307324597	20
5	662	1415.904860426661	19
5	664	1417.078528100198	19
5	666	1420.290782061921	20
5	667	1423.65917594973	20
5	668	1425.951462910822	19
5	674	1438.259455455825	19
5	676	1444.792201787484	20
5	678	1449.871614903672	21
5	686	1460.060926220485	22
5	690	1464.592283923065	23
5	693	1476.202711998038	24
5	697	1478.069516448218	25
5	702	1485.640289736562	26
5	704	1487.04370975529	27
5	711	1512.283199849435	28
5	715	1514.492181875754	29
5	718	1525.749158143837	30
5	724	1532.577202008577	31
5	726	1538.005236612714	32
5	727	1545.478965475485	32
5	729	1551.435827516609	32
5	730	1553.652884986447	32
5	731	1555.136079433535	31
5	732	1556.082903351823	30
5	733	1557.067694056844	29
5	735	1561.172855466474	29
5	737	1562.687982903677	30
5	738	1566.455221265956	30
5	739	1566.624550740918	29
5	740	1570.034958554531	28
5	741	1571.445125860643	27
5	743	1576.644626109085	27
5	745	1577.971520441329	28
5	747	1578.224976662378	29
5	749	1580.245655261544	30
5	750	1584.226367523209	30
5	752	1584.930820075336	30
5	754	1598.806839497624	31
5	755	1600.382650417524	31
5	756	1605.475613693811	30
5	757	1606.621536801419	29
5	759	1609.425566048026	29
5	760	1612.331648031591	29
5	761	1617.725327170043	28
5	763	1624.066798678646	28
5	767	1627.508938156312	29
5	769	1633.798736103851	29
5	770	1634.073503632696	28
5	771	1637.323784241465	27
5	772	1643.711552877428	26
5	774	1644.804533826314	26
5	775	1646.34433525905	26
5	776	1646.66549301113	25
5	782	1656.941765470321	25
5	788	1667.440571028196	26
5	802	1696.918963719115	27
5	810	1717.857744824974	27
5	811	1718.660695491175	26
5	813	1719.112607261954	26
5	814	1721.784550733366	26
5	816	1730.314919826024	26
5	817	1733.840096911298	26
5	818	1739.550216734908	25
5	819	1739.734831018358	24
5	820	1747.019530464998	23
5	822	1747.308895643383	23
5	824	1748.047353153453	24
5	829	1758.501417219979	25
5	831	1759.620362943869	26
5	833	1761.129210365635	27
5	834	1761.717297556512	27
5	836	1763.813737269511	27
5	837	1766.839530270326	27
5	839	1770.185782847709	27
5	841	1778.687776808715	28
5	845	1781.263490443706	29
5	848	1783.647511303199	30
5	850	1791.920343721064	31
5	851	1797.230193595295	31
5	852	1798.722847412988	30
5	856	1804.25915799904	29
5	857	1804.424277597272	28
5	858	1808.717614070644	27
5	860	1809.927053426328	27
5	861	1811.843445038929	27
5	862	1820.196500754066	26
5	864	1824.121326190655	26
5	869	1828.799173711548	27
5	874	1836.776512552437	28
5	875	1838.469136385562	28
5	876	1842.207798173142	27
5	880	1863.001971466587	27
5	882	1875.682557827035	27
5	884	1877.221133022566	27
5	889	1886.960024108163	28
5	891	1894.963428843149	29
5	893	1898.466332015644	30
5	895	1905.001104474535	31
5	896	1909.354114386975	31
5	897	1912.662159638107	30
5	898	1917.091723630102	29
5	900	1918.282732109325	29
5	901	1927.927610422917	29
5	903	1930.581653249306	29
5	904	1933.030010442925	29
5	906	1935.826789934323	29
5	908	1942.879357732617	30
5	909	1947.839908348504	30
5	910	1948.216516567831	29
5	912	1951.691519557266	29
5	914	1951.845844740435	30
5	916	1955.941756291918	31
5	920	1969.295094134392	31
5	921	1970.715294449294	30
5	922	1975.475696827558	29
5	923	1976.777870450763	28
5	924	1978.106894504658	27
5	926	1981.415149903608	27
5	927	1988.145459926192	27
5	929	1991.932271441198	27
5	930	2008.474591517951	27
5	931	2013.139007622341	26
5	932	2016.499532908335	25
5	933	2016.888101964776	24
5	934	2018.275269713984	23
5	935	2018.278839672848	22
5	936	2020.66899900511	21
5	944	2036.820239663622	21
5	945	2050.863031593739	21
5	949	2055.395634036457	21
5	951	2061.60855622752	21
5	952	2062.441155484318	20
5	953	2066.333025666566	19
5	955	2066.336908056797	19
5	956	2067.161367554732	19
5	958	2068.572735745909	19
5	959	2071.42485808539	19
5	960	2072.021682366773	18
5	962	2073.629401755589	18
5	963	2076.902331495133	18
5	964	2078.415845092155	17
5	965	2079.260821187672	16
5	970	2090.373689927269	16
5	972	2091.510531786147	17
5	974	2094.509784816636	18
5	975	2094.681004148981	18
5	976	2095.819706147528	17
5	981	2103.10888607586	17
5	985	2109.544519618569	18
5	988	2121.370922174609	19
5	990	2121.865282291356	20
5	991	2123.01592801955	20
5	992	2132.966108062967	19
5	993	2136.464056851986	18
5	994	2139.578484155271	17
5	995	2140.631245780667	16
5	997	2140.760935507749	16
5	998	2141.984512025253	16
5	999	2145.419312656744	15
5	1001	2148.408502014201	15
5	1002	2149.586213243899	15
5	1003	2150.452736673513	14
5	1005	2150.88545136286	14
5	1007	2153.152701023359	15
5	1012	2156.826185249186	16
5	1013	2157.935474327239	16
5	1014	2158.134485483662	15
5	1016	2158.885137271309	15
5	1017	2159.343389792703	15
5	1018	2162.015739084787	14
5	1019	2162.431347049658	13
5	1020	2163.44746168175	12
5	1021	2163.685804574159	11
5	1022	2165.224610739945	10
5	1026	2167.645034195839	10
5	1028	2172.419790615611	10
5	1033	2180.820140528645	10
5	1034	2186.153872423	10
5	1036	2190.617248134383	10
5	1037	2192.314667334511	10
5	1038	2192.757355561884	9
5	1039	2193.735433260901	8
5	1040	2194.732934186823	7
5	1044	2208.631005398133	7
5	1047	2213.327587140208	8
5	1048	2215.461566464	8
5	1049	2220.928412756085	7
5	1050	2222.964320888036	6
5	1051	2224.276345170215	5
5	1052	2227.83374775571	4
5	1053	2229.439594909861	3
5	1055	2229.887447686045	3
5	1056	2230.177432587622	3
5	1057	2245.257594563173	2
5	1062	2260.949383513056	2
5	1063	2266.411933518904	2
5	1064	2266.70321435873	1
5	1065	2266.753773482272	0
5	1067	2299.27861517504	0
5	1068	2301.136616671478	0
5	1073	2325.819276184382	0
5	1074	2331.378486201394	0
5	1079	2354.169776292782	0
5	1080	2354.509134394648	0
5	1082	2363.140470416597	0
5	1086	2372.730224657269	0
5	1088	2372.742441384221	0
5	1090	2376.357023247149	1
5	1091	2380.232753142462	1
5	1092	2382.100123116322	0
5	1094	2387.929246926715	0
5	1096	2388.368622764903	1
5	1097	2399.259541760207	1
5	1099	2399.324458944691	1
5	1100	2400.714955996968	1
5	1101	2402.922125051107	0
5	1103	2416.76104363929	0
5	1104	2417.170716508011	0
5	1106	2420.683923370384	0
5	1111	2433.483901769592	1
5	1112	2433.634178955209	1
5	1114	2436.064121627286	1
5	1115	2441.60166604171	1
5	1117	2449.110225251561	1
5	1121	2452.64526422033	1
5	1123	2452.839439866003	1
5	1124	2455.301015183975	1
5	1125	2460.647962479277	0
5	1130	2485.429838161415	0
5	1131	2488.395651093859	0
6	142	355.703566186043	17
6	146	359.657255433514	18
6	152	379.316303527276	19
6	177	428.37336638007	20
6	191	471.099744422452	21
6	208	496.483405877664	22
6	222	510.494649186258	23
6	227	515.241939575575	24
6	238	532.674913750502	25
6	247	541.386932297028	26
6	252	548.593004727279	27
6	253	554.745215551369	28
6	254	556.462045490053	29
6	257	561.363424998395	30
6	258	563.284120579267	31
6	267	579.126805227539	32
6	279	603.303714845084	33
6	290	623.811876594215	34
6	291	624.358809205034	35
6	302	652.52369743127	36
6	308	658.701358011141	37
6	341	737.260557405909	38
6	354	774.247289193267	39
6	385	832.215218214019	40
6	400	876.679713004382	41
6	401	879.645068814511	42
6	402	880.649422012931	43
6	416	906.938110664597	44
6	432	933.805336420488	45
6	435	939.242818201198	46
6	454	973.463974763839	47
6	465	988.294416282776	48
6	472	1000.361929522128	49
6	480	1016.784071286072	50
6	493	1051.397855172608	51
6	517	1114.31673109513	52
6	531	1159.23999660465	53
6	551	1202.472171353812	54
6	552	1210.193598552159	55
6	559	1230.15333329112	56
6	568	1249.427776302673	57
6	569	1252.818451648103	58
6	570	1253.345247341331	59
6	584	1276.873777862033	60
6	592	1283.045904439954	61
6	608	1299.421312504599	62
6	611	1306.53917111398	63
6	614	1309.816170283197	64
6	617	1320.257246256737	65
6	634	1352.297902226264	66
6	641	1358.908765347971	67
6	642	1361.456623679984	68
6	645	1361.676752862523	69
6	654	1393.542859689152	70
6	661	1414.702290381791	71
6	683	1456.781185792327	72
6	684	1457.35992553548	73
6	691	1468.431003447416	74
6	700	1481.961445929331	75
6	705	1488.181318711033	76
6	708	1508.298276545551	77
6	709	1512.142297380226	78
6	716	1520.614862079329	79
6	719	1528.237688607655	80
6	722	1530.482674252872	81
6	768	1632.412555281644	82
6	783	1657.248981537841	83
6	784	1658.958271747962	84
6	791	1674.545497583759	85
6	794	1676.802368471594	86
6	797	1678.805478516572	87
6	800	1689.561999629622	88
6	807	1706.975374085533	89
6	808	1712.644150284357	90
6	809	1716.047065889556	91
6	827	1752.908701737004	92
6	846	1782.582142369935	93
6	855	1803.993204916013	94
6	867	1827.30769927589	95
6	872	1835.269790153754	96
6	881	1872.731985054519	97
6	887	1885.663440595922	98
6	919	1965.317633177366	99
6	941	2033.714354258077	100
6	942	2034.996568990195	101
6	950	2061.38661790672	102
6	968	2081.42674774771	103
6	979	2101.855104244472	104
6	986	2116.60296388292	105
6	1010	2156.795316359501	106
6	1027	2171.920744072419	107
6	1031	2180.550481843781	108
6	1045	2210.995203955663	109
6	1060	2251.632975273075	110
6	1071	2316.749782658747	111
6	1077	2350.307649376867	112
6	1085	2372.323658483539	113
6	1109	2432.341519343713	114
6	1120	2452.371733944965	115
6	1128	2477.544811993261	116
7	142	355.703566186043	3.045958746913
7	146	359.657255433514	0.363555874886
7	152	379.316303527276	17.626632971353
7	177	428.37336638007	4.863145774484
7	191	471.099744422452	6.789414597845
7	208	496.483405877664	6.172048253502
7	222	510.494649186258	7.241683892126
7	227	515.241939575575	7.454554167222
7	238	532.674913750502	23.214006526814
7	247	541.386932297028	25.796094643348
7	252	548.593004727279	29.780697917897
7	253	554.745215551369	25.955557657606
7	254	556.462045490053	19.840425813175
7	257	561.363424998395	21.487053767448
7	258	563.284120579267	23.272142989124
7	267	579.126805227539	2.717515120585
7	279	603.303714845084	1.656731046243
7	290	623.811876594215	3.244483256415
7	291	624.358809205034	2.445599767052
7	302	652.52369743127	6.17165403591
7	308	658.701358011141	1.321717943372
7	341	737.260557405909	4.086236716272
7	354	774.247289193267	8.390200654408
7	385	832.215218214019	0.851386409469
7	400	876.679713004382	44.717083634636
7	401	879.645068814511	28.80446876932
7	402	880.649422012931	14.887636596221
7	416	906.938110664597	5.714626305135
7	432	933.805336420488	1.621014121775
7	435	939.242818201198	1.313232670571
7	454	973.463974763839	2.121324987127
7	465	988.294416282776	5.221870657595
7	472	1000.361929522128	8.934861792012
7	480	1016.784071286072	1.178556252228
7	493	1051.397855172608	25.586713377838
7	517	1114.31673109513	4.517759080363
7	531	1159.23999660465	9.782862680624
7	551	1202.472171353812	5.94547489923
7	552	1210.193598552159	13.624143823411
7	559	1230.15333329112	19.868188795679
7	568	1249.427776302673	35.441020494723
7	569	1252.818451648103	21.188386169116
7	570	1253.345247341331	12.03706759472
7	584	1276.873777862033	13.683981218062
7	592	1283.045904439954	1.532732220425
7	608	1299.421312504599	7.324699555993
7	611	1306.53917111398	11.64653313322
7	614	1309.816170283197	14.09313652993
7	617	1320.257246256737	23.828499900515
7	634	1352.297902226264	54.356898047579
7	641	1358.908765347971	36.760740007081
7	642	1361.456623679984	38.336125629578
7	645	1361.676752862523	23.383792611142
7	654	1393.542859689152	8.624178198097
7	661	1414.702290381791	2.182326325266
7	683	1456.781185792327	27.136385492479
7	684	1457.35992553548	24.416101737279
7	691	1468.431003447416	13.605309579174
7	700	1481.961445929331	25.724244021617
7	705	1488.181318711033	24.680045412214
7	708	1508.298276545551	31.403075843215
7	709	1512.142297380226	33.489808700516
7	716	1520.614862079329	26.672017582873
7	719	1528.237688607655	15.16930410983
7	722	1530.482674252872	0.166342768265
7	768	1632.412555281644	6.136740962573
7	783	1657.248981537841	9.158451955153
7	784	1658.958271747962	10.551437883463
7	791	1674.545497583759	14.454921457519
7	794	1676.802368471594	3.063622479496
7	797	1678.805478516572	2.103529462579
7	800	1689.561999629622	11.751439311141
7	807	1706.975374085533	24.611421807639
7	808	1712.644150284357	10.943361634121
7	809	1716.047065889556	9.378881887648
7	827	1752.908701737004	4.326675617549
7	846	1782.582142369935	3.486807756526
7	855	1803.993204916013	2.729545867336
7	867	1827.30769927589	1.433562387012
7	872	1835.269790153754	4.974829871675
7	881	1872.731985054519	27.590582878833
7	887	1885.663440595922	0.088562638638
7	919	1965.317633177366	2.443024381016
7	941	2033.714354258077	9.105728591007
7	942	2034.996568990195	4.176784055336
7	950	2061.38661790672	6.100958961626
7	968	2081.42674774771	0.075150128161
7	979	2101.855104244472	5.072930983873
7	986	2116.60296388292	10.515061893221
7	1010	2156.795316359501	2.651022352629
7	1027	2171.920744072419	4.556082234186
7	1031	2180.550481843781	3.558130747605
7	1045	2210.995203955663	4.103797715144
7	1060	2251.632975273075	4.120895917061
7	1071	2316.749782658747	9.825569697401
7	1077	2350.307649376867	2.121283292319
7	1085	2372.323658483539	2.166912094159
7	1109	2432.341519343713	7.230251614978
7	1120	2452.371733944965	0.745535587396
7	1128	2477.544811993261	8.068203439415
8	142	355.703566186043	33.433382130707
8	143	358.033257894335	32.396184459299
8	146	359.657255433514	32.209545148085
8	147	360.697748640155	26.891002630041
8	152	379.316303527276	35.451256673945
8	153	384.646368171663	38.351912198497
8	154	385.317568911774	32.659961472644
8	157	394.104826960596	39.045359595546
8	158	395.927464525431	36.633764966803
8	161	398.22301150296	36.533340947037
8	162	405.935793162197	35.154943138545
8	167	409.460491511203	23.442251079643
8	172	422.001794475855	24.317418280827
8	177	428.37336638007	21.095175794691
8	178	443.458793561087	35.543353505417
8	179	444.616670733634	26.818887015174
8	180	445.282078436409	25.624292454404
8	185	454.804072262158	31.293851656572
8	186	454.819252044016	30.543188759375
8	191	471.099744422452	25.400397752418
8	192	471.855031976321	24.31192818211
8	193	472.121423287643	11.604718302497
8	194	473.857355867436	9.547026042829
8	199	485.543418733478	11.349198197328
8	200	485.751239773761	4.655556604559
8	203	488.599356190407	2.471524878188
8	208	496.483405877664	6.172048253502
8	209	499.334578018579	8.849437661272
8	258	563.284120579267	61.995169034212
8	259	563.451151358994	60.198186064862
8	260	564.505929867517	59.502973568421
8	263	571.724420898945	62.884757455926
8	264	574.194802116026	60.456531069502
8	267	579.126805227539	64.668512731692
8	268	580.415893222264	55.186393944311
8	271	597.295341949357	71.564456731958
8	272	599.172767014931	61.780893543415
8	279	603.303714845084	60.084214037185
8	291	624.358809205034	75.823144538083
8	292	624.838966298986	64.215259843354
8	297	642.482518597692	73.543057882876
8	302	652.52369743127	76.114407324316
8	303	656.720988476132	72.252239313921
8	308	658.701358011141	58.910078143217
8	311	661.435168361435	59.788184562594
8	312	661.613540260847	59.112896187357
8	315	668.002720317726	62.283744621942
8	316	674.655731300914	58.407254667948
8	317	674.997893399097	55.813416252117
8	318	676.861278728463	56.293885390663
8	321	682.198188482368	42.573539603575
8	322	689.209066820788	47.402764922721
8	323	689.550509080358	45.380802818713
8	324	695.627078044808	49.275034649448
8	325	696.281568719827	38.901928652058
8	330	705.907892352332	47.677126295868
8	331	712.694514206607	53.072377919915
8	334	718.234041834074	52.429428353258
8	337	724.08738273741	41.908981897102
8	338	724.864223366644	23.987481425734
8	341	737.260557405909	35.9748801629
8	342	738.696737895185	20.729333311716
8	345	740.425916384615	17.979189510533
8	346	744.674726861152	11.500406171515
8	347	748.294714860014	8.684367512242
8	354	774.247289193267	23.361426088175
8	355	778.131724520956	12.274635982097
8	356	783.662053526016	14.415033472552
8	359	790.017486354816	3.210601736853
8	362	796.034432044079	0
8	365	801.770196139294	0
8	370	804.41992985254	1.776568115291
8	371	805.498470132989	2.032127668218
8	374	821.989938605393	0
8	377	822.971999659924	0
8	380	830.853452270679	5.161324777051
8	402	880.649422012931	49.285590208381
8	403	881.007667812501	43.52661900329
8	404	881.761325025228	44.232613665963
8	405	887.533847020148	34.166395923297
8	406	887.791974492472	22.984055777802
8	407	889.36202287786	20.662554675692
8	410	892.215476562267	0
8	413	898.878576971887	1.924385745517
8	416	906.938110664597	5.714626305135
8	419	915.542488371573	6.758703585107
8	432	933.805336420488	11.821928024066
8	435	939.242818201198	16.165326525556
8	436	943.694594531432	17.380722311663
8	437	944.176381180095	15.809855088191
8	438	944.882296440031	13.743510020454
8	439	946.735527436623	14.55120513791
8	440	947.524809340098	9.595223809471
8	443	951.775819964726	0
8	446	954.938401825785	0
8	449	960.235705892085	0.077790718635
8	454	973.463974763839	11.522337005015
8	461	976.773183169842	5.43053339313
8	462	979.134694716749	5.179320746771
8	465	988.294416282776	13.85544550372
8	472	1000.361929522128	24.153441646336
8	473	1002.270424939497	19.197879314316
8	474	1003.587172071828	12.160104341712
8	475	1006.495730237632	12.220253434899
8	476	1006.811030634849	7.843179779357
8	482	1021.422423220967	0
8	493	1051.397855172608	25.779235296338
8	494	1062.454881975685	36.643740180915
8	495	1063.356391532087	28.624282339601
8	500	1083.298686873946	44.516081238
8	501	1089.941921238384	46.782020947913
8	502	1089.975348668443	25.51526205965
8	507	1096.656675872319	31.391272123507
8	512	1103.654546515999	9.767631705988
8	517	1114.31673109513	18.519846367068
8	522	1128.011465778132	27.569583830889
8	523	1137.646347875132	35.235323252245
8	524	1147.096769755535	37.297797740768
8	531	1159.23999660465	48.991148625319
8	532	1159.481747637629	43.819711182148
8	535	1166.036144964224	38.044280528115
8	536	1166.507795523321	17.050661599295
8	537	1167.288651780563	16.885156872324
8	538	1177.227692359761	19.529506944992
8	541	1190.266720980524	29.540048263623
8	544	1191.3256298605	11.338079615714
8	552	1210.193598552159	19.787405172273
8	570	1253.345247341331	61.285059835965
8	577	1259.56261865909	63.035922204508
8	584	1276.873777862033	66.588633366592
8	585	1278.546101089583	64.00389310998
8	592	1283.045904439954	52.45829489389
8	593	1284.073522095209	44.999146586965
8	645	1361.676752862523	104.6044475722
8	648	1375.428736743191	117.27430328136
8	649	1379.622341949638	121.15842584788
8	650	1382.045232915269	118.8554362713
8	651	1384.75880660458	116.67466600894
8	654	1393.542859689152	123.98294711778
8	655	1395.845926627366	116.50197042697
8	658	1402.56307324597	121.12413880513
8	661	1414.702290381791	133.18911816226
8	662	1415.904860426661	123.80824747805
8	667	1423.65917594973	130.26802380444
8	668	1425.951462910822	131.85315179647
8	719	1528.237688607655	221.86060387793
8	722	1530.482674252872	221.69241867633
8	727	1545.478965475485	233.17272232031
8	730	1553.652884986447	228.1007576393
8	731	1555.136079433535	225.65980123365
8	732	1556.082903351823	224.10517140067
8	733	1557.067694056844	221.87855385072
8	738	1566.455221265956	220.98172808864
8	739	1566.624550740918	212.78712868984
8	740	1570.034958554531	214.13107634435
8	741	1571.445125860643	214.72325982921
8	750	1584.226367523209	222.75023995631
8	755	1600.382650417524	232.97141368132
8	756	1605.475613693811	220.55693220276
8	757	1606.621536801419	206.92534737046
8	760	1612.331648031591	199.81168397507
8	761	1617.725327170043	200.64679906985
8	768	1632.412555281644	212.12177321972
8	769	1633.798736103851	204.153935804
8	770	1634.073503632696	195.81404817687
8	771	1637.323784241465	192.53158245398
8	772	1643.711552877428	193.83993797376
8	775	1646.34433525905	186.28340903856
8	776	1646.66549301113	182.07320908806
8	784	1658.958271747962	182.75555974992
8	809	1716.047065889556	237.97754944134
8	810	1717.857744824974	232.21745508841
8	811	1718.660695491175	231.61698573589
8	814	1721.784550733366	209.50135088393
8	817	1733.840096911298	219.34791503554
8	818	1739.550216734908	213.80105859107
8	819	1739.734831018358	209.41849953375
8	820	1747.019530464998	214.44232845642
8	827	1752.908701737004	214.90346512429
8	834	1761.717297556512	210.2814700399
8	837	1766.839530270326	205.66667480385
8	846	1782.582142369935	219.89415946626
8	851	1797.230193595295	220.58556748621
8	852	1798.722847412988	220.75132697166
8	855	1803.993204916013	225.76822825363
8	856	1804.25915799904	224.0135027375
8	857	1804.424277597272	219.49345752194
8	858	1808.717614070644	209.91077457302
8	861	1811.843445038929	202.4178789909
8	862	1820.196500754066	196.12970207542
8	867	1827.30769927589	201.03188495682
8	872	1835.269790153754	207.76085199744
8	875	1838.469136385562	193.66460255925
8	876	1842.207798173142	194.11726859045
8	881	1872.731985054519	215.7902195842
8	882	1875.682557827035	215.5919817008
8	887	1885.663440595922	218.22286956773
8	896	1909.354114386975	212.43515066786
8	897	1912.662159638107	193.54955237615
8	898	1917.091723630102	186.77680380408
8	901	1927.927610422917	180.61871477953
8	904	1933.030010442925	184.98265728947
8	909	1947.839908348504	199.25788222905
8	910	1948.216516567831	189.71509934785
8	919	1965.317633177366	205.6972702335
8	920	1969.295094134392	208.16588376876
8	921	1970.715294449294	206.90155717978
8	922	1975.475696827558	205.28991397985
8	923	1976.777870450763	198.09009364205
8	924	1978.106894504658	199.01155989125
8	927	1988.145459926192	206.88196948249
8	930	2008.474591517951	224.82708021475
8	931	2013.139007622341	221.21866390128
8	932	2016.499532908335	215.23587385966
8	933	2016.888101964776	206.96104853845
8	934	2018.275269713984	194.15394352333
8	935	2018.278839672848	192.40470278397
8	936	2020.66899900511	191.86982529356
8	942	2034.996568990195	204.70160870812
8	945	2050.863031593739	214.0865190413
8	950	2061.38661790672	216.24521573103
8	951	2061.60855622752	198.60658476093
8	952	2062.441155484318	185.22002246175
8	953	2066.333025666566	180.75814770928
8	956	2067.161367554732	180.20134344657
8	959	2071.42485808539	176.46142924224
8	960	2072.021682366773	173.55535035113
8	963	2076.902331495133	171.9012270206
8	964	2078.415845092155	160.13311298283
8	965	2079.260821187672	148.67916793837
8	968	2081.42674774771	145.59995781339
8	975	2094.681004148981	151.80164641636
8	976	2095.819706147528	144.12818659026
8	979	2101.855104244472	150.00925950404
8	986	2116.60296388292	160.661207591
8	991	2123.01592801955	160.1413192232
8	992	2132.966108062967	151.55095815936
8	993	2136.464056851986	144.53178541079
8	994	2139.578484155271	114.9698584882
8	995	2140.631245780667	103.81100611704
8	998	2141.984512025253	86.698853080159
8	999	2145.419312656744	90.023678620287
8	1002	2149.586213243899	83.249305187102
8	1003	2150.452736673513	81.880000927604
8	1010	2156.795316359501	83.165914603912
8	1013	2157.935474327239	76.58387670769
8	1014	2158.134485483662	67.760795556393
8	1017	2159.343389792703	67.832858006556
8	1018	2162.015739084787	67.505954268151
8	1019	2162.431347049658	65.649173789059
8	1020	2163.44746168175	60.33857560589
8	1021	2163.685804574159	57.59790258446
8	1022	2165.224610739945	55.680091121376
8	1027	2171.920744072419	50.54982189781
8	1028	2172.419790615611	50.554508324255
8	1031	2180.550481843781	39.789546336032
8	1034	2186.153872423	37.745370408799
8	1037	2192.314667334511	41.429215971651
8	1038	2192.757355561884	39.604654538525
8	1039	2193.735433260901	39.591139254029
8	1040	2194.732934186823	37.906748937637
8	1045	2210.995203955663	52.110066684354
8	1048	2215.461566464	48.096904625767
8	1049	2220.928412756085	53.283378560246
8	1050	2222.964320888036	45.97196979186
8	1051	2224.276345170215	43.45620464157
8	1052	2227.83374775571	37.216499621327
8	1053	2229.439594909861	22.548188669342
8	1056	2230.177432587622	21.546427189489
8	1057	2245.257594563173	31.930007422965
8	1060	2251.632975273075	21.74552758703
8	1063	2266.411933518904	18.89985416289
8	1064	2266.70321435873	5.753830845674
8	1067	2299.27861517504	0
8	1073	2325.819276184382	0
8	1079	2354.169776292782	0
8	1082	2363.140470416597	0
8	1085	2372.323658483539	2.166912094159
8	1088	2372.742441384221	0
8	1091	2380.232753142462	3.875729895313
8	1094	2387.929246926715	0
8	1097	2399.259541760207	10.890918995304
8	1100	2400.714955996968	1.390497052277
8	1103	2416.76104363929	0
8	1106	2420.683923370384	0
8	1109	2432.341519343713	7.230251614978
8	1112	2433.634178955209	0.150277185617
8	1115	2441.60166604171	5.537544414424
8	1120	2452.371733944965	3.261508693404
8	1121	2452.64526422033	1.019065862761
8	1124	2455.301015183975	2.461575317972
8	1130	2485.429838161415	0
9	143	358.033257894335	26
9	147	360.697748640155	27
9	153	384.646368171663	28
9	154	385.317568911774	29
9	157	394.104826960596	30
9	158	395.927464525431	31
9	161	398.22301150296	32
9	162	405.935793162197	33
9	167	409.460491511203	34
9	172	422.001794475855	35
9	178	443.458793561087	36
9	179	444.616670733634	37
9	180	445.282078436409	38
9	185	454.804072262158	39
9	186	454.819252044016	40
9	192	471.855031976321	41
9	193	472.121423287643	42
9	194	473.857355867436	43
9	199	485.543418733478	44
9	200	485.751239773761	45
9	203	488.599356190407	46
9	209	499.334578018579	47
9	259	563.451151358994	48
9	260	564.505929867517	49
9	263	571.724420898945	50
9	264	574.194802116026	51
9	268	580.415893222264	52
9	271	597.295341949357	53
9	272	599.172767014931	54
9	292	624.838966298986	55
9	297	642.482518597692	56
9	303	656.720988476132	57
9	311	661.435168361435	58
9	312	661.613540260847	59
9	315	668.002720317726	60
9	316	674.655731300914	61
9	317	674.997893399097	62
9	318	676.861278728463	63
9	321	682.198188482368	64
9	322	689.209066820788	65
9	323	689.550509080358	66
9	324	695.627078044808	67
9	325	696.281568719827	68
9	330	705.907892352332	69
9	331	712.694514206607	70
9	334	718.234041834074	71
9	337	724.08738273741	72
9	338	724.864223366644	73
9	342	738.696737895185	74
9	345	740.425916384615	75
9	346	744.674726861152	76
9	347	748.294714860014	77
9	355	778.131724520956	78
9	356	783.662053526016	79
9	359	790.017486354816	80
9	360	790.52699294218	81
9	363	800.635182167008	82
9	370	804.41992985254	83
9	371	805.498470132989	84
9	372	813.425917881737	85
9	375	822.328304582108	86
9	380	830.853452270679	87
9	403	881.007667812501	88
9	404	881.761325025228	89
9	405	887.533847020148	90
9	406	887.791974492472	91
9	407	889.36202287786	92
9	408	891.665903118523	93
9	413	898.878576971887	94
9	419	915.542488371573	95
9	436	943.694594531432	96
9	437	944.176381180095	97
9	438	944.882296440031	98
9	439	946.735527436623	99
9	440	947.524809340098	100
9	441	949.017670620896	101
9	444	951.826888963618	102
9	449	960.235705892085	103
9	461	976.773183169842	104
9	462	979.134694716749	105
9	473	1002.270424939497	106
9	474	1003.587172071828	107
9	475	1006.495730237632	108
9	476	1006.811030634849	109
9	477	1012.611243860264	110
9	494	1062.454881975685	111
9	495	1063.356391532087	112
9	500	1083.298686873946	113
9	501	1089.941921238384	114
9	502	1089.975348668443	115
9	507	1096.656675872319	116
9	512	1103.654546515999	117
9	522	1128.011465778132	118
9	523	1137.646347875132	119
9	524	1147.096769755535	120
9	532	1159.481747637629	121
9	535	1166.036144964224	122
9	536	1166.507795523321	123
9	537	1167.288651780563	124
9	538	1177.227692359761	125
9	541	1190.266720980524	126
9	544	1191.3256298605	127
9	577	1259.56261865909	128
9	585	1278.546101089583	129
9	593	1284.073522095209	130
9	648	1375.428736743191	131
9	649	1379.622341949638	132
9	650	1382.045232915269	133
9	651	1384.75880660458	134
9	655	1395.845926627366	135
9	658	1402.56307324597	136
9	662	1415.904860426661	137
9	667	1423.65917594973	138
9	668	1425.951462910822	139
9	727	1545.478965475485	140
9	730	1553.652884986447	141
9	731	1555.136079433535	142
9	732	1556.082903351823	143
9	733	1557.067694056844	144
9	738	1566.455221265956	145
9	739	1566.624550740918	146
9	740	1570.034958554531	147
9	741	1571.445125860643	148
9	750	1584.226367523209	149
9	755	1600.382650417524	150
9	756	1605.475613693811	151
9	757	1606.621536801419	152
9	760	1612.331648031591	153
9	761	1617.725327170043	154
9	769	1633.798736103851	155
9	770	1634.073503632696	156
9	771	1637.323784241465	157
9	772	1643.711552877428	158
9	775	1646.34433525905	159
9	776	1646.66549301113	160
9	810	1717.857744824974	161
9	811	1718.660695491175	162
9	814	1721.784550733366	163
9	817	1733.840096911298	164
9	818	1739.550216734908	165
9	819	1739.734831018358	166
9	820	1747.019530464998	167
9	834	1761.717297556512	168
9	837	1766.839530270326	169
9	851	1797.230193595295	170
9	852	1798.722847412988	171
9	856	1804.25915799904	172
9	857	1804.424277597272	173
9	858	1808.717614070644	174
9	861	1811.843445038929	175
9	862	1820.196500754066	176
9	875	1838.469136385562	177
9	876	1842.207798173142	178
9	882	1875.682557827035	179
9	896	1909.354114386975	180
9	897	1912.662159638107	181
9	898	1917.091723630102	182
9	901	1927.927610422917	183
9	904	1933.030010442925	184
9	909	1947.839908348504	185
9	910	1948.216516567831	186
9	920	1969.295094134392	187
9	921	1970.715294449294	188
9	922	1975.475696827558	189
9	923	1976.777870450763	190
9	924	1978.106894504658	191
9	927	1988.145459926192	192
9	930	2008.474591517951	193
9	931	2013.139007622341	194
9	932	2016.499532908335	195
9	933	2016.888101964776	196
9	934	2018.275269713984	197
9	935	2018.278839672848	198
9	936	2020.66899900511	199
9	945	2050.863031593739	200
9	951	2061.60855622752	201
9	952	2062.441155484318	202
9	953	2066.333025666566	203
9	956	2067.161367554732	204
9	959	2071.42485808539	205
9	960	2072.021682366773	206
9	963	2076.902331495133	207
9	964	2078.415845092155	208
9	965	2079.260821187672	209
9	975	2094.681004148981	210
9	976	2095.819706147528	211
9	991	2123.01592801955	212
9	992	2132.966108062967	213
9	993	2136.464056851986	214
9	994	2139.578484155271	215
9	995	2140.631245780667	216
9	998	2141.984512025253	217
9	999	2145.419312656744	218
9	1002	2149.586213243899	219
9	1003	2150.452736673513	220
9	1013	2157.935474327239	221
9	1014	2158.134485483662	222
9	1017	2159.343389792703	223
9	1018	2162.015739084787	224
9	1019	2162.431347049658	225
9	1020	2163.44746168175	226
9	1021	2163.685804574159	227
9	1022	2165.224610739945	228
9	1028	2172.419790615611	229
9	1034	2186.153872423	230
9	1037	2192.314667334511	231
9	1038	2192.757355561884	232
9	1039	2193.735433260901	233
9	1040	2194.732934186823	234
9	1048	2215.461566464	235
9	1049	2220.928412756085	236
9	1050	2222.964320888036	237
9	1051	2224.276345170215	238
9	1052	2227.83374775571	239
9	1053	2229.439594909861	240
9	1056	2230.177432587622	241
9	1057	2245.257594563173	242
9	1063	2266.411933518904	243
9	1064	2266.70321435873	244
9	1065	2266.753773482272	245
9	1068	2301.136616671478	246
9	1074	2331.378486201394	247
9	1080	2354.509134394648	248
9	1086	2372.730224657269	249
9	1091	2380.232753142462	250
9	1092	2382.100123116322	251
9	1097	2399.259541760207	252
9	1100	2400.714955996968	253
9	1101	2402.922125051107	254
9	1104	2417.170716508011	255
9	1112	2433.634178955209	256
9	1115	2441.60166604171	257
9	1121	2452.64526422033	258
9	1124	2455.301015183975	259
9	1125	2460.647962479277	260
9	1131	2488.395651093859	261
10	143	358.033257894335	35.763073838999
10	147	360.697748640155	33.250038354726
10	153	384.646368171663	40.781321318332
10	154	385.317568911774	39.023112938608
10	157	394.104826960596	41.447219521466
10	158	395.927464525431	40.867997160381
10	161	398.22301150296	38.929311944332
10	162	405.935793162197	44.246122606274
10	167	409.460491511203	38.679641487551
10	172	422.001794475855	35.983554044295
10	178	443.458793561087	36.180602975708
10	179	444.616670733634	36.701230677964
10	180	445.282078436409	27.484294717949
10	185	454.804072262158	35.146286280153
10	186	454.819252044016	31.30903143843
10	192	471.855031976321	26.155685306287
10	193	472.121423287643	24.578319493432
10	194	473.857355867436	13.34065088229
10	199	485.543418733478	21.233088908871
10	200	485.751239773761	11.557019237611
10	203	488.599356190407	7.503673021205
10	209	499.334578018579	9.023220394417
10	259	563.451151358994	62.162199813939
10	260	564.505929867517	61.252964573385
10	263	571.724420898945	66.721464599849
10	264	574.194802116026	65.355138673007
10	268	580.415893222264	65.957600726417
10	271	597.295341949357	72.065842671404
10	272	599.172767014931	73.441881797532
10	292	624.838966298986	76.303301632035
10	297	642.482518597692	81.85881214206
10	303	656.720988476132	80.311698369178
10	311	661.435168361435	61.643888493511
10	312	661.613540260847	59.966556462006
10	315	668.002720317726	65.502076244236
10	316	674.655731300914	68.93675560513
10	317	674.997893399097	58.749416766131
10	318	676.861278728463	57.676801581483
10	321	682.198188482368	61.630795144568
10	322	689.209066820788	49.584417941995
10	323	689.550509080358	47.744207182291
10	324	695.627078044808	51.457371783163
10	325	696.281568719827	49.929525324467
10	330	705.907892352332	48.528252284563
10	331	712.694514206607	54.463748150143
10	334	718.234041834074	58.611905547382
10	337	724.08738273741	58.282769256594
10	338	724.864223366644	42.685822526336
10	342	738.696737895185	37.411060652176
10	345	740.425916384615	22.458511801146
10	346	744.674726861152	22.22799998707
10	347	748.294714860014	15.120394170377
10	355	778.131724520956	27.245861415864
10	356	783.662053526016	17.804964987157
10	359	790.017486354816	20.770466301352
10	360	790.52699294218	3.720108324217
10	363	800.635182167008	4.600750122929
10	370	804.41992985254	2.649733713246
10	371	805.498470132989	2.85510839574
10	372	813.425917881737	9.959575416966
10	375	822.328304582108	0.338365976715
10	380	830.853452270679	7.881452610755
10	403	881.007667812501	49.643836007951
10	404	881.761325025228	44.280276216017
10	405	887.533847020148	50.005135660883
10	406	887.791974492472	34.424523395621
10	407	889.36202287786	24.55410416319
10	408	891.665903118523	22.966434916355
10	413	898.878576971887	6.66310040962
10	419	915.542488371573	14.319004012111
10	436	943.694594531432	20.61710285579
10	437	944.176381180095	17.862508960326
10	438	944.882296440031	16.515770348127
10	439	946.735527436623	15.596741017046
10	440	947.524809340098	15.340487041385
10	441	949.017670620896	11.088085090269
10	444	951.826888963618	0.051068998892
10	449	960.235705892085	5.2973040663
10	461	976.773183169842	14.831545411018
10	462	979.134694716749	7.792044940037
10	473	1002.270424939497	26.061937063705
10	474	1003.587172071828	20.514626446647
10	475	1006.495730237632	15.068662507516
10	476	1006.811030634849	12.535553832116
10	477	1012.611243860264	13.643393004772
10	494	1062.454881975685	36.836262099415
10	495	1063.356391532087	37.545249737317
10	500	1083.298686873946	48.56657768146
10	501	1089.941921238384	51.159315602438
10	502	1089.975348668443	46.815448377972
10	507	1096.656675872319	32.196589263526
10	512	1103.654546515999	38.389142767187
10	522	1128.011465778132	32.21458105007
10	523	1137.646347875132	37.204465927889
10	524	1147.096769755535	44.685745132648
10	532	1159.481747637629	49.232899658298
10	535	1166.036144964224	50.374108508743
10	536	1166.507795523321	38.515931087212
10	537	1167.288651780563	17.831517856537
10	538	1177.227692359761	26.824197451522
10	541	1190.266720980524	32.568535565755
10	544	1191.3256298605	30.598957143599
10	577	1259.56261865909	67.502431153724
10	585	1278.546101089583	68.260956594142
10	593	1284.073522095209	53.485912549145
10	648	1375.428736743191	118.35643145287
10	649	1379.622341949638	121.46790848781
10	650	1382.045232915269	123.58131681351
10	651	1384.75880660458	121.56900996061
10	655	1395.845926627366	126.28601405599
10	658	1402.56307324597	123.21911704558
10	662	1415.904860426661	134.39168820713
10	667	1423.65917594973	131.56256300112
10	668	1425.951462910822	132.56031076553
10	727	1545.478965475485	236.68870989894
10	730	1553.652884986447	241.34664183127
10	731	1555.136079433535	229.58395208639
10	732	1556.082903351823	226.60662515194
10	733	1557.067694056844	225.08996210569
10	738	1566.455221265956	231.26608105984
10	739	1566.624550740918	221.1510575636
10	740	1570.034958554531	216.19753650345
10	741	1571.445125860643	215.54124365046
10	750	1584.226367523209	227.50450149178
10	755	1600.382650417524	238.90652285062
10	756	1605.475613693811	238.06437695761
10	757	1606.621536801419	221.70285531036
10	760	1612.331648031591	212.63545860063
10	761	1617.725327170043	205.20536311352
10	769	1633.798736103851	213.50795404193
10	770	1634.073503632696	204.42870333285
10	771	1637.323784241465	199.06432878564
10	772	1643.711552877428	198.91935108994
10	775	1646.34433525905	196.47272035538
10	776	1646.66549301113	186.60456679065
10	810	1717.857744824974	239.78822837676
10	811	1718.660695491175	233.02040575461
10	814	1721.784550733366	234.74084097808
10	817	1733.840096911298	221.55689706186
10	818	1739.550216734908	225.05803485915
10	819	1739.734831018358	213.98567287452
10	820	1747.019530464998	216.70319898039
10	834	1761.717297556512	223.7120609438
10	837	1766.839530270326	215.40370275372
10	851	1797.230193595295	234.54221069162
10	852	1798.722847412988	222.0782213039
10	856	1804.25915799904	226.03418133666
10	857	1804.424277597272	224.17862233573
10	858	1808.717614070644	223.78679399531
10	861	1811.843445038929	213.0366055413
10	862	1820.196500754066	210.77093470604
10	875	1838.469136385562	210.96019822925
10	876	1842.207798173142	197.40326434683
10	882	1875.682557827035	218.74079235671
10	896	1909.354114386975	241.91354335878
10	897	1912.662159638107	215.74319591899
10	898	1917.091723630102	197.97911636815
10	901	1927.927610422917	197.61269059689
10	904	1933.030010442925	185.72111479954
10	909	1947.839908348504	199.79255519505
10	910	1948.216516567831	199.63449044838
10	920	1969.295094134392	209.67473119052
10	921	1970.715294449294	209.58608408366
10	922	1975.475696827558	211.66195955805
10	923	1976.777870450763	206.59208760305
10	924	1978.106894504658	199.41911769594
10	927	1988.145459926192	209.05012531278
10	930	2008.474591517951	227.21110107424
10	931	2013.139007622341	229.49149631914
10	932	2016.499532908335	224.57918918727
10	933	2016.888101964776	215.6244429161
10	934	2018.275269713984	208.34821628766
10	935	2018.278839672848	194.15751348219
10	936	2020.66899900511	194.79486211623
10	945	2050.863031593739	220.56807131166
10	951	2061.60855622752	216.46715405183
10	952	2062.441155484318	199.43918401773
10	953	2066.333025666566	189.111892644
10	956	2067.161367554732	181.58648959745
10	959	2071.42485808539	184.46483397723
10	960	2072.021682366773	177.05825352362
10	963	2076.902331495133	178.43599947949
10	964	2078.415845092155	173.41474061762
10	965	2079.260821187672	160.97808907835
10	975	2094.681004148981	158.85421421466
10	976	2095.819706147528	152.94034841491
10	991	2123.01592801955	167.07417172763
10	992	2132.966108062967	170.09149926662
10	993	2136.464056851986	155.04890694838
10	994	2139.578484155271	147.64621271407
10	995	2140.631245780667	116.0226201136
10	998	2141.984512025253	105.16427236163
10	999	2145.419312656744	90.13365371165
10	1002	2149.586213243899	94.190579207442
10	1003	2150.452736673513	84.115828616716
10	1013	2157.935474327239	84.30607257165
10	1014	2158.134485483662	76.782887864113
10	1017	2159.343389792703	68.969699865434
10	1018	2162.015739084787	70.50520729864
10	1019	2162.431347049658	67.921562233022
10	1020	2163.44746168175	66.665288421151
10	1021	2163.685804574159	60.576918498299
10	1022	2165.224610739945	59.136708750246
10	1028	2172.419790615611	51.048868441002
10	1034	2186.153872423	45.392936915251
10	1037	2192.314667334511	43.90616532031
10	1038	2192.757355561884	41.871904199024
10	1039	2193.735433260901	40.582732237542
10	1040	2194.732934186823	40.588640179951
10	1048	2215.461566464	56.576429192691
10	1049	2220.928412756085	53.563750917852
10	1050	2222.964320888036	55.319286692197
10	1051	2224.276345170215	47.283994074039
10	1052	2227.83374775571	47.013607227065
10	1053	2229.439594909861	38.822346775478
10	1056	2230.177432587622	23.286026347103
10	1057	2245.257594563173	36.62658916504
10	1063	2266.411933518904	36.524485832859
10	1064	2266.70321435873	19.191135002716
10	1065	2266.753773482272	5.804389969216
10	1068	2301.136616671478	1.858001496438
10	1074	2331.378486201394	5.559210017012
10	1080	2354.509134394648	0.339358101866
10	1086	2372.730224657269	2.573478267889
10	1091	2380.232753142462	7.490311758241
10	1092	2382.100123116322	5.743099869173
10	1097	2399.259541760207	11.330294833492
10	1100	2400.714955996968	12.346333232065
10	1101	2402.922125051107	3.597666106416
10	1104	2417.170716508011	0.409672868721
10	1112	2433.634178955209	8.522911226474
10	1115	2441.60166604171	8.117764272118
10	1121	2452.64526422033	3.535038968769
10	1124	2455.301015183975	3.674816826406
10	1125	2460.647962479277	7.808522613274
10	1131	2488.395651093859	2.965812932444
11	1138	2500	0.1044
12	1138	2500	0.0464

