version 2
run experiments_medium_game_mode1-1386-20230311-09:44:54-15624
attr configname experiments_medium_game_mode1
attr datetime 20230311-09:44:54
attr experiment experiments_medium_game_mode1
attr inifile omnetpp.ini
attr iterationvars "$0=7, $1=6, $2=0"
attr iterationvarsf 7,6,0-
attr measurement "$0=7, $1=6, $2=0"
attr network Network
attr processid 15624
attr repetition 6
attr replication #6
attr resultdir results
attr runnumber 1386
attr seedset 6
param *.boss.arrival_mean 20
param *.boss.service_mean 7
param *.minion.arrival_mean 10
param *.minion.service_mean 6
param *.player.recover_rate_x 0
param **.minion.arrival_distribution 0
param **.minion.service_distribution 0
param **.boss.arrival_distribution 0
param **.boss.service_distribution 0

vector 0 Network.player minion_defeated_stat:vector ETV
attr source signal_minion_defeated
vector 1 Network.player minion_jobs_queue_number_stat:vector ETV
attr source signal_minion_jobs_queue_number
vector 2 Network.player minion_response_time_stat:vector ETV
attr source signal_minion_response_time
vector 3 Network.player minion_waiting_time_stat:vector ETV
attr source signal_minion_waiting_time
vector 4 Network.player boss_jobs_number_stat:vector ETV
attr source signal_boss_jobs_number
vector 5 Network.player boss_jobs_queue_number_stat:vector ETV
attr source signal_boss_jobs_queue_number
vector 6 Network.player minion_recovered_stat:vector ETV
attr source signal_minion_recovered
vector 7 Network.player boss_waiting_time_stat:vector ETV
attr source signal_boss_waiting_time
vector 8 Network.player minion_jobs_number_stat:vector ETV
attr source signal_minion_jobs_number
vector 9 Network.player boss_defeated_stat:vector ETV
attr source signal_boss_defeated
vector 10 Network.player boss_response_time_stat:vector ETV
attr source signal_boss_response_time
vector 11 Network.player minion_throughput:vector ETV
attr source signal_minion_throughput
vector 12 Network.player boss_throughput:vector ETV
attr source signal_boss_throughput
0	128	350.193340640974	17
0	136	362.504887663569	18
0	137	365.593545401769	19
0	152	402.263340918763	20
0	155	402.983078056703	21
0	156	403.096523262705	22
0	157	403.557417810265	23
0	173	429.973373582173	24
0	178	446.745379037778	25
0	181	452.028678463352	26
0	182	455.162086215717	27
0	183	455.68361595809	28
0	186	456.743932344228	29
0	187	462.36154131466	30
0	190	466.774347978677	31
0	194	469.599315814995	32
0	197	472.296385419951	33
0	201	479.117590999974	34
0	202	485.131739397503	35
0	203	487.869712373167	36
0	204	493.20298226163	37
0	210	517.053906100085	38
0	215	536.046912014953	39
0	216	537.825934479081	40
0	219	553.695216551002	41
0	222	555.605333515854	42
0	228	565.305559771136	43
0	238	584.467035609417	44
0	239	587.364821178591	45
0	240	591.260125741393	46
0	258	649.630083535598	47
0	261	665.651330438353	48
0	262	669.983629501246	49
0	266	677.179165159601	50
0	270	688.872956282874	51
0	273	692.062362671853	52
0	282	731.927842421983	53
0	288	749.247698538455	54
0	294	764.127946294834	55
0	300	788.285973688763	56
0	303	797.425721162012	57
0	310	827.585511304195	58
0	311	831.031673842933	59
0	316	840.691932067697	60
0	317	842.677146213146	61
0	318	843.648338990956	62
0	323	864.231979466191	63
0	324	865.805437499438	64
0	327	880.126946179797	65
0	343	912.899252050757	66
0	344	916.552846568686	67
0	345	920.740216456931	68
0	348	925.835215612994	69
0	356	943.022289367753	70
0	359	947.499285965839	71
0	360	953.234935125264	72
0	365	967.151027640221	73
0	370	980.776144664197	74
0	371	988.981777128091	75
0	372	994.735574007939	76
0	382	1009.569397763598	77
0	383	1010.558084321783	78
0	391	1031.809985474166	79
0	399	1044.147555247676	80
0	404	1047.972449711086	81
0	405	1049.656065860365	82
0	426	1104.0746733321	83
0	427	1106.294603095063	84
0	428	1112.015906587074	85
0	432	1119.957280504489	86
0	450	1155.270815581056	87
0	453	1168.154617765167	88
0	456	1174.737645649542	89
0	457	1176.990094791755	90
0	458	1182.037796637616	91
0	459	1184.13881830484	92
0	463	1198.797420428098	93
0	464	1203.106684312902	94
0	465	1203.433933702009	95
0	466	1203.991248381834	96
0	470	1226.953025943111	97
0	473	1230.880882330437	98
0	474	1237.039470410982	99
0	480	1253.068508476751	100
0	486	1272.186387065014	101
0	493	1286.537484348908	102
0	497	1297.375568199294	103
0	498	1302.008372790088	104
0	501	1311.293959448941	105
0	510	1390.565124891309	106
0	518	1427.039674041096	107
0	523	1435.3792200223	108
0	528	1442.213043686936	109
0	534	1461.529611194871	110
0	559	1513.046816200972	111
0	565	1524.244501554405	112
0	576	1541.866800384419	113
0	577	1545.013666066719	114
0	578	1552.631234883379	115
0	579	1552.766102968241	116
0	582	1555.98521256341	117
0	583	1557.769538860746	118
0	586	1560.831927785395	119
0	589	1564.368225197012	120
0	590	1567.398694524491	121
0	591	1571.909236704484	122
0	598	1582.371818939201	123
0	599	1582.452264106872	124
0	600	1589.932538833397	125
0	601	1593.613015100703	126
0	602	1594.231441643805	127
0	603	1594.526139000139	128
0	621	1622.149534495283	129
0	624	1623.57077067012	130
0	640	1644.903015282653	131
0	641	1650.162241842856	132
0	644	1656.671857211945	133
0	649	1671.369730354894	134
0	652	1672.987287694391	135
0	655	1679.297412202366	136
0	658	1684.058904839033	137
0	664	1698.85908389986	138
0	665	1698.978397284643	139
0	666	1699.145547722232	140
0	675	1751.028948548124	141
0	676	1752.414924096744	142
0	677	1767.551154734686	143
0	680	1768.439172958878	144
0	684	1779.929827779019	145
0	689	1789.589982287739	146
0	690	1790.662241821204	147
0	699	1810.496986716679	148
0	705	1830.116937034644	149
0	714	1858.719419012085	150
0	719	1888.328554291555	151
0	720	1891.078616539778	152
0	723	1904.520041783267	153
0	736	1937.004275289522	154
0	739	1945.744430189843	155
0	740	1947.594438339277	156
0	743	1950.04554959675	157
0	744	1952.278264977467	158
0	754	1988.976487194823	159
0	755	1990.341091185713	160
0	756	1991.794012578985	161
0	761	1994.672760527403	162
0	762	2009.26168397578	163
0	770	2027.686530357033	164
0	771	2036.229452555802	165
0	774	2054.403466160022	166
0	783	2069.291086377028	167
0	784	2071.257185441238	168
0	785	2071.386833782235	169
0	794	2086.397575270346	170
0	809	2111.958419073436	171
0	810	2112.553626824265	172
0	811	2114.306613961956	173
0	812	2116.295209743449	174
0	813	2126.968123590101	175
0	818	2137.685566795443	176
0	819	2138.403331232217	177
0	822	2144.345525052768	178
0	832	2157.967041555929	179
0	833	2160.382683120483	180
0	834	2161.534195690131	181
0	837	2176.905100966645	182
0	845	2192.567926679795	183
0	846	2196.646279573055	184
0	849	2200.363090630348	185
0	885	2264.646142569277	186
0	886	2270.940365847314	187
0	887	2273.705208604045	188
0	888	2280.721424884367	189
0	904	2299.915646307908	190
0	907	2304.161207724095	191
0	908	2304.717543795293	192
0	909	2313.668818667451	193
0	917	2334.665570249039	194
0	918	2335.480306871382	195
0	921	2336.009113471088	196
0	922	2338.511923045878	197
0	925	2342.314332417968	198
0	932	2357.757805922432	199
0	940	2395.552451747829	200
0	943	2397.895635331997	201
0	944	2398.432863139823	202
0	945	2400.972274675615	203
0	946	2402.653570885944	204
0	947	2405.824744487848	205
0	948	2416.144560032538	206
0	954	2440.499477154874	207
0	964	2454.393152864332	208
0	969	2465.475581945675	209
0	972	2467.274822842834	210
0	973	2468.542117779315	211
0	974	2469.710952503138	212
0	977	2471.461448369045	213
0	978	2471.602271568372	214
1	128	350.193340640974	7
1	132	351.627033189598	7
1	135	356.77249646216	8
1	136	362.504887663569	8
1	137	365.593545401769	7
1	147	379.81260022798	7
1	152	402.263340918763	7
1	154	402.963737716547	7
1	155	402.983078056703	7
1	156	403.096523262705	6
1	157	403.557417810265	5
1	161	410.601911729775	5
1	169	424.028139429534	6
1	172	426.868942028569	7
1	173	429.973373582173	7
1	175	430.0817299749	7
1	177	441.223251046719	8
1	178	446.745379037778	8
1	180	447.851077409646	8
1	181	452.028678463352	8
1	182	455.162086215717	7
1	183	455.68361595809	6
1	185	456.100258157296	6
1	186	456.743932344228	6
1	187	462.36154131466	5
1	189	463.758244053226	5
1	190	466.774347978677	5
1	194	469.599315814995	4
1	196	471.579336823452	4
1	197	472.296385419951	4
1	201	479.117590999974	3
1	202	485.131739397503	2
1	203	487.869712373167	1
1	204	493.20298226163	0
1	209	502.794677597688	0
1	210	517.053906100085	0
1	212	525.18586160872	0
1	214	531.255079119128	1
1	215	536.046912014953	1
1	216	537.825934479081	0
1	218	549.756142199541	0
1	219	553.695216551002	0
1	221	554.025330218918	0
1	222	555.605333515854	0
1	224	557.678344759667	0
1	228	565.305559771136	0
1	232	565.9436230653	0
1	235	575.917811479756	1
1	237	583.098400084753	2
1	238	584.467035609417	2
1	239	587.364821178591	1
1	240	591.260125741393	0
1	242	594.500210084924	0
1	244	598.752685252627	1
1	253	633.961808842082	2
1	255	638.190608503541	3
1	258	649.630083535598	3
1	260	660.593018703502	3
1	261	665.651330438353	3
1	262	669.983629501246	2
1	266	677.179165159601	1
1	270	688.872956282874	0
1	272	689.824420977936	0
1	273	692.062362671853	0
1	277	718.371237768056	0
1	282	731.927842421983	0
1	287	743.664457964074	0
1	288	749.247698538455	0
1	290	753.942981059847	0
1	294	764.127946294834	0
1	299	784.610996476157	0
1	300	788.285973688763	0
1	302	794.14696762077	0
1	303	797.425721162012	0
1	305	821.459204172439	0
1	307	824.042809397798	1
1	309	825.196270828596	2
1	310	827.585511304195	2
1	311	831.031673842933	1
1	313	831.852211033489	1
1	315	833.937966094001	2
1	316	840.691932067697	2
1	317	842.677146213146	1
1	318	843.648338990956	0
1	320	850.399986038396	0
1	322	854.88890090233	1
1	323	864.231979466191	1
1	324	865.805437499438	0
1	326	873.482015827866	0
1	327	880.126946179797	0
1	334	901.221155159812	0
1	340	908.871473264762	1
1	342	909.602093200762	2
1	343	912.899252050757	2
1	344	916.552846568686	1
1	345	920.740216456931	0
1	347	923.781926997375	0
1	348	925.835215612994	0
1	352	931.423927518258	0
1	355	938.348939201108	1
1	356	943.022289367753	1
1	358	943.24238757556	1
1	359	947.499285965839	1
1	360	953.234935125264	0
1	362	962.235470988632	0
1	364	966.330123148036	1
1	365	967.151027640221	1
1	367	975.99798697478	1
1	369	978.705821758407	2
1	370	980.776144664197	2
1	371	988.981777128091	1
1	372	994.735574007939	0
1	374	998.482918602949	0
1	379	1005.920830405399	1
1	381	1008.556543930712	2
1	382	1009.569397763598	2
1	383	1010.558084321783	1
1	385	1012.386704453106	1
1	389	1017.532002700798	2
1	391	1031.809985474166	2
1	393	1032.004903157706	2
1	397	1041.796544683268	3
1	399	1044.147555247676	3
1	401	1044.847656911698	3
1	403	1046.391258790932	4
1	404	1047.972449711086	4
1	405	1049.656065860365	3
1	409	1057.922203388058	3
1	411	1059.232388767943	4
1	413	1065.576176905336	5
1	415	1070.968940743702	6
1	419	1079.763365671196	7
1	423	1087.902579559694	8
1	425	1097.392755284878	9
1	426	1104.0746733321	9
1	427	1106.294603095063	8
1	428	1112.015906587074	7
1	432	1119.957280504489	6
1	438	1125.766233095256	6
1	444	1143.088657313181	7
1	447	1148.352433743115	8
1	449	1150.14231878262	9
1	450	1155.270815581056	9
1	452	1163.488885027925	9
1	453	1168.154617765167	9
1	455	1173.619248624901	9
1	456	1174.737645649542	9
1	457	1176.990094791755	8
1	458	1182.037796637616	7
1	459	1184.13881830484	6
1	463	1198.797420428098	5
1	464	1203.106684312902	4
1	465	1203.433933702009	3
1	466	1203.991248381834	2
1	470	1226.953025943111	1
1	472	1227.547002012055	1
1	473	1230.880882330437	1
1	474	1237.039470410982	0
1	479	1246.485309322208	0
1	480	1253.068508476751	0
1	485	1271.334097917293	0
1	486	1272.186387065014	0
1	488	1274.754701552974	0
1	490	1274.77495479427	1
1	492	1275.295250023809	2
1	493	1286.537484348908	2
1	497	1297.375568199294	1
1	498	1302.008372790088	0
1	500	1310.814878514192	0
1	501	1311.293959448941	0
1	509	1389.787856502193	0
1	510	1390.565124891309	0
1	514	1411.774448768679	0
1	516	1416.222413151197	1
1	518	1427.039674041096	1
1	520	1428.245109142045	1
1	522	1434.999012423788	2
1	523	1435.3792200223	2
1	525	1436.025151640752	2
1	527	1441.760245540321	3
1	528	1442.213043686936	3
1	532	1450.280010984042	3
1	534	1461.529611194871	3
1	538	1465.101520267697	3
1	544	1482.251566661279	4
1	547	1492.180508218109	5
1	551	1500.410585507111	6
1	554	1506.819636616315	7
1	556	1511.139202840092	8
1	559	1513.046816200972	8
1	563	1519.026689187163	8
1	565	1524.244501554405	8
1	569	1526.868349624458	8
1	574	1532.515385442083	9
1	576	1541.866800384419	9
1	577	1545.013666066719	8
1	578	1552.631234883379	7
1	579	1552.766102968241	6
1	581	1553.683836730964	6
1	582	1555.98521256341	6
1	583	1557.769538860746	5
1	585	1559.904844978734	5
1	586	1560.831927785395	5
1	588	1561.116318174958	5
1	589	1564.368225197012	5
1	590	1567.398694524491	4
1	591	1571.909236704484	3
1	593	1573.486427605865	3
1	595	1573.805863783555	4
1	597	1574.189933004483	5
1	598	1582.371818939201	5
1	599	1582.452264106872	4
1	600	1589.932538833397	3
1	601	1593.613015100703	2
1	602	1594.231441643805	1
1	603	1594.526139000139	0
1	610	1604.725678599515	0
1	616	1612.040647159783	1
1	618	1615.447868378449	2
1	620	1616.539714252569	3
1	621	1622.149534495283	3
1	623	1622.372766462893	3
1	624	1623.57077067012	3
1	631	1631.729331216195	3
1	633	1634.727168303325	4
1	639	1643.010151488724	5
1	640	1644.903015282653	5
1	641	1650.162241842856	4
1	643	1652.095645300041	4
1	644	1656.671857211945	4
1	646	1657.888339907812	4
1	648	1668.538743181191	5
1	649	1671.369730354894	5
1	651	1671.840158955775	5
1	652	1672.987287694391	5
1	654	1675.065592406074	5
1	655	1679.297412202366	5
1	657	1679.339446979447	5
1	658	1684.058904839033	5
1	663	1698.856789361593	5
1	664	1698.85908389986	5
1	665	1698.978397284643	4
1	666	1699.145547722232	3
1	673	1746.146211424682	3
1	675	1751.028948548124	3
1	676	1752.414924096744	2
1	677	1767.551154734686	1
1	679	1768.10364118851	1
1	680	1768.439172958878	1
1	684	1779.929827779019	0
1	686	1781.822805675791	0
1	688	1785.178380479258	1
1	689	1789.589982287739	1
1	690	1790.662241821204	0
1	696	1805.982725966671	0
1	699	1810.496986716679	0
1	701	1816.75790201413	0
1	705	1830.116937034644	0
1	712	1843.574654344956	0
1	714	1858.719419012085	0
1	716	1879.373204660125	0
1	718	1887.469695952147	1
1	719	1888.328554291555	1
1	720	1891.078616539778	0
1	722	1903.408989516434	0
1	723	1904.520041783267	0
1	729	1925.420946342677	0
1	731	1927.398926209321	1
1	734	1929.417975943475	2
1	736	1937.004275289522	2
1	738	1944.773949654688	2
1	739	1945.744430189843	2
1	740	1947.594438339277	1
1	742	1948.558407843685	1
1	743	1950.04554959675	1
1	744	1952.278264977467	0
1	748	1983.66670938471	0
1	750	1984.43627306884	1
1	753	1988.943174813553	2
1	754	1988.976487194823	2
1	755	1990.341091185713	1
1	756	1991.794012578985	0
1	758	1992.87248004456	0
1	760	1993.792383647937	1
1	761	1994.672760527403	1
1	762	2009.26168397578	0
1	764	2021.120040871594	0
1	768	2025.333446785742	1
1	770	2027.686530357033	1
1	771	2036.229452555802	0
1	773	2054.053071454524	0
1	774	2054.403466160022	0
1	776	2062.518611221697	0
1	778	2063.391034652114	1
1	780	2065.200412046749	2
1	782	2067.369660307153	3
1	783	2069.291086377028	3
1	784	2071.257185441238	2
1	785	2071.386833782235	1
1	787	2077.355952694257	1
1	789	2080.661174205752	2
1	791	2081.339312086223	3
1	793	2083.359432863404	4
1	794	2086.397575270346	4
1	808	2107.763453955233	4
1	809	2111.958419073436	4
1	810	2112.553626824265	3
1	811	2114.306613961956	2
1	812	2116.295209743449	1
1	813	2126.968123590101	0
1	815	2130.147397150886	0
1	817	2131.075723428299	1
1	818	2137.685566795443	1
1	819	2138.403331232217	0
1	821	2142.161567990562	0
1	822	2144.345525052768	0
1	824	2144.385352452261	0
1	828	2146.283239973336	1
1	830	2152.668933988442	2
1	832	2157.967041555929	2
1	833	2160.382683120483	1
1	834	2161.534195690131	0
1	836	2171.148276558928	0
1	837	2176.905100966645	0
1	839	2176.964284117084	0
1	844	2185.652321415968	1
1	845	2192.567926679795	1
1	846	2196.646279573055	0
1	848	2200.157511841202	0
1	849	2200.363090630348	0
1	851	2201.869038775595	0
1	853	2201.997293095396	1
1	855	2203.452852601386	2
1	863	2214.867934563696	3
1	865	2223.657100916351	4
1	868	2226.881252968874	5
1	870	2228.640744741857	6
1	878	2237.903645916445	7
1	880	2242.477657187887	8
1	883	2250.373639852665	9
1	885	2264.646142569277	9
1	886	2270.940365847314	8
1	887	2273.705208604045	7
1	888	2280.721424884367	6
1	892	2283.883901231491	6
1	894	2286.238464290669	7
1	903	2299.319823196942	8
1	904	2299.915646307908	8
1	906	2300.783069113227	8
1	907	2304.161207724095	8
1	908	2304.717543795293	7
1	909	2313.668818667451	6
1	911	2313.804224342733	6
1	915	2328.464642079065	7
1	917	2334.665570249039	7
1	918	2335.480306871382	6
1	920	2335.545418203672	6
1	921	2336.009113471088	6
1	922	2338.511923045878	5
1	924	2341.981072622497	5
1	925	2342.314332417968	5
1	927	2343.334747485083	5
1	929	2350.655980734442	6
1	931	2351.535681568716	7
1	932	2357.757805922432	7
1	936	2380.394249811124	7
1	938	2385.512245301738	8
1	940	2395.552451747829	8
1	942	2395.827166958937	8
1	943	2397.895635331997	8
1	944	2398.432863139823	7
1	945	2400.972274675615	6
1	946	2402.653570885944	5
1	947	2405.824744487848	4
1	948	2416.144560032538	3
1	953	2438.359583112643	3
1	954	2440.499477154874	3
1	958	2444.126573409002	3
1	961	2448.04074565643	4
1	963	2454.272997008193	5
1	964	2454.393152864332	5
1	966	2459.202377342599	5
1	968	2462.063629544418	6
1	969	2465.475581945675	6
1	971	2466.971518960638	6
1	972	2467.274822842834	6
1	973	2468.542117779315	5
1	974	2469.710952503138	4
1	976	2469.938873253385	4
1	977	2471.461448369045	4
1	978	2471.602271568372	3
1	980	2472.405728764313	3
1	982	2472.638354338712	4
1	986	2473.954007465772	5
2	128	350.193340640974	37.498621713358
2	136	362.504887663569	42.800467254788
2	137	365.593545401769	42.024860715929
2	152	402.263340918763	75.436699303097
2	155	402.983078056703	74.645616091918
2	156	403.096523262705	63.83622585955
2	157	403.557417810265	52.64632246208
2	173	429.973373582173	73.200877120013
2	178	446.745379037778	80.354674904596
2	181	452.028678463352	72.216078235372
2	182	455.162086215717	52.19834849917
2	183	455.68361595809	49.093009572316
2	186	456.743932344228	46.142020614453
2	187	462.36154131466	38.333401885126
2	190	466.774347978677	39.905405950108
2	194	469.599315814995	28.376064768276
2	197	472.296385419951	24.445308010305
2	201	479.117590999974	15.359346946748
2	202	485.131739397503	17.910234062129
2	203	487.869712373167	16.290375549715
2	204	493.20298226163	19.032283082647
2	210	517.053906100085	14.259228502397
2	215	536.046912014953	10.861050406233
2	216	537.825934479081	6.570855359953
2	219	553.695216551002	3.939074351461
2	222	555.605333515854	1.580003296936
2	228	565.305559771136	3.715885143486
2	238	584.467035609417	18.523412544117
2	239	587.364821178591	11.447009698835
2	240	591.260125741393	8.16172565664
2	258	649.630083535598	50.877398282971
2	261	665.651330438353	51.12462913348
2	262	669.983629501246	36.021820659164
2	266	677.179165159601	16.586146456099
2	270	688.872956282874	4.618604288212
2	273	692.062362671853	2.237941693917
2	282	731.927842421983	13.556604653927
2	288	749.247698538455	5.583240574381
2	294	764.127946294834	7.498740383891
2	300	788.285973688763	3.674977212606
2	303	797.425721162012	3.278753541242
2	310	827.585511304195	6.126307131756
2	311	831.031673842933	6.988864445135
2	316	840.691932067697	15.495661239101
2	317	842.677146213146	10.824935179657
2	318	843.648338990956	9.710372896955
2	323	864.231979466191	13.831993427795
2	324	865.805437499438	10.916536597108
2	327	880.126946179797	6.644930351931
2	343	912.899252050757	11.678096890945
2	344	916.552846568686	7.681373303924
2	345	920.740216456931	11.138123256169
2	348	925.835215612994	2.053288615619
2	356	943.022289367753	11.598361849495
2	359	947.499285965839	9.150346764731
2	360	953.234935125264	9.992547549704
2	365	967.151027640221	4.915556651589
2	370	980.776144664197	14.446021516161
2	371	988.981777128091	12.983790153311
2	372	994.735574007939	16.029752249532
2	382	1009.569397763598	6.945941548475
2	383	1010.558084321783	4.637253916384
2	391	1031.809985474166	19.42328102106
2	399	1044.147555247676	26.615552546878
2	404	1047.972449711086	15.96754655338
2	405	1049.656065860365	14.443027351908
2	426	1104.0746733321	59.227016420402
2	427	1106.294603095063	59.903344304131
2	428	1112.015906587074	61.86965007984
2	432	1119.957280504489	60.724891736546
2	450	1155.270815581056	75.50744990986
2	453	1168.154617765167	80.252038205473
2	456	1174.737645649542	77.344890364664
2	457	1176.990094791755	62.935473047782
2	458	1182.037796637616	60.990221841022
2	459	1184.13881830484	58.372585209584
2	463	1198.797420428098	55.708763114917
2	464	1203.106684312902	54.754250569787
2	465	1203.433933702009	53.291614919389
2	466	1203.991248381834	40.502363353909
2	470	1226.953025943111	33.688469059856
2	473	1230.880882330437	9.839536106486
2	474	1237.039470410982	9.492468398927
2	480	1253.068508476751	6.583199154543
2	486	1272.186387065014	0.852289147721
2	493	1286.537484348908	11.782782795934
2	497	1297.375568199294	22.080318175485
2	498	1302.008372790088	11.376618415768
2	501	1311.293959448941	0.479080934749
2	510	1390.565124891309	0.777268389116
2	518	1427.039674041096	15.265225272417
2	523	1435.3792200223	19.156806871103
2	528	1442.213043686936	13.967934544891
2	534	1461.529611194871	25.504459554119
2	559	1513.046816200972	68.878824373039
2	565	1524.244501554405	59.382266456664
2	576	1541.866800384419	59.61523372314
2	577	1545.013666066719	52.83315784861
2	578	1552.631234883379	52.220649376268
2	579	1552.766102968241	45.946466351926
2	582	1555.98521256341	44.846009723318
2	583	1557.769538860746	40.119241675261
2	586	1560.831927785395	41.805238598232
2	589	1564.368225197012	40.052606027311
2	590	1567.398694524491	40.530344900033
2	591	1571.909236704484	39.393851262401
2	598	1582.371818939201	28.687982208237
2	599	1582.452264106872	22.547419128138
2	600	1589.932538833397	28.816220658439
2	601	1593.613015100703	20.126587494838
2	602	1594.231441643805	20.42557786025
2	603	1594.526139000139	20.336205995656
2	621	1622.149534495283	17.423855895768
2	624	1623.57077067012	11.530123510337
2	640	1644.903015282653	21.325745193061
2	641	1650.162241842856	20.136032963408
2	644	1656.671857211945	24.94252599575
2	649	1671.369730354894	36.642562051569
2	652	1672.987287694391	32.440280179069
2	655	1679.297412202366	36.287260713642
2	658	1684.058904839033	31.963259538992
2	664	1698.85908389986	30.320340718669
2	665	1698.978397284643	27.138238328868
2	666	1699.145547722232	24.079955316158
2	675	1751.028948548124	55.5349635896
2	676	1752.414924096744	53.558134735151
2	677	1767.551154734686	55.619134445211
2	680	1768.439172958878	22.292961534196
2	684	1779.929827779019	9.684969058014
2	689	1789.589982287739	7.767176611948
2	690	1790.662241821204	5.483861341946
2	699	1810.496986716679	4.514260750008
2	705	1830.116937034644	5.227100070037
2	714	1858.719419012085	15.144764667129
2	719	1888.328554291555	8.95534963143
2	720	1891.078616539778	3.608920587631
2	723	1904.520041783267	1.111052266833
2	736	1937.004275289522	11.583328946845
2	739	1945.744430189843	18.345503980522
2	740	1947.594438339277	18.176462395802
2	743	1950.04554959675	5.271599942062
2	744	1952.278264977467	3.719857133782
2	754	1988.976487194823	5.309777810113
2	755	1990.341091185713	5.904818116873
2	756	1991.794012578985	2.850837765432
2	761	1994.672760527403	1.800280482843
2	762	2009.26168397578	15.469300327843
2	770	2027.686530357033	6.05058537738
2	771	2036.229452555802	10.89600577006
2	774	2054.403466160022	0.350394705498
2	783	2069.291086377028	6.772475155331
2	784	2071.257185441238	7.866150789124
2	785	2071.386833782235	6.186421735486
2	794	2086.397575270346	19.027914963193
2	809	2111.958419073436	31.297244867684
2	810	2112.553626824265	31.214314738042
2	811	2114.306613961956	30.947181098552
2	812	2116.295209743449	25.397923201138
2	813	2126.968123590101	19.204669634868
2	818	2137.685566795443	7.538169644557
2	819	2138.403331232217	7.327607803918
2	822	2144.345525052768	2.183957062206
2	832	2157.967041555929	12.084961808599
2	833	2160.382683120483	14.099443147147
2	834	2161.534195690131	8.865261701689
2	837	2176.905100966645	5.756824407717
2	845	2192.567926679795	15.108476193608
2	846	2196.646279573055	10.993958157087
2	849	2200.363090630348	0.205578789146
2	885	2264.646142569277	62.648849473881
2	886	2270.940365847314	67.487513245928
2	887	2273.705208604045	66.854439471185
2	888	2280.721424884367	65.853490320671
2	904	2299.915646307908	73.034393339034
2	907	2304.161207724095	75.520462982238
2	908	2304.717543795293	66.813897878848
2	909	2313.668818667451	71.191161479564
2	917	2334.665570249039	52.169099238132
2	918	2335.480306871382	51.596405639891
2	921	2336.009113471088	49.770649180419
2	922	2338.511923045878	39.192099848936
2	925	2342.314332417968	41.531263304741
2	932	2357.757805922432	43.953581579699
2	940	2395.552451747829	67.087809668764
2	943	2397.895635331997	62.350217128325
2	944	2398.432863139823	56.451790517326
2	945	2400.972274675615	57.637527190532
2	946	2402.653570885944	51.997590151502
2	947	2405.824744487848	54.289062919132
2	948	2416.144560032538	57.402435239431
2	954	2440.499477154874	54.987231853136
2	964	2454.393152864332	34.542559815277
2	969	2465.475581945675	27.115998833032
2	972	2467.274822842834	24.667032480572
2	973	2468.542117779315	24.415544370313
2	974	2469.710952503138	21.670206846708
2	977	2471.461448369045	17.188451360852
2	978	2471.602271568372	12.399894225773
3	128	350.193340640974	33.161554356753
3	133	353.910733801157	34.206313392376
3	136	362.504887663569	38.936202977729
3	137	365.593545401769	41.819690676271
3	151	401.697041748012	74.870400132346
3	152	402.263340918763	73.925878953978
3	155	402.983078056703	63.722780653548
3	156	403.096523262705	52.18542791452
3	157	403.557417810265	51.930384620667
3	170	425.418424648065	68.645928185905
3	173	429.973373582173	63.582669448991
3	178	446.745379037778	66.932778809798
3	181	452.028678463352	49.064940746805
3	182	455.162086215717	48.571479829943
3	183	455.68361595809	45.081704228315
3	186	456.743932344228	32.715792914694
3	187	462.36154131466	35.492599286091
3	190	466.774347978677	36.692618003777
3	193	467.231709653413	26.008458606694
3	194	469.599315814995	21.748238405349
3	197	472.296385419951	16.196127262655
3	200	476.927876870097	13.169632816871
3	201	479.117590999974	11.8960856646
3	202	485.131739397503	13.552402574051
3	203	487.869712373167	13.699013194184
3	209	502.794677597688	0
3	212	525.18586160872	0
3	215	536.046912014953	4.791832895825
3	218	549.756142199541	0
3	221	554.025330218918	0
3	224	557.678344759667	0
3	227	564.856637395874	3.266962768224
3	233	567.252801840386	1.309178775086
3	238	584.467035609417	8.549224129661
3	239	587.364821178591	4.266421093838
3	242	594.500210084924	0
3	257	643.635741907801	44.883056655174
3	258	649.630083535598	35.103382230725
3	261	665.651330438353	31.689521596271
3	262	669.983629501246	31.793020997705
3	265	672.266177848346	11.673159144844
3	266	677.179165159601	6.215710322162
3	269	685.558175751294	1.303823756632
3	272	689.824420977936	0
3	281	731.717499534335	13.346261766279
3	287	743.664457964074	0
3	290	753.942981059847	0
3	293	759.177876262176	2.548670351233
3	299	784.610996476157	0
3	302	794.14696762077	0
3	305	821.459204172439	0
3	310	827.585511304195	3.542701906397
3	311	831.031673842933	5.835403014337
3	316	840.691932067697	8.839721034208
3	317	842.677146213146	8.739180119145
3	320	850.399986038396	0
3	323	864.231979466191	9.343078563861
3	326	873.482015827866	0
3	338	907.273356765954	6.052201606142
3	343	912.899252050757	4.027778785995
3	344	916.552846568686	6.950753367924
3	347	923.781926997375	0
3	353	935.387532914476	3.963605396218
3	356	943.022289367753	4.673350166645
3	359	947.499285965839	4.256898390279
3	362	962.235470988632	0
3	365	967.151027640221	0.820904492185
3	370	980.776144664197	4.778157689417
3	371	988.981777128091	10.275955369684
3	374	998.482918602949	0
3	377	1003.136279701283	0.51282348616
3	382	1009.569397763598	3.648567358199
3	383	1010.558084321783	2.001540391071
3	390	1017.775403424159	5.388698971053
3	391	1031.809985474166	15.925350202076
3	398	1043.665886744247	26.133884043449
3	399	1044.147555247676	12.14265208997
3	404	1047.972449711086	12.759411202629
3	405	1049.656065860365	7.859521177097
3	421	1085.166936596774	40.319279685076
3	426	1104.0746733321	57.683414541168
3	427	1106.294603095063	56.148346587829
3	428	1112.015906587074	54.093703199016
3	431	1115.500056987916	56.267668219973
3	432	1119.957280504489	54.381103599153
3	440	1133.959749138539	62.990808394837
3	445	1146.756877829423	66.993512158227
3	450	1155.270815581056	67.368236021362
3	453	1168.154617765167	70.761862480289
3	456	1174.737645649542	60.683023905569
3	457	1176.990094791755	55.942519995161
3	458	1182.037796637616	56.27156354236
3	459	1184.13881830484	41.138099939458
3	462	1198.344176761592	55.255519448411
3	463	1198.797420428098	50.444986684983
3	464	1203.106684312902	52.964365530282
3	465	1203.433933702009	39.945048674084
3	466	1203.991248381834	30.371999756933
3	469	1226.086014528134	32.821457644879
3	470	1226.953025943111	5.91167971916
3	473	1230.880882330437	3.333880318382
3	479	1246.485309322208	0
3	485	1271.334097917293	0
3	488	1274.754701552974	0
3	493	1286.537484348908	11.762529554638
3	496	1292.211359799781	16.916109775972
3	497	1297.375568199294	6.743813824974
3	500	1310.814878514192	0
3	509	1389.787856502193	0
3	517	1424.627453709453	12.853004940774
3	518	1427.039674041096	10.817260889899
3	523	1435.3792200223	7.134110880255
3	528	1442.213043686936	7.214031263148
3	533	1457.259139945744	21.233988304992
3	534	1461.529611194871	19.76936565455
3	558	1511.84694097989	67.678949151957
3	559	1513.046816200972	62.76680521693
3	564	1522.181991551705	57.319756453964
3	565	1524.244501554405	59.142981286708
3	575	1536.337165965457	54.085599304178
3	576	1541.866800384419	49.68629216631
3	577	1545.013666066719	44.603080559608
3	578	1552.631234883379	45.811598267064
3	579	1552.766102968241	41.626900128149
3	582	1555.98521256341	38.334915377925
3	583	1557.769538860746	38.742849673583
3	586	1560.831927785395	36.516308615694
3	589	1564.368225197012	37.499875572554
3	590	1567.398694524491	34.883309082408
3	591	1571.909236704484	18.22539997352
3	598	1582.371818939201	22.466973960467
3	599	1582.452264106872	21.335945931914
3	600	1589.932538833397	16.446111227532
3	601	1593.613015100703	19.807151317148
3	602	1594.231441643805	20.041508639322
3	614	1611.072712093848	6.347033494333
3	621	1622.149534495283	10.1088873355
3	624	1623.57077067012	8.122902291671
3	627	1624.130852589814	7.591138337245
3	634	1639.354238528383	16.98147206549
3	637	1641.421799914249	17.844529824657
3	640	1644.903015282653	14.876806403205
3	641	1650.162241842856	18.432910626661
3	644	1656.671857211945	21.94468890862
3	649	1671.369730354894	30.822722839572
3	652	1672.987287694391	29.977136205667
3	655	1679.297412202366	27.201766902325
3	658	1684.058904839033	26.170564931221
3	661	1697.117473277492	28.578730096301
3	664	1698.85908389986	27.018924944085
3	665	1698.978397284643	23.912804878569
3	666	1699.145547722232	19.806100742785
3	674	1750.762840823393	55.268855864869
3	675	1751.028948548124	52.172159186531
3	676	1752.414924096744	40.482903807269
3	677	1767.551154734686	21.404943310004
3	680	1768.439172958878	0.335531770368
3	683	1776.372954358592	6.128095637587
3	686	1781.822805675791	0
3	689	1789.589982287739	4.411601808481
3	698	1808.579958642132	2.597232675461
3	701	1816.75790201413	0
3	704	1827.367485190488	2.477648225881
3	713	1852.234478153581	8.659823808625
3	716	1879.373204660125	0
3	719	1888.328554291555	0.858858339408
3	722	1903.408989516434	0
3	735	1935.547783186976	10.126836844299
3	736	1937.004275289522	9.605349080201
3	739	1945.744430189843	16.326454246368
3	740	1947.594438339277	2.820488684589
3	743	1950.04554959675	1.487141753065
3	751	1985.140009245065	1.473299860355
3	754	1988.976487194823	4.540214125983
3	755	1990.341091185713	1.39791637216
3	758	1992.87248004456	0
3	761	1994.672760527403	0.880376879466
3	764	2021.120040871594	0
3	769	2025.932834930334	4.296889950681
3	770	2027.686530357033	2.353083571291
3	773	2054.053071454524	0
3	776	2062.518611221697	0
3	783	2069.291086377028	5.900051724914
3	784	2071.257185441238	6.056773394489
3	785	2071.386833782235	4.017173475082
3	794	2086.397575270346	9.041622576089
3	806	2105.672800558891	25.011626353139
3	809	2111.958419073436	30.619106987213
3	810	2112.553626824265	29.194193960861
3	811	2114.306613961956	23.409327419645
3	812	2116.295209743449	8.531755788216
3	815	2130.147397150886	0
3	818	2137.685566795443	6.609843367144
3	821	2142.161567990562	0
3	824	2144.385352452261	0
3	831	2154.44402418289	8.56194443556
3	832	2157.967041555929	11.683801582593
3	833	2160.382683120483	7.713749132041
3	836	2171.148276558928	0
3	839	2176.964284117084	0
3	842	2183.681849176931	6.222398690744
3	845	2192.567926679795	6.915605263827
3	848	2200.157511841202	0
3	851	2201.869038775595	0
3	884	2255.109178436453	53.111885341057
3	885	2264.646142569277	61.193289967891
3	886	2270.940365847314	64.089596714454
3	887	2273.705208604045	58.837274040349
3	888	2280.721424884367	57.064323968016
3	901	2295.853825940559	68.972572971685
3	904	2299.915646307908	71.274901566051
3	907	2304.161207724095	66.25756180765
3	908	2304.717543795293	62.239886607406
3	909	2313.668818667451	63.295178814786
3	916	2333.694887817495	51.198416806588
3	917	2334.665570249039	50.781669017548
3	918	2335.480306871382	49.241842580713
3	921	2336.009113471088	36.689290274146
3	922	2338.511923045878	37.728853932651
3	925	2342.314332417968	28.510108075235
3	932	2357.757805922432	38.752762056821
3	939	2385.725036938128	57.260394859063
3	940	2395.552451747829	60.007033544157
3	943	2397.895635331997	55.9145627095
3	944	2398.432863139823	55.09811565474
3	945	2400.972274675615	50.316293941173
3	946	2402.653570885944	51.117889317228
3	947	2405.824744487848	47.082619694741
3	948	2416.144560032538	35.750310221414
3	951	2437.879559107328	52.36731380559
3	954	2440.499477154874	44.672310195937
3	959	2444.700518931334	24.849925882279
3	964	2454.393152864332	16.033569751689
3	969	2465.475581945675	22.867791583413
3	972	2467.274822842834	23.148249433832
3	973	2468.542117779315	20.501372122885
3	974	2469.710952503138	15.437955494945
3	977	2471.461448369045	12.259071026446
3	978	2471.602271568372	9.538642023954
3	990	2479.15245083433	12.180931873692
3	996	2490.269989406851	20.331116153466
4	130	350.911095348185	1
4	139	366.390704133182	1
4	141	371.17356131204	2
4	143	377.820612985913	3
4	145	377.96980287222	4
4	159	406.590606385774	1
4	163	417.617291548579	2
4	166	423.903095571506	2
4	192	467.221505335374	1
4	199	474.170699178983	1
4	206	495.971717000857	1
4	226	561.58967462765	1
4	230	565.640426342516	1
4	246	614.526701304873	1
4	248	615.254532494379	2
4	251	632.049222519165	2
4	264	670.963454837439	1
4	268	684.254351994662	1
4	275	709.410644553138	1
4	279	730.619893590699	2
4	284	741.244643729957	1
4	292	756.629205910943	1
4	296	777.546901299853	1
4	329	886.711462365343	1
4	332	900.190491588623	1
4	336	903.253106306936	2
4	350	928.570672954617	1
4	376	1002.623456215123	1
4	387	1015.88463527209	1
4	395	1035.213038508457	1
4	407	1050.146256507234	1
4	417	1075.64032921121	2
4	430	1114.054621743973	1
4	434	1121.047574796594	1
4	436	1124.668304703187	2
4	442	1143.000718365382	1
4	461	1193.264556883255	1
4	468	1221.041346223951	1
4	476	1240.173927918977	1
4	482	1260.682995869076	1
4	495	1290.63175437432	1
4	503	1341.98868381818	1
4	506	1367.457978445056	1
4	512	1411.373933569448	1
4	530	1444.167991827933	1
4	536	1464.862235097741	1
4	540	1470.389925185423	2
4	542	1477.399307372857	3
4	549	1494.698843858274	3
4	561	1517.650297185485	1
4	567	1524.315619169701	1
4	571	1530.802464609031	2
4	605	1601.102500740114	1
4	608	1603.805840100172	1
4	612	1606.701715929049	2
4	626	1623.577270089592	1
4	629	1630.026208879448	1
4	636	1640.547007515322	1
4	660	1695.493984958524	1
4	668	1711.932020289475	1
4	670	1731.714786339412	2
4	682	1770.244858721005	1
4	692	1802.854931859741	1
4	694	1804.889361326234	2
4	703	1824.889836964607	1
4	707	1833.639570527449	1
4	710	1842.732282835428	1
4	725	1915.436609589533	1
4	727	1916.889482352561	2
4	746	1967.901726318689	1
4	766	2021.635944979653	1
4	796	2090.897286542311	1
4	798	2097.051712636309	2
4	800	2098.097723051968	3
4	804	2102.875204944668	2
4	826	2145.88207974733	1
4	841	2177.459450486187	1
4	857	2206.85076913286	1
4	859	2208.249520480578	2
4	861	2213.728139743341	3
4	872	2230.463349804384	3
4	875	2232.655512392498	3
4	890	2282.496471010907	1
4	896	2286.619675817699	2
4	899	2291.06034277556	2
4	913	2319.005043865611	1
4	934	2358.742124793107	1
4	950	2419.850593049055	1
4	956	2442.607790362262	1
4	984	2473.876253655396	1
4	988	2475.158360869859	2
4	992	2479.289234085361	1
4	994	2485.053898812339	2
4	998	2499.404620087199	1
5	130	350.911095348185	0
5	133	353.910733801157	0
5	139	366.390704133182	0
5	141	371.17356131204	1
5	143	377.820612985913	2
5	145	377.96980287222	3
5	148	380.054828420859	3
5	149	391.979185852158	2
5	150	401.662618883856	1
5	151	401.697041748012	0
5	159	406.590606385774	0
5	163	417.617291548579	1
5	164	420.879949239616	1
5	166	423.903095571506	1
5	167	423.971357355252	1
5	170	425.418424648065	0
5	192	467.221505335374	0
5	193	467.231709653413	0
5	199	474.170699178983	0
5	200	476.927876870097	0
5	206	495.971717000857	0
5	207	496.460072377112	0
5	226	561.58967462765	0
5	227	564.856637395874	0
5	230	565.640426342516	0
5	233	567.252801840386	0
5	246	614.526701304873	0
5	248	615.254532494379	1
5	249	625.576110262628	1
5	251	632.049222519165	1
5	256	642.489372306792	1
5	257	643.635741907801	0
5	264	670.963454837439	0
5	265	672.266177848346	0
5	268	684.254351994662	0
5	269	685.558175751294	0
5	275	709.410644553138	0
5	279	730.619893590699	1
5	280	731.124927352726	1
5	281	731.717499534335	0
5	284	741.244643729957	0
5	285	743.161549942298	0
5	292	756.629205910943	0
5	293	759.177876262176	0
5	296	777.546901299853	0
5	297	777.550706412197	0
5	329	886.711462365343	0
5	330	897.415822558949	0
5	332	900.190491588623	0
5	336	903.253106306936	1
5	337	906.028622918417	1
5	338	907.273356765954	0
5	350	928.570672954617	0
5	353	935.387532914476	0
5	376	1002.623456215123	0
5	377	1003.136279701283	0
5	387	1015.88463527209	0
5	390	1017.775403424159	0
5	395	1035.213038508457	0
5	398	1043.665886744247	0
5	407	1050.146256507234	0
5	417	1075.64032921121	1
5	420	1083.76941020419	1
5	421	1085.166936596774	0
5	430	1114.054621743973	0
5	431	1115.500056987916	0
5	434	1121.047574796594	0
5	436	1124.668304703187	1
5	439	1127.442687398669	1
5	440	1133.959749138539	0
5	442	1143.000718365382	0
5	445	1146.756877829423	0
5	461	1193.264556883255	0
5	462	1198.344176761592	0
5	468	1221.041346223951	0
5	469	1226.086014528134	0
5	476	1240.173927918977	0
5	477	1244.14720597377	0
5	482	1260.682995869076	0
5	483	1262.428116616097	0
5	495	1290.63175437432	0
5	496	1292.211359799781	0
5	503	1341.98868381818	0
5	504	1351.040173979037	0
5	506	1367.457978445056	0
5	507	1373.579213635022	0
5	512	1411.373933569448	0
5	517	1424.627453709453	0
5	530	1444.167991827933	0
5	533	1457.259139945744	0
5	536	1464.862235097741	0
5	540	1470.389925185423	1
5	542	1477.399307372857	2
5	545	1483.367204125986	2
5	549	1494.698843858274	2
5	552	1502.131819807108	2
5	557	1511.452873526659	1
5	558	1511.84694097989	0
5	561	1517.650297185485	0
5	564	1522.181991551705	0
5	567	1524.315619169701	0
5	571	1530.802464609031	1
5	572	1531.583933483607	1
5	575	1536.337165965457	0
5	605	1601.102500740114	0
5	606	1601.230113091324	0
5	608	1603.805840100172	0
5	612	1606.701715929049	1
5	613	1610.12463090296	1
5	614	1611.072712093848	0
5	626	1623.577270089592	0
5	627	1624.130852589814	0
5	629	1630.026208879448	0
5	634	1639.354238528383	0
5	636	1640.547007515322	0
5	637	1641.421799914249	0
5	660	1695.493984958524	0
5	661	1697.117473277492	0
5	668	1711.932020289475	0
5	670	1731.714786339412	1
5	671	1735.698318081195	1
5	674	1750.762840823393	0
5	682	1770.244858721005	0
5	683	1776.372954358592	0
5	692	1802.854931859741	0
5	694	1804.889361326234	1
5	697	1807.901128931912	1
5	698	1808.579958642132	0
5	703	1824.889836964607	0
5	704	1827.367485190488	0
5	707	1833.639570527449	0
5	708	1833.735633141582	0
5	710	1842.732282835428	0
5	713	1852.234478153581	0
5	725	1915.436609589533	0
5	727	1916.889482352561	1
5	732	1928.131644184219	1
5	735	1935.547783186976	0
5	746	1967.901726318689	0
5	751	1985.140009245065	0
5	766	2021.635944979653	0
5	769	2025.932834930334	0
5	796	2090.897286542311	0
5	798	2097.051712636309	1
5	800	2098.097723051968	2
5	801	2099.432935480146	2
5	802	2100.105865088913	1
5	804	2102.875204944668	1
5	805	2103.531672816912	1
5	806	2105.672800558891	0
5	826	2145.88207974733	0
5	831	2154.44402418289	0
5	841	2177.459450486187	0
5	842	2183.681849176931	0
5	857	2206.85076913286	0
5	859	2208.249520480578	1
5	861	2213.728139743341	2
5	866	2224.826762476215	2
5	872	2230.463349804384	2
5	873	2232.549205421515	2
5	875	2232.655512392498	2
5	876	2234.928450320454	2
5	881	2247.044647407338	1
5	884	2255.109178436453	0
5	890	2282.496471010907	0
5	896	2286.619675817699	1
5	897	2289.021228290706	1
5	899	2291.06034277556	1
5	900	2294.163279424986	1
5	901	2295.853825940559	0
5	913	2319.005043865611	0
5	916	2333.694887817495	0
5	934	2358.742124793107	0
5	939	2385.725036938128	0
5	950	2419.850593049055	0
5	951	2437.879559107328	0
5	956	2442.607790362262	0
5	959	2444.700518931334	0
5	984	2473.876253655396	0
5	988	2475.158360869859	1
5	989	2478.579107021004	1
5	990	2479.15245083433	0
5	992	2479.289234085361	0
5	994	2485.053898812339	1
5	995	2485.637325160307	1
5	996	2490.269989406851	0
5	998	2499.404620087199	0
6	130	350.911095348185	9
6	139	366.390704133182	10
6	159	406.590606385774	11
6	192	467.221505335374	12
6	199	474.170699178983	13
6	226	561.58967462765	14
6	246	614.526701304873	15
6	264	670.963454837439	16
6	268	684.254351994662	17
6	292	756.629205910943	18
6	376	1002.623456215123	19
6	387	1015.88463527209	20
6	395	1035.213038508457	21
6	407	1050.146256507234	22
6	430	1114.054621743973	23
6	434	1121.047574796594	24
6	442	1143.000718365382	25
6	461	1193.264556883255	26
6	468	1221.041346223951	27
6	495	1290.63175437432	28
6	530	1444.167991827933	29
6	536	1464.862235097741	30
6	561	1517.650297185485	31
6	567	1524.315619169701	32
6	626	1623.577270089592	33
6	629	1630.026208879448	34
6	636	1640.547007515322	35
6	660	1695.493984958524	36
6	668	1711.932020289475	37
6	682	1770.244858721005	38
6	703	1824.889836964607	39
6	766	2021.635944979653	40
6	796	2090.897286542311	41
6	826	2145.88207974733	42
6	841	2177.459450486187	43
6	857	2206.85076913286	44
6	890	2282.496471010907	45
6	913	2319.005043865611	46
6	934	2358.742124793107	47
6	950	2419.850593049055	48
6	956	2442.607790362262	49
6	984	2473.876253655396	50
6	992	2479.289234085361	51
6	998	2499.404620087199	52
7	130	350.911095348185	0
7	139	366.390704133182	0
7	148	380.054828420859	8.881267108819
7	149	391.979185852158	14.158572866245
7	150	401.662618883856	23.692816011636
7	159	406.590606385774	0
7	164	420.879949239616	3.262657691037
7	167	423.971357355252	0.068261783746
7	192	467.221505335374	0
7	199	474.170699178983	0
7	206	495.971717000857	0
7	226	561.58967462765	0
7	230	565.640426342516	0
7	246	614.526701304873	0
7	249	625.576110262628	10.321577768249
7	256	642.489372306792	10.440149787627
7	264	670.963454837439	0
7	268	684.254351994662	0
7	275	709.410644553138	0
7	280	731.124927352726	0.505033762027
7	284	741.244643729957	0
7	292	756.629205910943	0
7	296	777.546901299853	0
7	329	886.711462365343	0
7	332	900.190491588623	0
7	337	906.028622918417	2.775516611481
7	350	928.570672954617	0
7	376	1002.623456215123	0
7	387	1015.88463527209	0
7	395	1035.213038508457	0
7	407	1050.146256507234	0
7	420	1083.76941020419	8.12908099298
7	430	1114.054621743973	0
7	434	1121.047574796594	0
7	439	1127.442687398669	2.774382695482
7	442	1143.000718365382	0
7	461	1193.264556883255	0
7	468	1221.041346223951	0
7	476	1240.173927918977	0
7	482	1260.682995869076	0
7	495	1290.63175437432	0
7	503	1341.98868381818	0
7	506	1367.457978445056	0
7	512	1411.373933569448	0
7	530	1444.167991827933	0
7	536	1464.862235097741	0
7	545	1483.367204125986	12.977278940563
7	552	1502.131819807108	24.732512434251
7	557	1511.452873526659	16.754029668385
7	561	1517.650297185485	0
7	567	1524.315619169701	0
7	572	1531.583933483607	0.781468874576
7	605	1601.102500740114	0
7	608	1603.805840100172	0
7	613	1610.12463090296	3.422914973911
7	626	1623.577270089592	0
7	629	1630.026208879448	0
7	636	1640.547007515322	0
7	660	1695.493984958524	0
7	668	1711.932020289475	0
7	671	1735.698318081195	3.983531741783
7	682	1770.244858721005	0
7	692	1802.854931859741	0
7	697	1807.901128931912	3.011767605678
7	703	1824.889836964607	0
7	707	1833.639570527449	0
7	710	1842.732282835428	0
7	725	1915.436609589533	0
7	732	1928.131644184219	11.242161831658
7	746	1967.901726318689	0
7	766	2021.635944979653	0
7	796	2090.897286542311	0
7	801	2099.432935480146	2.381222843837
7	802	2100.105865088913	2.008142036945
7	805	2103.531672816912	0.656467872244
7	826	2145.88207974733	0
7	841	2177.459450486187	0
7	857	2206.85076913286	0
7	866	2224.826762476215	16.577241995637
7	873	2232.549205421515	18.821065678174
7	876	2234.928450320454	4.46510051607
7	881	2247.044647407338	14.38913501484
7	890	2282.496471010907	0
7	897	2289.021228290706	2.401552473007
7	900	2294.163279424986	3.102936649426
7	913	2319.005043865611	0
7	934	2358.742124793107	0
7	950	2419.850593049055	0
7	956	2442.607790362262	0
7	984	2473.876253655396	0
7	989	2478.579107021004	3.420746151145
7	992	2479.289234085361	0
7	995	2485.637325160307	0.583426347968
7	998	2499.404620087199	0
8	132	351.627033189598	8
8	135	356.77249646216	9
8	147	379.81260022798	8
8	154	402.963737716547	8
8	161	410.601911729775	6
8	169	424.028139429534	7
8	172	426.868942028569	8
8	175	430.0817299749	8
8	177	441.223251046719	9
8	180	447.851077409646	9
8	185	456.100258157296	7
8	189	463.758244053226	6
8	196	471.579336823452	5
8	209	502.794677597688	1
8	212	525.18586160872	1
8	214	531.255079119128	2
8	218	549.756142199541	1
8	221	554.025330218918	1
8	224	557.678344759667	1
8	232	565.9436230653	1
8	235	575.917811479756	2
8	237	583.098400084753	3
8	242	594.500210084924	1
8	244	598.752685252627	2
8	253	633.961808842082	3
8	255	638.190608503541	4
8	260	660.593018703502	4
8	272	689.824420977936	1
8	277	718.371237768056	1
8	287	743.664457964074	1
8	290	753.942981059847	1
8	299	784.610996476157	1
8	302	794.14696762077	1
8	305	821.459204172439	1
8	307	824.042809397798	2
8	309	825.196270828596	3
8	313	831.852211033489	2
8	315	833.937966094001	3
8	320	850.399986038396	1
8	322	854.88890090233	2
8	326	873.482015827866	1
8	334	901.221155159812	1
8	340	908.871473264762	2
8	342	909.602093200762	3
8	347	923.781926997375	1
8	352	931.423927518258	1
8	355	938.348939201108	2
8	358	943.24238757556	2
8	362	962.235470988632	1
8	364	966.330123148036	2
8	367	975.99798697478	2
8	369	978.705821758407	3
8	374	998.482918602949	1
8	379	1005.920830405399	2
8	381	1008.556543930712	3
8	385	1012.386704453106	2
8	389	1017.532002700798	3
8	393	1032.004903157706	3
8	397	1041.796544683268	4
8	401	1044.847656911698	4
8	403	1046.391258790932	5
8	409	1057.922203388058	4
8	411	1059.232388767943	5
8	413	1065.576176905336	6
8	415	1070.968940743702	7
8	419	1079.763365671196	8
8	423	1087.902579559694	9
8	425	1097.392755284878	10
8	438	1125.766233095256	7
8	444	1143.088657313181	8
8	447	1148.352433743115	9
8	449	1150.14231878262	10
8	452	1163.488885027925	10
8	455	1173.619248624901	10
8	472	1227.547002012055	2
8	479	1246.485309322208	1
8	485	1271.334097917293	1
8	488	1274.754701552974	1
8	490	1274.77495479427	2
8	492	1275.295250023809	3
8	500	1310.814878514192	1
8	509	1389.787856502193	1
8	514	1411.774448768679	1
8	516	1416.222413151197	2
8	520	1428.245109142045	2
8	522	1434.999012423788	3
8	525	1436.025151640752	3
8	527	1441.760245540321	4
8	532	1450.280010984042	4
8	538	1465.101520267697	4
8	544	1482.251566661279	5
8	547	1492.180508218109	6
8	551	1500.410585507111	7
8	554	1506.819636616315	8
8	556	1511.139202840092	9
8	563	1519.026689187163	9
8	569	1526.868349624458	9
8	574	1532.515385442083	10
8	581	1553.683836730964	7
8	585	1559.904844978734	6
8	588	1561.116318174958	6
8	593	1573.486427605865	4
8	595	1573.805863783555	5
8	597	1574.189933004483	6
8	610	1604.725678599515	1
8	616	1612.040647159783	2
8	618	1615.447868378449	3
8	620	1616.539714252569	4
8	623	1622.372766462893	4
8	631	1631.729331216195	4
8	633	1634.727168303325	5
8	639	1643.010151488724	6
8	643	1652.095645300041	5
8	646	1657.888339907812	5
8	648	1668.538743181191	6
8	651	1671.840158955775	6
8	654	1675.065592406074	6
8	657	1679.339446979447	6
8	663	1698.856789361593	6
8	673	1746.146211424682	4
8	679	1768.10364118851	2
8	686	1781.822805675791	1
8	688	1785.178380479258	2
8	696	1805.982725966671	1
8	701	1816.75790201413	1
8	712	1843.574654344956	1
8	716	1879.373204660125	1
8	718	1887.469695952147	2
8	722	1903.408989516434	1
8	729	1925.420946342677	1
8	731	1927.398926209321	2
8	734	1929.417975943475	3
8	738	1944.773949654688	3
8	742	1948.558407843685	2
8	748	1983.66670938471	1
8	750	1984.43627306884	2
8	753	1988.943174813553	3
8	758	1992.87248004456	1
8	760	1993.792383647937	2
8	764	2021.120040871594	1
8	768	2025.333446785742	2
8	773	2054.053071454524	1
8	776	2062.518611221697	1
8	778	2063.391034652114	2
8	780	2065.200412046749	3
8	782	2067.369660307153	4
8	787	2077.355952694257	2
8	789	2080.661174205752	3
8	791	2081.339312086223	4
8	793	2083.359432863404	5
8	808	2107.763453955233	5
8	815	2130.147397150886	1
8	817	2131.075723428299	2
8	821	2142.161567990562	1
8	824	2144.385352452261	1
8	828	2146.283239973336	2
8	830	2152.668933988442	3
8	836	2171.148276558928	1
8	839	2176.964284117084	1
8	844	2185.652321415968	2
8	848	2200.157511841202	1
8	851	2201.869038775595	1
8	853	2201.997293095396	2
8	855	2203.452852601386	3
8	863	2214.867934563696	4
8	865	2223.657100916351	5
8	868	2226.881252968874	6
8	870	2228.640744741857	7
8	878	2237.903645916445	8
8	880	2242.477657187887	9
8	883	2250.373639852665	10
8	892	2283.883901231491	7
8	894	2286.238464290669	8
8	903	2299.319823196942	9
8	906	2300.783069113227	9
8	911	2313.804224342733	7
8	915	2328.464642079065	8
8	920	2335.545418203672	7
8	924	2341.981072622497	6
8	927	2343.334747485083	6
8	929	2350.655980734442	7
8	931	2351.535681568716	8
8	936	2380.394249811124	8
8	938	2385.512245301738	9
8	942	2395.827166958937	9
8	953	2438.359583112643	4
8	958	2444.126573409002	4
8	961	2448.04074565643	5
8	963	2454.272997008193	6
8	966	2459.202377342599	6
8	968	2462.063629544418	7
8	971	2466.971518960638	7
8	976	2469.938873253385	5
8	980	2472.405728764313	4
8	982	2472.638354338712	5
8	986	2473.954007465772	6
9	133	353.910733801157	22
9	148	380.054828420859	23
9	149	391.979185852158	24
9	150	401.662618883856	25
9	151	401.697041748012	26
9	164	420.879949239616	27
9	167	423.971357355252	28
9	170	425.418424648065	29
9	193	467.231709653413	30
9	200	476.927876870097	31
9	207	496.460072377112	32
9	227	564.856637395874	33
9	233	567.252801840386	34
9	249	625.576110262628	35
9	256	642.489372306792	36
9	257	643.635741907801	37
9	265	672.266177848346	38
9	269	685.558175751294	39
9	280	731.124927352726	40
9	281	731.717499534335	41
9	285	743.161549942298	42
9	293	759.177876262176	43
9	297	777.550706412197	44
9	330	897.415822558949	45
9	337	906.028622918417	46
9	338	907.273356765954	47
9	353	935.387532914476	48
9	377	1003.136279701283	49
9	390	1017.775403424159	50
9	398	1043.665886744247	51
9	420	1083.76941020419	52
9	421	1085.166936596774	53
9	431	1115.500056987916	54
9	439	1127.442687398669	55
9	440	1133.959749138539	56
9	445	1146.756877829423	57
9	462	1198.344176761592	58
9	469	1226.086014528134	59
9	477	1244.14720597377	60
9	483	1262.428116616097	61
9	496	1292.211359799781	62
9	504	1351.040173979037	63
9	507	1373.579213635022	64
9	517	1424.627453709453	65
9	533	1457.259139945744	66
9	545	1483.367204125986	67
9	552	1502.131819807108	68
9	557	1511.452873526659	69
9	558	1511.84694097989	70
9	564	1522.181991551705	71
9	572	1531.583933483607	72
9	575	1536.337165965457	73
9	606	1601.230113091324	74
9	613	1610.12463090296	75
9	614	1611.072712093848	76
9	627	1624.130852589814	77
9	634	1639.354238528383	78
9	637	1641.421799914249	79
9	661	1697.117473277492	80
9	671	1735.698318081195	81
9	674	1750.762840823393	82
9	683	1776.372954358592	83
9	697	1807.901128931912	84
9	698	1808.579958642132	85
9	704	1827.367485190488	86
9	708	1833.735633141582	87
9	713	1852.234478153581	88
9	732	1928.131644184219	89
9	735	1935.547783186976	90
9	751	1985.140009245065	91
9	769	2025.932834930334	92
9	801	2099.432935480146	93
9	802	2100.105865088913	94
9	805	2103.531672816912	95
9	806	2105.672800558891	96
9	831	2154.44402418289	97
9	842	2183.681849176931	98
9	866	2224.826762476215	99
9	873	2232.549205421515	100
9	876	2234.928450320454	101
9	881	2247.044647407338	102
9	884	2255.109178436453	103
9	897	2289.021228290706	104
9	900	2294.163279424986	105
9	901	2295.853825940559	106
9	916	2333.694887817495	107
9	939	2385.725036938128	108
9	951	2437.879559107328	109
9	959	2444.700518931334	110
9	989	2478.579107021004	111
9	990	2479.15245083433	112
9	995	2485.637325160307	113
9	996	2490.269989406851	114
10	133	353.910733801157	2.999638452972
10	148	380.054828420859	13.664124287677
10	149	391.979185852158	20.805624540118
10	150	401.662618883856	23.842005897943
10	151	401.697041748012	23.727238875792
10	164	420.879949239616	14.289342853842
10	167	423.971357355252	6.354065806673
10	170	425.418424648065	1.515329076559
10	193	467.231709653413	0.010204318039
10	200	476.927876870097	2.757177691114
10	207	496.460072377112	0.488355376255
10	227	564.856637395874	3.266962768224
10	233	567.252801840386	1.61237549787
10	249	625.576110262628	11.049408957755
10	256	642.489372306792	27.234839812413
10	257	643.635741907801	11.586519388636
10	265	672.266177848346	1.302723010907
10	269	685.558175751294	1.303823756632
10	280	731.124927352726	21.714282799588
10	281	731.717499534335	1.097605943636
10	285	743.161549942298	1.916906212341
10	293	759.177876262176	2.548670351233
10	297	777.550706412197	0.003805112344
10	330	897.415822558949	10.704360193606
10	337	906.028622918417	5.838131329794
10	338	907.273356765954	4.020250459018
10	353	935.387532914476	6.816859959859
10	377	1003.136279701283	0.51282348616
10	390	1017.775403424159	1.890768152069
10	398	1043.665886744247	8.45284823579
10	420	1083.76941020419	33.623153696956
10	421	1085.166936596774	9.526607385564
10	431	1115.500056987916	1.445435243943
10	439	1127.442687398669	6.395112602075
10	440	1133.959749138539	9.291444435352
10	445	1146.756877829423	3.756159464041
10	462	1198.344176761592	5.079619878337
10	469	1226.086014528134	5.044668304183
10	477	1244.14720597377	3.973278054793
10	483	1262.428116616097	1.745120747021
10	496	1292.211359799781	1.579605425461
10	504	1351.040173979037	9.051490160857
10	507	1373.579213635022	6.121235189966
10	517	1424.627453709453	13.253520140005
10	533	1457.259139945744	13.091148117811
10	545	1483.367204125986	18.504969028245
10	552	1502.131819807108	31.741894621685
10	557	1511.452873526659	34.053566153802
10	558	1511.84694097989	17.148097121616
10	564	1522.181991551705	4.53169436622
10	572	1531.583933483607	7.268314313906
10	575	1536.337165965457	5.534701356426
10	606	1601.230113091324	0.12761235121
10	613	1610.12463090296	6.318790802788
10	614	1611.072712093848	4.370996164799
10	627	1624.130852589814	0.553582500222
10	634	1639.354238528383	9.328029648935
10	637	1641.421799914249	0.874792398927
10	661	1697.117473277492	1.623488318968
10	671	1735.698318081195	23.76629779172
10	674	1750.762840823393	19.048054483981
10	683	1776.372954358592	6.128095637587
10	697	1807.901128931912	5.046197072171
10	698	1808.579958642132	3.690597315898
10	704	1827.367485190488	2.477648225881
10	708	1833.735633141582	0.096062614133
10	713	1852.234478153581	9.502195318153
10	732	1928.131644184219	12.695034594686
10	735	1935.547783186976	18.658300834415
10	751	1985.140009245065	17.238282926376
10	769	2025.932834930334	4.296889950681
10	801	2099.432935480146	8.535648937835
10	802	2100.105865088913	3.054152452604
10	805	2103.531672816912	5.433949764944
10	806	2105.672800558891	2.797595614223
10	831	2154.44402418289	8.56194443556
10	842	2183.681849176931	6.222398690744
10	866	2224.826762476215	17.975993343355
10	873	2232.549205421515	24.299684940937
10	876	2234.928450320454	21.200310577113
10	881	2247.044647407338	16.581297602954
10	884	2255.109178436453	22.453666043955
10	897	2289.021228290706	6.524757279799
10	900	2294.163279424986	7.543603607287
10	901	2295.853825940559	4.793483164999
10	916	2333.694887817495	14.689843951884
10	939	2385.725036938128	26.982912145021
10	951	2437.879559107328	18.028966058273
10	959	2444.700518931334	2.092728569072
10	989	2478.579107021004	4.702853365608
10	990	2479.15245083433	3.994089964471
10	995	2485.637325160307	6.348091074946
10	996	2490.269989406851	5.216090594512
11	999	2500	0.0856
12	999	2500	0.0456

