version 2
run experiments_medium_game_mode1-767-20230311-09:42:37-12525
attr configname experiments_medium_game_mode1
attr datetime 20230311-09:42:37
attr experiment experiments_medium_game_mode1
attr inifile omnetpp.ini
attr iterationvars "$0=6, $1=5, $2=100"
attr iterationvarsf 6,5,100-
attr measurement "$0=6, $1=5, $2=100"
attr network Network
attr processid 12525
attr repetition 17
attr replication #17
attr resultdir results
attr runnumber 767
attr seedset 17
param *.boss.arrival_mean 20
param *.boss.service_mean 6
param *.minion.arrival_mean 10
param *.minion.service_mean 5
param *.player.recover_rate_x 100
param **.minion.arrival_distribution 0
param **.minion.service_distribution 0
param **.boss.arrival_distribution 0
param **.boss.service_distribution 0

vector 0 Network.player boss_jobs_number_stat:vector ETV
attr source signal_boss_jobs_number
vector 1 Network.player boss_jobs_queue_number_stat:vector ETV
attr source signal_boss_jobs_queue_number
vector 2 Network.player minion_jobs_number_stat:vector ETV
attr source signal_minion_jobs_number
vector 3 Network.player minion_jobs_queue_number_stat:vector ETV
attr source signal_minion_jobs_queue_number
vector 4 Network.player boss_defeated_stat:vector ETV
attr source signal_boss_defeated
vector 5 Network.player boss_response_time_stat:vector ETV
attr source signal_boss_response_time
vector 6 Network.player boss_waiting_time_stat:vector ETV
attr source signal_boss_waiting_time
vector 7 Network.player minion_waiting_time_stat:vector ETV
attr source signal_minion_waiting_time
vector 8 Network.player minion_defeated_stat:vector ETV
attr source signal_minion_defeated
vector 9 Network.player minion_response_time_stat:vector ETV
attr source signal_minion_response_time
vector 10 Network.player minion_recovered_stat:vector ETV
attr source signal_minion_recovered
vector 11 Network.player minion_throughput:vector ETV
attr source signal_minion_throughput
vector 12 Network.player boss_throughput:vector ETV
attr source signal_boss_throughput
0	155	350.171511211393	2
0	157	359.177002320821	3
0	162	365.26094743687	3
0	165	368.098189762035	3
0	179	385.995055935859	1
0	194	401.159380145501	1
0	202	408.580972013092	1
0	204	411.98303390355	2
0	206	412.876803304027	3
0	211	422.146072715288	3
0	216	446.775027194891	1
0	222	468.45014409572	1
0	225	472.544172029421	1
0	235	487.076176212721	1
0	238	491.308263830936	1
0	246	514.420445053881	1
0	261	540.977110483324	1
0	264	551.819681983572	1
0	266	554.511948886503	2
0	275	575.952425612315	1
0	278	583.288797401775	1
0	281	588.718100361583	1
0	303	643.125925376857	1
0	305	645.586996621865	2
0	335	730.571370209296	1
0	337	734.350173070654	2
0	371	810.658340050417	1
0	385	884.907727247863	1
0	387	887.721201712711	2
0	389	888.414522886148	3
0	391	888.512631947575	4
0	393	890.614748597704	5
0	408	921.637319564409	3
0	415	933.050810641064	1
0	429	955.511706174683	1
0	454	994.890497857697	1
0	456	1003.331701847225	2
0	467	1024.71278138575	1
0	470	1033.063840915732	1
0	473	1051.810539160986	1
0	481	1065.212657206365	1
0	484	1065.754729663329	1
0	488	1080.816328212444	2
0	503	1093.090213003979	1
0	551	1190.157796246335	1
0	555	1195.018006867426	2
0	566	1254.157083332267	1
0	581	1280.882010518192	1
0	584	1313.151903889802	1
0	592	1321.444395591257	2
0	594	1325.585896946281	3
0	601	1335.422098015786	1
0	604	1338.793171785704	1
0	609	1343.945698054676	1
0	611	1344.605648280557	2
0	613	1348.23718360817	3
0	618	1354.444723385226	1
0	621	1363.78207600242	1
0	624	1372.897775342055	1
0	628	1380.740144125913	1
0	652	1449.877692855951	1
0	655	1463.860393903988	1
0	660	1472.968465229854	1
0	668	1519.198196621634	1
0	672	1532.42682870514	2
0	681	1550.165412899953	1
0	685	1554.583269324379	2
0	695	1573.502541172078	1
0	719	1622.789686438765	1
0	721	1626.079452015312	2
0	725	1630.884862694327	3
0	727	1635.526245392597	4
0	734	1672.708889509399	1
0	745	1683.53909461402	1
0	748	1684.610946595907	1
0	752	1685.324302382972	2
0	756	1690.607090687069	1
0	758	1690.716656719464	2
0	772	1722.801084257979	1
0	782	1752.565669775121	1
0	785	1757.548582860074	1
0	803	1795.945836784854	1
0	809	1803.075119845715	1
0	834	1863.031907122048	1
0	839	1873.807397067592	1
0	842	1876.768904317585	1
0	855	1890.39997952919	1
0	859	1891.62937734553	1
0	864	1895.714537944116	1
0	870	1904.656803873486	2
0	875	1907.741361857288	2
0	877	1907.770545241994	3
0	880	1910.078089205621	3
0	892	1928.628792155236	1
0	902	1940.266183214219	1
0	915	1969.677378120698	1
0	935	2005.109057834261	1
0	951	2037.716048677079	1
0	968	2096.363142973599	1
0	970	2103.40630497504	2
0	977	2118.70735399252	2
0	985	2130.419533422778	1
0	995	2149.699629152779	1
0	1007	2180.406746134353	1
0	1014	2189.056782590741	1
0	1024	2208.817946604845	1
0	1039	2249.007462530087	1
0	1047	2267.540485069693	1
0	1057	2284.914111308136	1
0	1073	2303.01610025261	1
0	1097	2370.815889430469	1
0	1099	2386.415765345996	2
0	1120	2426.057704019991	1
0	1122	2426.901955418237	2
0	1126	2436.157063888962	3
0	1141	2467.123966566147	1
0	1147	2473.867866227238	1
0	1158	2489.726720628059	1
1	155	350.171511211393	1
1	157	359.177002320821	2
1	160	362.960292604355	2
1	162	365.26094743687	2
1	163	365.295609231997	2
1	165	368.098189762035	2
1	166	369.630390784119	2
1	169	377.196952439432	1
1	170	377.516367828848	0
1	179	385.995055935859	0
1	180	386.646131490618	0
1	194	401.159380145501	0
1	195	402.060229891119	0
1	202	408.580972013092	0
1	204	411.98303390355	1
1	206	412.876803304027	2
1	207	414.080076740254	2
1	211	422.146072715288	2
1	212	430.91170659463	2
1	213	431.790634527418	1
1	214	441.100072683078	0
1	216	446.775027194891	0
1	217	460.5459371041	0
1	222	468.45014409572	0
1	223	468.953436160665	0
1	225	472.544172029421	0
1	226	474.238407594854	0
1	235	487.076176212721	0
1	236	489.799717631695	0
1	238	491.308263830936	0
1	243	509.73056643868	0
1	246	514.420445053881	0
1	247	521.808914164684	0
1	261	540.977110483324	0
1	262	550.292353018392	0
1	264	551.819681983572	0
1	266	554.511948886503	1
1	267	558.490571589936	1
1	268	561.906538458181	0
1	275	575.952425612315	0
1	276	578.291782955057	0
1	278	583.288797401775	0
1	279	585.052008848344	0
1	281	588.718100361583	0
1	282	589.251752044665	0
1	303	643.125925376857	0
1	305	645.586996621865	1
1	306	645.913669099418	1
1	307	648.444710000695	0
1	335	730.571370209296	0
1	337	734.350173070654	1
1	338	735.626923125728	1
1	349	764.926406322644	0
1	371	810.658340050417	0
1	372	812.692708568316	0
1	385	884.907727247863	0
1	387	887.721201712711	1
1	389	888.414522886148	2
1	391	888.512631947575	3
1	393	890.614748597704	4
1	394	891.491138357315	4
1	399	903.263488830976	3
1	404	914.126908111486	2
1	408	921.637319564409	2
1	411	929.799800778491	2
1	412	930.249423375235	1
1	413	930.47876603627	0
1	415	933.050810641064	0
1	418	934.487141518579	0
1	429	955.511706174683	0
1	430	957.86181000376	0
1	454	994.890497857697	0
1	456	1003.331701847225	1
1	459	1006.900145428588	1
1	462	1009.373649590272	0
1	467	1024.71278138575	0
1	468	1032.82821327738	0
1	470	1033.063840915732	0
1	471	1038.982650018356	0
1	473	1051.810539160986	0
1	476	1056.643450543443	0
1	481	1065.212657206365	0
1	482	1065.683560050866	0
1	484	1065.754729663329	0
1	488	1080.816328212444	1
1	497	1087.787989922434	1
1	498	1089.329140937417	0
1	503	1093.090213003979	0
1	504	1093.770944949926	0
1	551	1190.157796246335	0
1	555	1195.018006867426	1
1	558	1205.36515902424	1
1	559	1213.240452797168	0
1	566	1254.157083332267	0
1	567	1255.912661475028	0
1	581	1280.882010518192	0
1	582	1283.076015666581	0
1	584	1313.151903889802	0
1	592	1321.444395591257	1
1	594	1325.585896946281	2
1	595	1325.721982503615	2
1	598	1330.828832552976	1
1	599	1332.890793138431	0
1	601	1335.422098015786	0
1	602	1335.957969122644	0
1	604	1338.793171785704	0
1	605	1340.41006768701	0
1	609	1343.945698054676	0
1	611	1344.605648280557	1
1	613	1348.23718360817	2
1	614	1349.79768983816	2
1	615	1351.024470993164	1
1	616	1351.066791552432	0
1	618	1354.444723385226	0
1	619	1355.330274832044	0
1	621	1363.78207600242	0
1	622	1368.962664938456	0
1	624	1372.897775342055	0
1	625	1376.857146720454	0
1	628	1380.740144125913	0
1	633	1393.760343961165	0
1	652	1449.877692855951	0
1	653	1457.749101163986	0
1	655	1463.860393903988	0
1	656	1466.767773490155	0
1	660	1472.968465229854	0
1	661	1481.741443110711	0
1	668	1519.198196621634	0
1	672	1532.42682870514	1
1	675	1533.493535446027	1
1	676	1535.718137258034	0
1	681	1550.165412899953	0
1	685	1554.583269324379	1
1	686	1561.558024604679	1
1	691	1568.682634463337	0
1	695	1573.502541172078	0
1	696	1581.469909845555	0
1	719	1622.789686438765	0
1	721	1626.079452015312	1
1	725	1630.884862694327	2
1	727	1635.526245392597	3
1	728	1640.758009786842	3
1	729	1644.555708442816	2
1	730	1649.082849123079	1
1	731	1652.663160783419	0
1	734	1672.708889509399	0
1	735	1675.970779008949	0
1	745	1683.53909461402	0
1	746	1684.451048289371	0
1	748	1684.610946595907	0
1	752	1685.324302382972	1
1	753	1689.603232717926	1
1	754	1690.51994392804	0
1	756	1690.607090687069	0
1	758	1690.716656719464	1
1	763	1699.470251080958	1
1	764	1700.533350704873	0
1	772	1722.801084257979	0
1	773	1726.229313260681	0
1	782	1752.565669775121	0
1	783	1753.440314890518	0
1	785	1757.548582860074	0
1	786	1765.008775890923	0
1	803	1795.945836784854	0
1	804	1801.350279307438	0
1	809	1803.075119845715	0
1	810	1810.277501729617	0
1	834	1863.031907122048	0
1	835	1863.642916259172	0
1	839	1873.807397067592	0
1	840	1874.848645880066	0
1	842	1876.768904317585	0
1	845	1877.686207892478	0
1	855	1890.39997952919	0
1	856	1890.483212493584	0
1	859	1891.62937734553	0
1	860	1893.000524699179	0
1	864	1895.714537944116	0
1	870	1904.656803873486	1
1	873	1907.393265020597	1
1	875	1907.741361857288	1
1	877	1907.770545241994	2
1	878	1907.817878704407	2
1	880	1910.078089205621	2
1	883	1912.615696495996	2
1	884	1917.076803302353	1
1	885	1917.572396888307	0
1	892	1928.628792155236	0
1	895	1931.088385346846	0
1	902	1940.266183214219	0
1	903	1944.905075980103	0
1	915	1969.677378120698	0
1	918	1975.123273734619	0
1	935	2005.109057834261	0
1	936	2006.860451985843	0
1	951	2037.716048677079	0
1	960	2066.596769654531	0
1	968	2096.363142973599	0
1	970	2103.40630497504	1
1	975	2118.641425595597	1
1	977	2118.70735399252	1
1	982	2126.951496886854	1
1	983	2128.812063633601	0
1	985	2130.419533422778	0
1	986	2132.931583539927	0
1	995	2149.699629152779	0
1	998	2155.405422671796	0
1	1007	2180.406746134353	0
1	1012	2184.018275399195	0
1	1014	2189.056782590741	0
1	1015	2190.567278704946	0
1	1024	2208.817946604845	0
1	1025	2211.106264442488	0
1	1039	2249.007462530087	0
1	1040	2249.964557063271	0
1	1047	2267.540485069693	0
1	1050	2268.624960580085	0
1	1057	2284.914111308136	0
1	1058	2288.494760710787	0
1	1073	2303.01610025261	0
1	1074	2304.732823119631	0
1	1097	2370.815889430469	0
1	1099	2386.415765345996	1
1	1104	2392.199140151579	1
1	1105	2392.206249554519	0
1	1120	2426.057704019991	0
1	1122	2426.901955418237	1
1	1126	2436.157063888962	2
1	1131	2446.102834556907	2
1	1132	2449.036824529119	1
1	1133	2449.822536085878	0
1	1141	2467.123966566147	0
1	1144	2468.432795628049	0
1	1147	2473.867866227238	0
1	1148	2476.592319579263	0
1	1158	2489.726720628059	0
1	1159	2492.620941624023	0
2	159	361.587814466951	6
2	168	370.517362617564	7
2	172	381.15031939228	8
2	175	383.000106765623	8
2	177	385.205731859589	9
2	182	387.231673826958	10
2	186	391.467645020652	9
2	188	391.790327657756	10
2	191	400.240274676465	10
2	197	402.849031992676	10
2	200	408.277538686361	10
2	209	415.825879056699	11
2	220	468.003348668458	11
2	229	479.777162500302	11
2	240	497.643032871097	8
2	242	501.06747342256	9
2	251	529.720340730688	7
2	253	530.664543745399	8
2	271	564.630861679177	2
2	284	607.060157196228	1
2	286	608.817100002223	2
2	290	623.652681534036	1
2	293	626.268215411257	1
2	296	634.226339513972	1
2	299	641.269760757948	1
2	301	642.992641513097	2
2	309	649.251260264539	3
2	314	663.131940718352	1
2	316	670.373604627643	2
2	318	677.811581296454	3
2	320	681.325147848155	4
2	326	697.713954861291	1
2	329	705.670589228675	1
2	332	718.278332535994	1
2	340	739.370792297982	1
2	342	739.531013032072	2
2	344	741.885813294221	3
2	346	749.08452382733	4
2	348	755.707301090235	5
2	352	766.887371715564	5
2	355	771.70993267628	5
2	360	783.247208959	3
2	365	793.563616539954	1
2	368	800.22497064418	1
2	374	814.985995901723	1
2	377	876.737061601873	1
2	380	880.263351200228	1
2	383	884.715060646702	1
2	396	893.057995720692	2
2	398	897.621565833426	3
2	401	904.687267680435	4
2	403	906.148189442126	5
2	406	919.461424773194	6
2	410	923.468924505841	7
2	417	933.372035396762	8
2	421	935.239130551037	8
2	426	947.361177466021	6
2	435	965.713394902006	3
2	437	969.144301495477	4
2	439	978.446267412114	5
2	441	979.290949837497	6
2	445	985.367248631966	5
2	451	991.916379502635	2
2	458	1004.036309392494	2
2	461	1007.313294854891	3
2	475	1055.253222836611	1
2	479	1064.332896723178	1
2	486	1074.458734162069	2
2	490	1084.73509076389	3
2	492	1084.920010614221	4
2	494	1085.344176726577	5
2	496	1086.847302578806	6
2	500	1090.993272535036	7
2	509	1101.359118887311	4
2	511	1102.726871690193	5
2	513	1102.773859650864	6
2	515	1102.808703067666	7
2	517	1103.558692577001	8
2	519	1105.49852764354	9
2	521	1113.898576141939	10
2	524	1118.218172902397	10
2	527	1129.286243436009	10
2	533	1149.330667512377	7
2	539	1168.132939327389	4
2	542	1177.257572825815	4
2	544	1180.200759868871	5
2	546	1180.363532954243	6
2	553	1193.696432415785	4
2	557	1198.036362909496	5
2	569	1256.80320130424	1
2	572	1262.57149398774	1
2	574	1262.817832895913	2
2	576	1264.443793757312	3
2	586	1316.827869198588	1
2	588	1316.836966825172	2
2	590	1317.891645213725	3
2	597	1325.964751757203	4
2	607	1341.896319704022	5
2	630	1390.713665924599	5
2	632	1391.491145976173	6
2	640	1432.109599366781	2
2	642	1435.424498503776	3
2	644	1435.451453764455	4
2	646	1436.34740156385	5
2	658	1470.537153083715	2
2	664	1494.538245268396	2
2	670	1520.42257571502	1
2	674	1533.240568147096	2
2	678	1537.392676850934	3
2	683	1552.745797621676	3
2	688	1564.909420616986	4
2	690	1566.697454731817	5
2	693	1571.139574914787	6
2	701	1591.272968515485	4
2	705	1595.182544280602	3
2	707	1596.777140918567	4
2	713	1617.910615571711	1
2	716	1622.429547964932	1
2	723	1629.439667213029	1
2	737	1676.568257126997	1
2	740	1680.26691701325	1
2	742	1681.635368076538	2
2	750	1685.2420606866	2
2	760	1693.214085867151	3
2	762	1693.850338585547	4
2	766	1705.365906575477	5
2	775	1727.738594423032	2
2	779	1737.523578243873	1
2	788	1776.48107159176	1
2	791	1781.898375840307	1
2	793	1783.251380516264	2
2	795	1783.408564707176	3
2	798	1787.876282173172	3
2	800	1792.56691716898	4
2	806	1802.089588050119	4
2	812	1812.408404696471	4
2	817	1820.014028729581	2
2	819	1820.596842822519	3
2	822	1824.037007746774	3
2	827	1843.87114111351	1
2	830	1853.396838359014	1
2	832	1858.475513299252	2
2	844	1876.886942893869	1
2	847	1886.063619410735	2
2	849	1888.644437598973	3
2	851	1888.850596083817	4
2	862	1893.65186083956	2
2	866	1902.201910201055	3
2	868	1904.594850998163	4
2	872	1907.186420434709	5
2	882	1911.280504890157	6
2	888	1918.455621373657	6
2	890	1922.630736722385	7
2	894	1931.007132665202	8
2	897	1932.733605221341	9
2	900	1939.881984605495	9
2	906	1954.337475071124	9
2	909	1961.404136305048	9
2	913	1967.826872257726	8
2	917	1973.977769645519	9
2	921	1980.79880086202	9
2	925	1988.646059310834	8
2	927	1990.289519978881	9
2	931	1998.882624034751	8
2	940	2010.24701442697	5
2	942	2010.606594549351	6
2	946	2028.407657464782	5
2	949	2030.619084909051	5
2	953	2046.884535755182	6
2	955	2049.934755867752	7
2	957	2053.073870204826	8
2	959	2063.536240371679	9
2	962	2068.179391804684	10
2	972	2106.24467890276	7
2	974	2111.67201245948	8
2	979	2124.276576918475	9
2	981	2126.00628669928	10
2	989	2137.727488543402	10
2	993	2145.095894681443	9
2	997	2151.587321290818	10
2	1000	2157.587890184407	11
2	1002	2167.761515143486	12
2	1009	2181.83866788825	10
2	1011	2182.998930779226	11
2	1017	2191.379152475978	12
2	1022	2207.518507673308	10
2	1029	2218.373340417633	9
2	1043	2262.688833919648	1
2	1045	2266.771277960554	2
2	1049	2268.14123197056	3
2	1053	2274.229981918126	3
2	1061	2295.928009914854	1
2	1064	2299.367600235415	1
2	1067	2300.503154335507	1
2	1069	2301.724759587071	2
2	1071	2301.953157066354	3
2	1077	2314.502394381873	3
2	1079	2315.683588688348	4
2	1085	2339.842619891371	1
2	1087	2342.657497307074	2
2	1089	2344.823868400702	3
2	1094	2364.105097919066	1
2	1101	2391.771816139766	1
2	1103	2391.87833102605	2
2	1107	2397.644739807356	3
2	1109	2398.975566228828	4
2	1111	2399.368096068654	5
2	1113	2402.805214477881	6
2	1115	2409.673769388734	7
2	1118	2417.435661793298	7
2	1124	2436.107939185418	8
2	1128	2437.320281692505	9
2	1130	2440.299984748182	10
2	1135	2455.702516081559	11
2	1138	2465.779298357275	11
2	1143	2468.035048194316	11
2	1151	2480.2962639258	10
2	1153	2486.133993132066	11
2	1156	2488.977018924844	11
3	159	361.587814466951	5
3	168	370.517362617564	6
3	172	381.15031939228	7
3	173	382.891344365641	7
3	175	383.000106765623	7
3	177	385.205731859589	8
3	182	387.231673826958	9
3	183	388.637294856642	9
3	184	389.169579719749	8
3	186	391.467645020652	8
3	188	391.790327657756	9
3	189	392.345343769379	9
3	191	400.240274676465	9
3	192	400.793884232121	9
3	197	402.849031992676	9
3	198	406.737580291961	9
3	200	408.277538686361	9
3	209	415.825879056699	10
3	218	467.879933834848	10
3	220	468.003348668458	10
3	227	478.009591389055	10
3	229	479.777162500302	10
3	230	481.159793049689	10
3	231	482.024935207464	9
3	232	483.758774306643	8
3	233	486.977988347465	7
3	240	497.643032871097	7
3	242	501.06747342256	8
3	244	514.110196466638	8
3	248	524.735734856205	7
3	249	528.77538971348	6
3	251	529.720340730688	6
3	253	530.664543745399	7
3	254	534.443785826034	7
3	255	534.61422571084	6
3	256	534.832374001859	5
3	257	538.899896712091	4
3	258	540.229230223192	3
3	259	540.237457700533	2
3	269	564.042440497722	1
3	271	564.630861679177	1
3	272	569.284363156024	1
3	273	569.290335669358	0
3	284	607.060157196228	0
3	286	608.817100002223	1
3	287	609.891254265553	1
3	288	614.041647093421	0
3	290	623.652681534036	0
3	291	626.105070860447	0
3	293	626.268215411257	0
3	294	626.423467939735	0
3	296	634.226339513972	0
3	297	636.269536745886	0
3	299	641.269760757948	0
3	301	642.992641513097	1
3	309	649.251260264539	2
3	310	652.044446824358	2
3	311	657.891981773563	1
3	312	661.205421239285	0
3	314	663.131940718352	0
3	316	670.373604627643	1
3	318	677.811581296454	2
3	320	681.325147848155	3
3	321	685.119111974133	3
3	322	687.160096578703	2
3	323	690.944946302201	1
3	324	696.58475439424	0
3	326	697.713954861291	0
3	327	703.417945936022	0
3	329	705.670589228675	0
3	330	706.352676698001	0
3	332	718.278332535994	0
3	333	720.759123894011	0
3	340	739.370792297982	0
3	342	739.531013032072	1
3	344	741.885813294221	2
3	346	749.08452382733	3
3	348	755.707301090235	4
3	350	766.282538514883	4
3	352	766.887371715564	4
3	353	766.902176498303	4
3	355	771.70993267628	4
3	356	773.596420061136	4
3	357	779.738186914545	3
3	358	780.708837229671	2
3	360	783.247208959	2
3	361	783.377740075281	2
3	362	786.609747621652	1
3	363	789.654081427965	0
3	365	793.563616539954	0
3	366	796.628892877223	0
3	368	800.22497064418	0
3	369	802.241950935576	0
3	374	814.985995901723	0
3	375	815.852825228986	0
3	377	876.737061601873	0
3	378	877.229070228924	0
3	380	880.263351200228	0
3	381	880.451219450446	0
3	383	884.715060646702	0
3	396	893.057995720692	1
3	398	897.621565833426	2
3	401	904.687267680435	3
3	403	906.148189442126	4
3	406	919.461424773194	5
3	410	923.468924505841	6
3	417	933.372035396762	7
3	419	934.5438718562	7
3	421	935.239130551037	7
3	422	942.738022938589	7
3	423	945.681005217628	6
3	424	946.756319199904	5
3	426	947.361177466021	5
3	427	953.24129360103	5
3	431	958.73888871595	4
3	432	962.955486499476	3
3	433	964.014758570464	2
3	435	965.713394902006	2
3	437	969.144301495477	3
3	439	978.446267412114	4
3	441	979.290949837497	5
3	442	983.804929540539	5
3	443	985.284539654012	4
3	445	985.367248631966	4
3	446	985.679115372487	4
3	447	990.817128164652	3
3	448	990.97968065622	2
3	449	991.290741179148	1
3	451	991.916379502635	1
3	452	992.117801131314	1
3	458	1004.036309392494	1
3	461	1007.313294854891	2
3	463	1010.592394846674	2
3	464	1012.078310290167	1
3	465	1016.558316339023	0
3	475	1055.253222836611	0
3	477	1057.002938302259	0
3	479	1064.332896723178	0
3	486	1074.458734162069	1
3	490	1084.73509076389	2
3	492	1084.920010614221	3
3	494	1085.344176726577	4
3	496	1086.847302578806	5
3	500	1090.993272535036	6
3	501	1092.392938149234	6
3	505	1094.939821250163	5
3	506	1098.895009806929	4
3	507	1099.218551716822	3
3	509	1101.359118887311	3
3	511	1102.726871690193	4
3	513	1102.773859650864	5
3	515	1102.808703067666	6
3	517	1103.558692577001	7
3	519	1105.49852764354	8
3	521	1113.898576141939	9
3	522	1116.319846387499	9
3	524	1118.218172902397	9
3	525	1118.706930770011	9
3	527	1129.286243436009	9
3	528	1131.769287063665	9
3	529	1143.149418022272	8
3	530	1144.266224556424	7
3	531	1146.746321908747	6
3	533	1149.330667512377	6
3	534	1154.291501124228	6
3	535	1156.67176840288	5
3	536	1162.115415173752	4
3	537	1167.387067963766	3
3	539	1168.132939327389	3
3	540	1172.097258797401	3
3	542	1177.257572825815	3
3	544	1180.200759868871	4
3	546	1180.363532954243	5
3	547	1181.796643362698	5
3	548	1185.266106897252	4
3	549	1188.192518726445	3
3	553	1193.696432415785	3
3	557	1198.036362909496	4
3	560	1217.045464584275	4
3	561	1220.116265636448	3
3	562	1220.190014816413	2
3	563	1221.079179533517	1
3	564	1231.820345262232	0
3	569	1256.80320130424	0
3	570	1260.853388285356	0
3	572	1262.57149398774	0
3	574	1262.817832895913	1
3	576	1264.443793757312	2
3	577	1264.880142704391	2
3	578	1265.558010932757	1
3	579	1268.474102385326	0
3	586	1316.827869198588	0
3	588	1316.836966825172	1
3	590	1317.891645213725	2
3	597	1325.964751757203	3
3	607	1341.896319704022	4
3	626	1378.650861591633	4
3	630	1390.713665924599	4
3	632	1391.491145976173	5
3	634	1395.997540052971	5
3	635	1405.071597322092	4
3	636	1405.361018547913	3
3	637	1424.781764041283	2
3	638	1429.949620373522	1
3	640	1432.109599366781	1
3	642	1435.424498503776	2
3	644	1435.451453764455	3
3	646	1436.34740156385	4
3	647	1437.289867027719	4
3	648	1439.627049401056	3
3	649	1441.496518423396	2
3	650	1441.642060541453	1
3	658	1470.537153083715	1
3	662	1488.337419351706	1
3	664	1494.538245268396	1
3	665	1498.599338485873	1
3	666	1500.250742739896	0
3	670	1520.42257571502	0
3	674	1533.240568147096	1
3	678	1537.392676850934	2
3	679	1545.989598375023	2
3	683	1552.745797621676	2
3	688	1564.909420616986	3
3	690	1566.697454731817	4
3	693	1571.139574914787	5
3	697	1583.958232978157	5
3	698	1586.795863522558	4
3	699	1590.59989334424	3
3	701	1591.272968515485	3
3	702	1593.193161044888	3
3	703	1594.695195326542	2
3	705	1595.182544280602	2
3	707	1596.777140918567	3
3	708	1600.926552091099	3
3	709	1605.276194527542	2
3	710	1612.966063556895	1
3	711	1617.443373538439	0
3	713	1617.910615571711	0
3	714	1621.775778117704	0
3	716	1622.429547964932	0
3	717	1622.729270542265	0
3	723	1629.439667213029	0
3	732	1653.105334105468	0
3	737	1676.568257126997	0
3	738	1679.299137518051	0
3	740	1680.26691701325	0
3	742	1681.635368076538	1
3	743	1681.986859426001	1
3	750	1685.2420606866	1
3	760	1693.214085867151	2
3	762	1693.850338585547	3
3	766	1705.365906575477	4
3	767	1706.904640864896	4
3	768	1712.424943447998	3
3	769	1712.534648408215	2
3	770	1720.328320405464	1
3	775	1727.738594423032	1
3	776	1731.121975396299	1
3	777	1732.987137337068	0
3	779	1737.523578243873	0
3	780	1739.025625092766	0
3	788	1776.48107159176	0
3	789	1779.509290775604	0
3	791	1781.898375840307	0
3	793	1783.251380516264	1
3	795	1783.408564707176	2
3	796	1785.554041922625	2
3	798	1787.876282173172	2
3	800	1792.56691716898	3
3	801	1793.842318020869	3
3	806	1802.089588050119	3
3	807	1802.121409693389	3
3	812	1812.408404696471	3
3	813	1813.126556310037	3
3	814	1816.623540764911	2
3	815	1818.483347354508	1
3	817	1820.014028729581	1
3	819	1820.596842822519	2
3	820	1821.057700455579	2
3	822	1824.037007746774	2
3	823	1824.52692480763	2
3	824	1824.87128756014	1
3	825	1825.031867146963	0
3	827	1843.87114111351	0
3	828	1845.172181307998	0
3	830	1853.396838359014	0
3	832	1858.475513299252	1
3	836	1863.647958487527	1
3	837	1868.376788341148	0
3	844	1876.886942893869	0
3	847	1886.063619410735	1
3	849	1888.644437598973	2
3	851	1888.850596083817	3
3	852	1889.129832342487	3
3	853	1890.214848437768	2
3	857	1891.088084551798	1
3	862	1893.65186083956	1
3	866	1902.201910201055	2
3	868	1904.594850998163	3
3	872	1907.186420434709	4
3	882	1911.280504890157	5
3	886	1918.33911667403	5
3	888	1918.455621373657	5
3	890	1922.630736722385	6
3	894	1931.007132665202	7
3	897	1932.733605221341	8
3	898	1933.874666620791	8
3	900	1939.881984605495	8
3	904	1952.048955209962	8
3	906	1954.337475071124	8
3	907	1958.352397852966	8
3	909	1961.404136305048	8
3	910	1964.696398147609	8
3	911	1964.733553666437	7
3	913	1967.826872257726	7
3	917	1973.977769645519	8
3	919	1979.930272664757	8
3	921	1980.79880086202	8
3	922	1981.302996404698	8
3	923	1982.84533956505	7
3	925	1988.646059310834	7
3	927	1990.289519978881	8
3	928	1991.928982241548	8
3	929	1993.787855213102	7
3	931	1998.882624034751	7
3	932	1999.404248533359	7
3	933	2004.734275348229	6
3	937	2007.90937046066	5
3	938	2008.631753198505	4
3	940	2010.24701442697	4
3	942	2010.606594549351	5
3	943	2015.07323835671	5
3	944	2025.565032502914	4
3	946	2028.407657464782	4
3	947	2030.370021350767	4
3	949	2030.619084909051	4
3	953	2046.884535755182	5
3	955	2049.934755867752	6
3	957	2053.073870204826	7
3	959	2063.536240371679	8
3	962	2068.179391804684	9
3	963	2075.549971626702	9
3	964	2080.204249768232	8
3	965	2080.511337040667	7
3	966	2086.381144601625	6
3	972	2106.24467890276	6
3	974	2111.67201245948	7
3	979	2124.276576918475	8
3	981	2126.00628669928	9
3	987	2136.818048746951	9
3	989	2137.727488543402	9
3	990	2139.375431586822	9
3	991	2143.764514313508	8
3	993	2145.095894681443	8
3	997	2151.587321290818	9
3	1000	2157.587890184407	10
3	1002	2167.761515143486	11
3	1003	2172.806800395298	11
3	1004	2177.440598549762	10
3	1005	2179.590973653206	9
3	1009	2181.83866788825	9
3	1011	2182.998930779226	10
3	1017	2191.379152475978	11
3	1018	2193.168193237427	11
3	1019	2202.981409050752	10
3	1020	2204.427413180074	9
3	1022	2207.518507673308	9
3	1026	2211.453795432208	9
3	1027	2217.127832333591	8
3	1029	2218.373340417633	8
3	1030	2226.471371458742	8
3	1031	2227.940447387415	7
3	1032	2228.070881146969	6
3	1033	2232.241948240154	5
3	1034	2235.67753203948	4
3	1035	2238.25288816623	3
3	1036	2239.548103825826	2
3	1037	2244.833392397574	1
3	1041	2261.895411119616	0
3	1043	2262.688833919648	0
3	1045	2266.771277960554	1
3	1049	2268.14123197056	2
3	1051	2269.321028320494	2
3	1053	2274.229981918126	2
3	1054	2278.252872950525	2
3	1055	2282.57339264766	1
3	1059	2292.481537987763	0
3	1061	2295.928009914854	0
3	1062	2296.278953224511	0
3	1064	2299.367600235415	0
3	1065	2299.693029292725	0
3	1067	2300.503154335507	0
3	1069	2301.724759587071	1
3	1071	2301.953157066354	2
3	1075	2307.121894071884	2
3	1077	2314.502394381873	2
3	1079	2315.683588688348	3
3	1080	2318.491518106039	3
3	1081	2326.570180396775	2
3	1082	2327.700278009667	1
3	1083	2330.425360039882	0
3	1085	2339.842619891371	0
3	1087	2342.657497307074	1
3	1089	2344.823868400702	2
3	1090	2347.684429808045	2
3	1091	2351.700231443193	1
3	1092	2355.739925855412	0
3	1094	2364.105097919066	0
3	1095	2368.961155479533	0
3	1101	2391.771816139766	0
3	1103	2391.87833102605	1
3	1107	2397.644739807356	2
3	1109	2398.975566228828	3
3	1111	2399.368096068654	4
3	1113	2402.805214477881	5
3	1115	2409.673769388734	6
3	1116	2414.439626806293	6
3	1118	2417.435661793298	6
3	1124	2436.107939185418	7
3	1128	2437.320281692505	8
3	1130	2440.299984748182	9
3	1135	2455.702516081559	10
3	1136	2460.468987044685	10
3	1138	2465.779298357275	10
3	1139	2465.946088483763	10
3	1143	2468.035048194316	10
3	1145	2471.393575745916	10
3	1149	2477.863252937163	9
3	1151	2480.2962639258	9
3	1153	2486.133993132066	10
3	1154	2487.318932614094	10
3	1156	2488.977018924844	10
4	160	362.960292604355	20
4	163	365.295609231997	21
4	166	369.630390784119	22
4	169	377.196952439432	23
4	170	377.516367828848	24
4	180	386.646131490618	25
4	195	402.060229891119	26
4	207	414.080076740254	27
4	212	430.91170659463	28
4	213	431.790634527418	29
4	214	441.100072683078	30
4	217	460.5459371041	31
4	223	468.953436160665	32
4	226	474.238407594854	33
4	236	489.799717631695	34
4	243	509.73056643868	35
4	247	521.808914164684	36
4	262	550.292353018392	37
4	267	558.490571589936	38
4	268	561.906538458181	39
4	276	578.291782955057	40
4	279	585.052008848344	41
4	282	589.251752044665	42
4	306	645.913669099418	43
4	307	648.444710000695	44
4	338	735.626923125728	45
4	349	764.926406322644	46
4	372	812.692708568316	47
4	394	891.491138357315	48
4	399	903.263488830976	49
4	404	914.126908111486	50
4	411	929.799800778491	51
4	412	930.249423375235	52
4	413	930.47876603627	53
4	418	934.487141518579	54
4	430	957.86181000376	55
4	459	1006.900145428588	56
4	462	1009.373649590272	57
4	468	1032.82821327738	58
4	471	1038.982650018356	59
4	476	1056.643450543443	60
4	482	1065.683560050866	61
4	497	1087.787989922434	62
4	498	1089.329140937417	63
4	504	1093.770944949926	64
4	558	1205.36515902424	65
4	559	1213.240452797168	66
4	567	1255.912661475028	67
4	582	1283.076015666581	68
4	595	1325.721982503615	69
4	598	1330.828832552976	70
4	599	1332.890793138431	71
4	602	1335.957969122644	72
4	605	1340.41006768701	73
4	614	1349.79768983816	74
4	615	1351.024470993164	75
4	616	1351.066791552432	76
4	619	1355.330274832044	77
4	622	1368.962664938456	78
4	625	1376.857146720454	79
4	633	1393.760343961165	80
4	653	1457.749101163986	81
4	656	1466.767773490155	82
4	661	1481.741443110711	83
4	675	1533.493535446027	84
4	676	1535.718137258034	85
4	686	1561.558024604679	86
4	691	1568.682634463337	87
4	696	1581.469909845555	88
4	728	1640.758009786842	89
4	729	1644.555708442816	90
4	730	1649.082849123079	91
4	731	1652.663160783419	92
4	735	1675.970779008949	93
4	746	1684.451048289371	94
4	753	1689.603232717926	95
4	754	1690.51994392804	96
4	763	1699.470251080958	97
4	764	1700.533350704873	98
4	773	1726.229313260681	99
4	783	1753.440314890518	100
4	786	1765.008775890923	101
4	804	1801.350279307438	102
4	810	1810.277501729617	103
4	835	1863.642916259172	104
4	840	1874.848645880066	105
4	845	1877.686207892478	106
4	856	1890.483212493584	107
4	860	1893.000524699179	108
4	873	1907.393265020597	109
4	878	1907.817878704407	110
4	883	1912.615696495996	111
4	884	1917.076803302353	112
4	885	1917.572396888307	113
4	895	1931.088385346846	114
4	903	1944.905075980103	115
4	918	1975.123273734619	116
4	936	2006.860451985843	117
4	960	2066.596769654531	118
4	975	2118.641425595597	119
4	982	2126.951496886854	120
4	983	2128.812063633601	121
4	986	2132.931583539927	122
4	998	2155.405422671796	123
4	1012	2184.018275399195	124
4	1015	2190.567278704946	125
4	1025	2211.106264442488	126
4	1040	2249.964557063271	127
4	1050	2268.624960580085	128
4	1058	2288.494760710787	129
4	1074	2304.732823119631	130
4	1104	2392.199140151579	131
4	1105	2392.206249554519	132
4	1131	2446.102834556907	133
4	1132	2449.036824529119	134
4	1133	2449.822536085878	135
4	1144	2468.432795628049	136
4	1148	2476.592319579263	137
4	1159	2492.620941624023	138
5	160	362.960292604355	21.8133508489
5	163	365.295609231997	15.124098020604
5	166	369.630390784119	10.453388463298
5	169	377.196952439432	11.936005002562
5	170	377.516367828848	9.418178066813
5	180	386.646131490618	0.651075554759
5	195	402.060229891119	0.900849745618
5	207	414.080076740254	5.499104727162
5	212	430.91170659463	18.92867269108
5	213	431.790634527418	18.913831223391
5	214	441.100072683078	18.95399996779
5	217	460.5459371041	13.770909909209
5	223	468.953436160665	0.503292064945
5	226	474.238407594854	1.694235565433
5	236	489.799717631695	2.723541418974
5	243	509.73056643868	18.422302607744
5	247	521.808914164684	7.388469110803
5	262	550.292353018392	9.315242535068
5	267	558.490571589936	6.670889606364
5	268	561.906538458181	7.394589571678
5	276	578.291782955057	2.339357342742
5	279	585.052008848344	1.763211446569
5	282	589.251752044665	0.533651683082
5	306	645.913669099418	2.787743722561
5	307	648.444710000695	2.85771337883
5	338	735.626923125728	5.055552916432
5	349	764.926406322644	30.57623325199
5	372	812.692708568316	2.034368517899
5	394	891.491138357315	6.583411109452
5	399	903.263488830976	15.542287118265
5	404	914.126908111486	25.712385225338
5	411	929.799800778491	41.287168830916
5	412	930.249423375235	39.634674777531
5	413	930.47876603627	8.841446471861
5	418	934.487141518579	1.436330877515
5	430	957.86181000376	2.350103829077
5	459	1006.900145428588	12.009647570891
5	462	1009.373649590272	6.041947743047
5	468	1032.82821327738	8.11543189163
5	471	1038.982650018356	5.918809102624
5	476	1056.643450543443	4.832911382457
5	482	1065.683560050866	0.470902844501
5	497	1087.787989922434	22.033260259105
5	498	1089.329140937417	8.512812724973
5	504	1093.770944949926	0.680731945947
5	558	1205.36515902424	15.207362777905
5	559	1213.240452797168	18.222445929742
5	567	1255.912661475028	1.755578142761
5	582	1283.076015666581	2.194005148389
5	595	1325.721982503615	12.570078613813
5	598	1330.828832552976	9.384436961719
5	599	1332.890793138431	7.30489619215
5	602	1335.957969122644	0.535871106858
5	605	1340.41006768701	1.616895901306
5	614	1349.79768983816	5.851991783484
5	615	1351.024470993164	6.418822712607
5	616	1351.066791552432	2.829607944262
5	619	1355.330274832044	0.885551446818
5	622	1368.962664938456	5.180588936036
5	625	1376.857146720454	3.959371378399
5	633	1393.760343961165	13.020199835252
5	653	1457.749101163986	7.871408308035
5	656	1466.767773490155	2.907379586167
5	661	1481.741443110711	8.772977880857
5	675	1533.493535446027	14.295338824393
5	676	1535.718137258034	3.291308552894
5	686	1561.558024604679	11.392611704726
5	691	1568.682634463337	14.099365138958
5	696	1581.469909845555	7.967368673477
5	728	1640.758009786842	17.968323348077
5	729	1644.555708442816	18.476256427504
5	730	1649.082849123079	18.197986428752
5	731	1652.663160783419	17.136915390822
5	735	1675.970779008949	3.26188949955
5	746	1684.451048289371	0.911953675351
5	753	1689.603232717926	4.992286122019
5	754	1690.51994392804	5.195641545068
5	763	1699.470251080958	8.863160393889
5	764	1700.533350704873	9.816693985409
5	773	1726.229313260681	3.428229002702
5	783	1753.440314890518	0.874645115397
5	786	1765.008775890923	7.460193030849
5	804	1801.350279307438	5.404442522584
5	810	1810.277501729617	7.202381883902
5	835	1863.642916259172	0.611009137124
5	840	1874.848645880066	1.041248812474
5	845	1877.686207892478	0.917303574893
5	856	1890.483212493584	0.083232964394
5	860	1893.000524699179	1.371147353649
5	873	1907.393265020597	11.678727076481
5	878	1907.817878704407	3.161074830921
5	883	1912.615696495996	4.874334638708
5	884	1917.076803302353	9.306258060359
5	885	1917.572396888307	7.494307682686
5	895	1931.088385346846	2.45959319161
5	903	1944.905075980103	4.638892765884
5	918	1975.123273734619	5.445895613921
5	936	2006.860451985843	1.751394151582
5	960	2066.596769654531	28.880720977452
5	975	2118.641425595597	22.278282621998
5	982	2126.951496886854	23.545191911814
5	983	2128.812063633601	10.104709641081
5	986	2132.931583539927	2.512050117149
5	998	2155.405422671796	5.705793519017
5	1012	2184.018275399195	3.611529264842
5	1015	2190.567278704946	1.510496114205
5	1025	2211.106264442488	2.288317837643
5	1040	2249.964557063271	0.957094533184
5	1050	2268.624960580085	1.084475510392
5	1058	2288.494760710787	3.580649402651
5	1074	2304.732823119631	1.716722867021
5	1104	2392.199140151579	21.38325072111
5	1105	2392.206249554519	5.790484208523
5	1131	2446.102834556907	20.045130536916
5	1132	2449.036824529119	22.134869110882
5	1133	2449.822536085878	13.665472196916
5	1144	2468.432795628049	1.308829061902
5	1148	2476.592319579263	2.724453352025
5	1159	2492.620941624023	2.894220995964
6	160	362.960292604355	12.788781392962
6	163	365.295609231997	6.118606911176
6	166	369.630390784119	4.369443347249
6	169	377.196952439432	9.098762677397
6	179	385.995055935859	0
6	194	401.159380145501	0
6	202	408.580972013092	0
6	207	414.080076740254	2.097042836704
6	212	430.91170659463	18.034903290603
6	213	431.790634527418	9.64456181213
6	216	446.775027194891	0
6	222	468.45014409572	0
6	225	472.544172029421	0
6	235	487.076176212721	0
6	238	491.308263830936	0
6	246	514.420445053881	0
6	261	540.977110483324	0
6	264	551.819681983572	0
6	267	558.490571589936	3.978622703433
6	275	575.952425612315	0
6	278	583.288797401775	0
6	281	588.718100361583	0
6	303	643.125925376857	0
6	306	645.913669099418	0.326672477553
6	335	730.571370209296	0
6	338	735.626923125728	1.276750055074
6	371	810.658340050417	0
6	385	884.907727247863	0
6	394	891.491138357315	3.769936644604
6	399	903.263488830976	14.848965944828
6	404	914.126908111486	25.614276163911
6	411	929.799800778491	39.185052180787
6	412	930.249423375235	8.612103810826
6	415	933.050810641064	0
6	429	955.511706174683	0
6	454	994.890497857697	0
6	459	1006.900145428588	3.568443581363
6	467	1024.71278138575	0
6	470	1033.063840915732	0
6	473	1051.810539160986	0
6	481	1065.212657206365	0
6	484	1065.754729663329	0
6	497	1087.787989922434	6.97166170999
6	503	1093.090213003979	0
6	551	1190.157796246335	0
6	558	1205.36515902424	10.347152156814
6	566	1254.157083332267	0
6	581	1280.882010518192	0
6	584	1313.151903889802	0
6	595	1325.721982503615	4.277586912358
6	598	1330.828832552976	5.242935606695
6	601	1335.422098015786	0
6	604	1338.793171785704	0
6	609	1343.945698054676	0
6	614	1349.79768983816	5.192041557603
6	615	1351.024470993164	2.787287384994
6	618	1354.444723385226	0
6	621	1363.78207600242	0
6	624	1372.897775342055	0
6	628	1380.740144125913	0
6	652	1449.877692855951	0
6	655	1463.860393903988	0
6	660	1472.968465229854	0
6	668	1519.198196621634	0
6	675	1533.493535446027	1.066706740887
6	681	1550.165412899953	0
6	686	1561.558024604679	6.9747552803
6	695	1573.502541172078	0
6	719	1622.789686438765	0
6	728	1640.758009786842	14.67855777153
6	729	1644.555708442816	13.670845748489
6	730	1649.082849123079	13.556603730482
6	734	1672.708889509399	0
6	745	1683.53909461402	0
6	748	1684.610946595907	0
6	753	1689.603232717926	4.278930334954
6	756	1690.607090687069	0
6	763	1699.470251080958	8.753594361494
6	772	1722.801084257979	0
6	782	1752.565669775121	0
6	785	1757.548582860074	0
6	803	1795.945836784854	0
6	809	1803.075119845715	0
6	834	1863.031907122048	0
6	839	1873.807397067592	0
6	842	1876.768904317585	0
6	855	1890.39997952919	0
6	859	1891.62937734553	0
6	864	1895.714537944116	0
6	873	1907.393265020597	2.736461147111
6	878	1907.817878704407	0.076516847119
6	883	1912.615696495996	4.845151254002
6	884	1917.076803302353	6.998714096732
6	892	1928.628792155236	0
6	902	1940.266183214219	0
6	915	1969.677378120698	0
6	935	2005.109057834261	0
6	951	2037.716048677079	0
6	968	2096.363142973599	0
6	975	2118.641425595597	15.235120620557
6	982	2126.951496886854	8.244142894334
6	985	2130.419533422778	0
6	995	2149.699629152779	0
6	1007	2180.406746134353	0
6	1014	2189.056782590741	0
6	1024	2208.817946604845	0
6	1039	2249.007462530087	0
6	1047	2267.540485069693	0
6	1057	2284.914111308136	0
6	1073	2303.01610025261	0
6	1097	2370.815889430469	0
6	1104	2392.199140151579	5.783374805583
6	1120	2426.057704019991	0
6	1131	2446.102834556907	19.20087913867
6	1132	2449.036824529119	12.879760640157
6	1141	2467.123966566147	0
6	1147	2473.867866227238	0
6	1158	2489.726720628059	0
7	170	377.516367828848	87.046271177971
7	173	382.891344365641	84.926197510027
7	180	386.646131490618	65.202623663824
7	183	388.637294856642	63.777045025179
7	184	389.169579719749	49.361765544935
7	189	392.345343769379	30.757529302428
7	192	400.793884232121	30.276521614557
7	195	402.060229891119	20.909910498839
7	198	406.737580291961	23.737473526338
7	214	441.100072683078	55.894340823489
7	217	460.5459371041	74.550881168241
7	218	467.879933834848	80.64826000789
7	223	468.953436160665	77.485791140013
7	226	474.238407594854	82.448079937098
7	227	478.009591389055	77.76931671259
7	230	481.159793049689	80.000412904188
7	231	482.024935207464	79.175903214788
7	232	483.758774306643	75.481235620282
7	233	486.977988347465	78.397016334373
7	236	489.799717631695	73.973838574996
7	243	509.73056643868	62.955539243789
7	244	514.110196466638	46.10684779818
7	247	521.808914164684	53.358770068964
7	248	524.735734856205	52.191562826784
7	249	528.77538971348	48.998227213178
7	254	534.443785826034	47.367609613313
7	255	534.61422571084	43.305961879904
7	256	534.832374001859	37.189341130762
7	257	538.899896712091	37.832423289531
7	258	540.229230223192	25.808785169311
7	259	540.237457700533	10.517116969845
7	262	550.292353018392	19.627809272993
7	268	561.906538458181	20.929427974857
7	269	564.042440497722	12.22275851415
7	272	569.284363156024	4.653501476847
7	284	607.060157196228	0
7	287	609.891254265553	1.07415426333
7	290	623.652681534036	0
7	293	626.268215411257	0
7	296	634.226339513972	0
7	299	641.269760757948	0
7	307	648.444710000695	5.452068487598
7	310	652.044446824358	8.918521447501
7	311	657.891981773563	8.640721509024
7	314	663.131940718352	0
7	321	685.119111974133	14.74550734649
7	322	687.160096578703	9.348515282249
7	323	690.944946302201	9.619798454046
7	326	697.713954861291	0
7	329	705.670589228675	0
7	332	718.278332535994	0
7	349	764.926406322644	25.555614024662
7	350	766.282538514883	26.751525482811
7	353	766.902176498303	25.016363204082
7	356	773.596420061136	24.511896233806
7	357	779.738186914545	24.03088582431
7	358	780.708837229671	13.821465514107
7	361	783.377740075281	11.667807399001
7	362	786.609747621652	3.362538662652
7	365	793.563616539954	0
7	368	800.22497064418	0
7	374	814.985995901723	0
7	377	876.737061601873	0
7	380	880.263351200228	0
7	383	884.715060646702	0
7	413	930.47876603627	45.571038788407
7	418	934.487141518579	41.429145797887
7	419	934.5438718562	36.922306022774
7	422	942.738022938589	38.050755258154
7	423	945.681005217628	39.532815775502
7	424	946.756319199904	27.29489442671
7	427	953.24129360103	29.772369095189
7	430	957.86181000376	24.810999362696
7	431	958.73888871595	25.366853319188
7	432	962.955486499476	27.716355948439
7	433	964.014758570464	16.653581104443
7	442	983.804929540539	28.293223365856
7	443	985.284539654012	19.571144752006
7	446	985.679115372487	16.53481387701
7	447	990.817128164652	12.370860752538
7	448	990.97968065622	11.688730818723
7	449	991.290741179148	5.923492547182
7	452	992.117801131314	0.201421628679
7	462	1009.373649590272	14.483151732575
7	463	1010.592394846674	6.55608545418
7	464	1012.078310290167	4.765015435276
7	476	1056.643450543443	1.390227706832
7	479	1064.332896723178	0
7	482	1065.683560050866	0.470902844501
7	498	1089.329140937417	23.574411274088
7	501	1092.392938149234	17.934203987165
7	504	1093.770944949926	9.035854186036
7	505	1094.939821250163	10.019810635942
7	506	1098.895009806929	13.550833080352
7	507	1099.218551716822	12.371249138016
7	522	1116.319846387499	25.326573852463
7	525	1118.706930770011	25.616717766032
7	528	1131.769287063665	30.410168176354
7	529	1143.149418022272	40.422546332079
7	530	1144.266224556424	41.49236490556
7	531	1146.746321908747	43.937618841081
7	534	1154.291501124228	50.732808547227
7	535	1156.67176840288	51.17324075934
7	536	1162.115415173752	48.216839031813
7	537	1167.387067963766	49.168895061369
7	540	1172.097258797401	42.811015361392
7	547	1181.796643362698	32.465975850321
7	548	1185.266106897252	17.133167569863
7	549	1188.192518726445	10.93494590063
7	559	1213.240452797168	33.039692928297
7	560	1217.045464584275	36.681931630032
7	561	1220.116265636448	29.958469390113
7	562	1220.190014816413	26.493582400628
7	563	1221.079179533517	23.042816624021
7	569	1256.80320130424	0
7	572	1262.57149398774	0
7	577	1264.880142704391	2.062309808478
7	578	1265.558010932757	1.114217175445
7	599	1332.890793138431	16.062923939843
7	602	1335.957969122644	19.121002297472
7	605	1340.41006768701	22.518422473285
7	616	1351.066791552432	25.102039795229
7	619	1355.330274832044	19.908176816258
7	622	1368.962664938456	30.169493152752
7	625	1376.857146720454	34.960827016432
7	626	1378.650861591633	34.705163536957
7	633	1393.760343961165	39.315620575939
7	634	1395.997540052971	32.215464050551
7	635	1405.071597322092	32.173821980037
7	636	1405.361018547913	24.620874422
7	637	1424.781764041283	34.068098116684
7	638	1429.949620373522	38.458474397349
7	647	1437.289867027719	5.180267660938
7	648	1439.627049401056	4.20255089728
7	649	1441.496518423396	6.045064658941
7	650	1441.642060541453	5.294658977603
7	653	1457.749101163986	7.871408308035
7	656	1466.767773490155	2.907379586167
7	661	1481.741443110711	11.204290026996
7	662	1488.337419351706	15.368954121852
7	665	1498.599338485873	4.061093217477
7	676	1535.718137258034	15.295561543014
7	679	1545.989598375023	12.749030227927
7	691	1568.682634463337	31.289957612403
7	696	1581.469909845555	31.304496945602
7	697	1583.958232978157	31.212435356481
7	698	1586.795863522558	21.886442905572
7	699	1590.59989334424	23.902438612423
7	702	1593.193161044888	22.053586130101
7	703	1594.695195326542	21.192654154464
7	708	1600.926552091099	9.653583575614
7	709	1605.276194527542	10.09365024694
7	710	1612.966063556895	16.188922638328
7	713	1617.910615571711	0
7	716	1622.429547964932	0
7	731	1652.663160783419	23.22349357039
7	737	1676.568257126997	0
7	740	1680.26691701325	0
7	743	1681.986859426001	0.351491349463
7	746	1684.451048289371	0.911953675351
7	754	1690.51994392804	5.908997332133
7	764	1700.533350704873	15.291290018273
7	767	1706.904640864896	16.297550177827
7	768	1712.424943447998	19.210857580847
7	769	1712.534648408215	18.684309822668
7	770	1720.328320405464	14.962413829987
7	773	1726.229313260681	3.428229002702
7	776	1731.121975396299	3.383380973267
7	779	1737.523578243873	0
7	788	1776.48107159176	0
7	791	1781.898375840307	0
7	796	1785.554041922625	2.302661406361
7	801	1793.842318020869	10.433753313693
7	804	1801.350279307438	13.473997134266
7	807	1802.121409693389	9.554492524409
7	810	1810.277501729617	14.331664944763
7	813	1813.126556310037	11.036968259918
7	814	1816.623540764911	13.548420919196
7	815	1818.483347354508	6.074942658037
7	820	1821.057700455579	1.043671725998
7	823	1824.52692480763	3.930081985111
7	824	1824.87128756014	0.834279813366
7	827	1843.87114111351	0
7	830	1853.396838359014	0
7	835	1863.642916259172	5.16740295992
7	836	1863.647958487527	0.616051365479
7	845	1877.686207892478	0.799264998609
7	852	1889.129832342487	3.066212931752
7	853	1890.214848437768	1.570410838795
7	856	1890.483212493584	1.632616409767
7	857	1891.088084551798	0.688105022608
7	860	1893.000524699179	1.371147353649
7	885	1917.572396888307	23.920536048747
7	886	1918.33911667403	22.624578729914
7	895	1931.088385346846	28.886475145791
7	898	1933.874666620791	29.279815622628
7	903	1944.905075980103	37.718655545394
7	904	1952.048955209962	40.768450319805
7	907	1958.352397852966	39.896776479309
7	910	1964.696398147609	42.065661425224
7	911	1964.733553666437	36.104761511201
7	918	1975.123273734619	44.116141069417
7	919	1979.930272664757	47.196667443416
7	922	1981.302996404698	41.421011799203
7	923	1982.84533956505	42.579156350831
7	928	1991.928982241548	37.591507170424
7	929	1993.787855213102	32.383718908054
7	932	1999.404248533359	31.577376275633
7	933	2004.734275348229	35.056897227531
7	936	2006.860451985843	32.882682340324
7	937	2007.90937046066	27.11056959864
7	938	2008.631753198505	19.985693887671
7	943	2015.07323835671	24.783718377829
7	944	2025.565032502914	26.682408468163
7	947	2030.370021350767	25.260963516506
7	960	2066.596769654531	56.349755227561
7	963	2075.549971626702	64.943377077351
7	964	2080.204249768232	51.79659230345
7	965	2080.511337040667	49.892252131616
7	966	2086.381144601625	48.665095924546
7	983	2128.812063633601	81.927527878419
7	986	2132.931583539927	82.996827672175
7	987	2136.818048746951	83.744178542125
7	990	2139.375431586822	75.839191215143
7	991	2143.764514313508	75.585122508824
7	998	2155.405422671796	59.042279698197
7	1003	2172.806800395298	66.562121492538
7	1004	2177.440598549762	65.768586090282
7	1005	2179.590973653206	55.314396734731
7	1012	2184.018275399195	58.011988699915
7	1015	2190.567278704946	60.147745282168
7	1018	2193.168193237427	55.440704694025
7	1019	2202.981409050752	57.885514369309
7	1020	2204.427413180074	54.727784027295
7	1025	2211.106264442488	59.51894315167
7	1026	2211.453795432208	53.865905247801
7	1027	2217.127832333591	49.366317190105
7	1030	2226.471371458742	46.064625324389
7	1031	2227.940447387415	46.101779499165
7	1032	2228.070881146969	45.071950367743
7	1033	2232.241948240154	43.185165649413
7	1034	2235.67753203948	44.298379563502
7	1035	2238.25288816623	30.734380492922
7	1036	2239.548103825826	30.730157220981
7	1037	2244.833392397574	26.460051979941
7	1040	2249.964557063271	0.957094533184
7	1043	2262.688833919648	0
7	1050	2268.624960580085	1.853682619531
7	1051	2269.321028320494	1.780543250801
7	1054	2278.252872950525	10.111640979965
7	1055	2282.57339264766	8.343410729534
7	1058	2288.494760710787	3.580649402651
7	1061	2295.928009914854	0
7	1064	2299.367600235415	0
7	1067	2300.503154335507	0
7	1074	2304.732823119631	3.00806353256
7	1075	2307.121894071884	5.16873700553
7	1080	2318.491518106039	15.475417853429
7	1081	2326.570180396775	12.067786014902
7	1082	2327.700278009667	12.016689321319
7	1085	2339.842619891371	0
7	1090	2347.684429808045	5.026932500971
7	1091	2351.700231443193	6.876363042491
7	1094	2364.105097919066	0
7	1105	2392.206249554519	0.434433414753
7	1116	2414.439626806293	22.561295780243
7	1133	2449.822536085878	52.177796278522
7	1136	2460.468987044685	61.493420815857
7	1139	2465.946088483763	66.577992415109
7	1144	2468.432795628049	65.627581150168
7	1145	2471.393575745916	61.719806357182
7	1148	2476.592319579263	59.156657785965
7	1149	2477.863252937163	51.805548917172
7	1154	2487.318932614094	51.210993428676
7	1159	2492.620941624023	55.300659931518
8	173	382.891344365641	29
8	183	388.637294856642	30
8	184	389.169579719749	31
8	189	392.345343769379	32
8	192	400.793884232121	33
8	198	406.737580291961	34
8	218	467.879933834848	35
8	227	478.009591389055	36
8	230	481.159793049689	37
8	231	482.024935207464	38
8	232	483.758774306643	39
8	233	486.977988347465	40
8	244	514.110196466638	41
8	248	524.735734856205	42
8	249	528.77538971348	43
8	254	534.443785826034	44
8	255	534.61422571084	45
8	256	534.832374001859	46
8	257	538.899896712091	47
8	258	540.229230223192	48
8	259	540.237457700533	49
8	269	564.042440497722	50
8	272	569.284363156024	51
8	273	569.290335669358	52
8	287	609.891254265553	53
8	288	614.041647093421	54
8	291	626.105070860447	55
8	294	626.423467939735	56
8	297	636.269536745886	57
8	310	652.044446824358	58
8	311	657.891981773563	59
8	312	661.205421239285	60
8	321	685.119111974133	61
8	322	687.160096578703	62
8	323	690.944946302201	63
8	324	696.58475439424	64
8	327	703.417945936022	65
8	330	706.352676698001	66
8	333	720.759123894011	67
8	350	766.282538514883	68
8	353	766.902176498303	69
8	356	773.596420061136	70
8	357	779.738186914545	71
8	358	780.708837229671	72
8	361	783.377740075281	73
8	362	786.609747621652	74
8	363	789.654081427965	75
8	366	796.628892877223	76
8	369	802.241950935576	77
8	375	815.852825228986	78
8	378	877.229070228924	79
8	381	880.451219450446	80
8	419	934.5438718562	81
8	422	942.738022938589	82
8	423	945.681005217628	83
8	424	946.756319199904	84
8	427	953.24129360103	85
8	431	958.73888871595	86
8	432	962.955486499476	87
8	433	964.014758570464	88
8	442	983.804929540539	89
8	443	985.284539654012	90
8	446	985.679115372487	91
8	447	990.817128164652	92
8	448	990.97968065622	93
8	449	991.290741179148	94
8	452	992.117801131314	95
8	463	1010.592394846674	96
8	464	1012.078310290167	97
8	465	1016.558316339023	98
8	477	1057.002938302259	99
8	501	1092.392938149234	100
8	505	1094.939821250163	101
8	506	1098.895009806929	102
8	507	1099.218551716822	103
8	522	1116.319846387499	104
8	525	1118.706930770011	105
8	528	1131.769287063665	106
8	529	1143.149418022272	107
8	530	1144.266224556424	108
8	531	1146.746321908747	109
8	534	1154.291501124228	110
8	535	1156.67176840288	111
8	536	1162.115415173752	112
8	537	1167.387067963766	113
8	540	1172.097258797401	114
8	547	1181.796643362698	115
8	548	1185.266106897252	116
8	549	1188.192518726445	117
8	560	1217.045464584275	118
8	561	1220.116265636448	119
8	562	1220.190014816413	120
8	563	1221.079179533517	121
8	564	1231.820345262232	122
8	570	1260.853388285356	123
8	577	1264.880142704391	124
8	578	1265.558010932757	125
8	579	1268.474102385326	126
8	626	1378.650861591633	127
8	634	1395.997540052971	128
8	635	1405.071597322092	129
8	636	1405.361018547913	130
8	637	1424.781764041283	131
8	638	1429.949620373522	132
8	647	1437.289867027719	133
8	648	1439.627049401056	134
8	649	1441.496518423396	135
8	650	1441.642060541453	136
8	662	1488.337419351706	137
8	665	1498.599338485873	138
8	666	1500.250742739896	139
8	679	1545.989598375023	140
8	697	1583.958232978157	141
8	698	1586.795863522558	142
8	699	1590.59989334424	143
8	702	1593.193161044888	144
8	703	1594.695195326542	145
8	708	1600.926552091099	146
8	709	1605.276194527542	147
8	710	1612.966063556895	148
8	711	1617.443373538439	149
8	714	1621.775778117704	150
8	717	1622.729270542265	151
8	732	1653.105334105468	152
8	738	1679.299137518051	153
8	743	1681.986859426001	154
8	767	1706.904640864896	155
8	768	1712.424943447998	156
8	769	1712.534648408215	157
8	770	1720.328320405464	158
8	776	1731.121975396299	159
8	777	1732.987137337068	160
8	780	1739.025625092766	161
8	789	1779.509290775604	162
8	796	1785.554041922625	163
8	801	1793.842318020869	164
8	807	1802.121409693389	165
8	813	1813.126556310037	166
8	814	1816.623540764911	167
8	815	1818.483347354508	168
8	820	1821.057700455579	169
8	823	1824.52692480763	170
8	824	1824.87128756014	171
8	825	1825.031867146963	172
8	828	1845.172181307998	173
8	836	1863.647958487527	174
8	837	1868.376788341148	175
8	852	1889.129832342487	176
8	853	1890.214848437768	177
8	857	1891.088084551798	178
8	886	1918.33911667403	179
8	898	1933.874666620791	180
8	904	1952.048955209962	181
8	907	1958.352397852966	182
8	910	1964.696398147609	183
8	911	1964.733553666437	184
8	919	1979.930272664757	185
8	922	1981.302996404698	186
8	923	1982.84533956505	187
8	928	1991.928982241548	188
8	929	1993.787855213102	189
8	932	1999.404248533359	190
8	933	2004.734275348229	191
8	937	2007.90937046066	192
8	938	2008.631753198505	193
8	943	2015.07323835671	194
8	944	2025.565032502914	195
8	947	2030.370021350767	196
8	963	2075.549971626702	197
8	964	2080.204249768232	198
8	965	2080.511337040667	199
8	966	2086.381144601625	200
8	987	2136.818048746951	201
8	990	2139.375431586822	202
8	991	2143.764514313508	203
8	1003	2172.806800395298	204
8	1004	2177.440598549762	205
8	1005	2179.590973653206	206
8	1018	2193.168193237427	207
8	1019	2202.981409050752	208
8	1020	2204.427413180074	209
8	1026	2211.453795432208	210
8	1027	2217.127832333591	211
8	1030	2226.471371458742	212
8	1031	2227.940447387415	213
8	1032	2228.070881146969	214
8	1033	2232.241948240154	215
8	1034	2235.67753203948	216
8	1035	2238.25288816623	217
8	1036	2239.548103825826	218
8	1037	2244.833392397574	219
8	1041	2261.895411119616	220
8	1051	2269.321028320494	221
8	1054	2278.252872950525	222
8	1055	2282.57339264766	223
8	1059	2292.481537987763	224
8	1062	2296.278953224511	225
8	1065	2299.693029292725	226
8	1075	2307.121894071884	227
8	1080	2318.491518106039	228
8	1081	2326.570180396775	229
8	1082	2327.700278009667	230
8	1083	2330.425360039882	231
8	1090	2347.684429808045	232
8	1091	2351.700231443193	233
8	1092	2355.739925855412	234
8	1095	2368.961155479533	235
8	1116	2414.439626806293	236
8	1136	2460.468987044685	237
8	1139	2465.946088483763	238
8	1145	2471.393575745916	239
8	1149	2477.863252937163	240
8	1154	2487.318932614094	241
9	173	382.891344365641	92.421247714764
9	183	388.637294856642	67.193787029848
9	184	389.169579719749	64.309329888286
9	189	392.345343769379	52.537529594565
9	192	400.793884232121	39.20606976517
9	198	406.737580291961	25.587260899681
9	218	467.879933834848	81.884877898989
9	227	478.009591389055	86.219263731299
9	230	481.159793049689	80.919518373224
9	231	482.024935207464	80.865555061963
9	232	483.758774306643	80.909742313967
9	233	486.977988347465	78.700449661104
9	244	514.110196466638	67.335169271747
9	248	524.735734856205	56.285590760485
9	249	528.77538971348	56.231217684059
9	254	534.443785826034	54.666623325732
9	255	534.61422571084	47.538049498119
9	256	534.832374001859	43.524110170923
9	257	538.899896712091	41.256863840994
9	258	540.229230223192	39.161756800632
9	259	540.237457700533	25.817012646652
9	269	564.042440497722	23.065330014398
9	272	569.284363156024	17.464681172452
9	273	569.290335669358	4.659473990181
9	287	609.891254265553	2.831097069325
9	288	614.041647093421	5.224547091198
9	291	626.105070860447	2.452389326411
9	294	626.423467939735	0.155252528478
9	297	636.269536745886	2.043197231914
9	310	652.044446824358	9.051805311261
9	311	657.891981773563	14.766056396706
9	312	661.205421239285	11.954160974746
9	321	685.119111974133	21.987171255781
9	322	687.160096578703	16.78649195106
9	323	690.944946302201	13.133365005747
9	324	696.58475439424	15.259606546085
9	327	703.417945936022	5.703991074731
9	330	706.352676698001	0.682087469326
9	333	720.759123894011	2.480791358017
9	350	766.282538514883	26.911746216901
9	353	766.902176498303	27.371163466231
9	356	773.596420061136	31.710606766915
9	357	779.738186914545	30.653663087215
9	358	780.708837229671	25.001536139436
9	361	783.377740075281	16.490368359717
9	362	786.609747621652	14.899814945372
9	363	789.654081427965	6.406872468965
9	366	796.628892877223	3.065276337269
9	369	802.241950935576	2.016980291396
9	375	815.852825228986	0.866829327263
9	378	877.229070228924	0.492008627051
9	381	880.451219450446	0.187868250218
9	419	934.5438718562	41.485876135508
9	422	942.738022938589	45.116457105163
9	423	945.681005217628	40.993737537193
9	424	946.756319199904	40.608129757778
9	427	953.24129360103	33.779868827836
9	431	958.73888871595	25.688078074886
9	432	962.955486499476	29.583451102714
9	433	964.014758570464	28.775628019427
9	442	983.804929540539	36.443752074518
9	443	985.284539654012	29.772833479329
9	446	985.679115372487	19.965720470481
9	447	990.817128164652	21.672826669175
9	448	990.97968065622	12.533413244106
9	449	991.290741179148	11.999791341651
9	452	992.117801131314	6.750552499348
9	463	1010.592394846674	15.701896988977
9	464	1012.078310290167	8.042000897673
9	465	1016.558316339023	9.245021484132
9	477	1057.002938302259	1.749715465648
9	501	1092.392938149234	26.638208485905
9	505	1094.939821250163	10.204730486273
9	506	1098.895009806929	13.974999192708
9	507	1099.218551716822	13.874374990245
9	522	1116.319846387499	29.472543808693
9	525	1118.706930770011	27.713658234975
9	528	1131.769287063665	38.679074059686
9	529	1143.149418022272	41.790299134961
9	530	1144.266224556424	41.539352866231
9	531	1146.746321908747	43.972462257883
9	534	1154.291501124228	51.482798056562
9	535	1156.67176840288	53.113075825879
9	536	1162.115415173752	56.616887530212
9	537	1167.387067963766	53.488491821827
9	540	1172.097258797401	53.879085895004
9	547	1181.796643362698	52.510399926689
9	548	1185.266106897252	35.935439384875
9	549	1188.192518726445	20.059579399056
9	560	1217.045464584275	36.844704715404
9	561	1220.116265636448	39.752732682205
9	562	1220.190014816413	30.032218570078
9	563	1221.079179533517	27.382747117732
9	564	1231.820345262232	33.783982352736
9	570	1260.853388285356	4.050186981116
9	577	1264.880142704391	2.308648716651
9	578	1265.558010932757	2.740178036844
9	579	1268.474102385326	4.030308628014
9	626	1378.650861591633	36.754541887611
9	634	1395.997540052971	41.552816667745
9	635	1405.071597322092	41.289521319672
9	636	1405.361018547913	32.463243205858
9	637	1424.781764041283	44.04161991537
9	638	1429.949620373522	39.235954448923
9	647	1437.289867027719	45.798721051546
9	648	1439.627049401056	7.517450034275
9	649	1441.496518423396	6.07201991962
9	650	1441.642060541453	6.190606776998
9	662	1488.337419351706	17.800266267991
9	665	1498.599338485873	25.630873256019
9	666	1500.250742739896	5.7124974715
9	679	1545.989598375023	25.567022660003
9	697	1583.958232978157	33.792820078204
9	698	1586.795863522558	34.050065900882
9	699	1590.59989334424	25.690472727254
9	702	1593.193161044888	26.495706313071
9	703	1594.695195326542	23.555620411755
9	708	1600.926552091099	27.424010919021
9	709	1605.276194527542	14.003226012057
9	710	1612.966063556895	17.783519276293
9	711	1617.443373538439	20.666232619872
9	714	1621.775778117704	3.865162545993
9	717	1622.729270542265	0.299722577333
9	732	1653.105334105468	23.665666892439
9	738	1679.299137518051	2.730880391054
9	743	1681.986859426001	1.719942412751
9	767	1706.904640864896	21.662580178296
9	768	1712.424943447998	21.817852760929
9	769	1712.534648408215	19.320562541064
9	770	1720.328320405464	26.477981819917
9	776	1731.121975396299	8.32089113832
9	777	1732.987137337068	5.248542914036
9	780	1739.025625092766	1.502046848893
9	789	1779.509290775604	3.028219183844
9	796	1785.554041922625	3.655666082318
9	801	1793.842318020869	10.590937504605
9	807	1802.121409693389	14.245127520217
9	813	1813.126556310037	17.180719525183
9	814	1816.623540764911	14.533952714792
9	815	1818.483347354508	15.408227508793
9	820	1821.057700455579	8.649295759108
9	823	1824.52692480763	4.512896078049
9	824	1824.87128756014	4.274444737621
9	825	1825.031867146963	0.994859400189
9	828	1845.172181307998	1.301040194488
9	836	1863.647958487527	5.172445188275
9	837	1868.376788341148	5.3448812191
9	852	1889.129832342487	12.242889448618
9	853	1890.214848437768	4.151229027033
9	857	1891.088084551798	2.237488467981
9	886	1918.33911667403	24.68725583447
9	898	1933.874666620791	31.672756419736
9	904	1952.048955209962	44.862534775253
9	907	1958.352397852966	47.071892962809
9	910	1964.696398147609	46.240776773952
9	911	1964.733553666437	42.102816944052
9	919	1979.930272664757	48.923139999555
9	922	1981.302996404698	48.569391183357
9	923	1982.84533956505	42.963354959555
9	928	1991.928982241548	51.662799027329
9	929	1993.787855213102	39.450380141978
9	932	1999.404248533359	38.000112228311
9	933	2004.734275348229	36.907403090503
9	937	2007.90937046066	33.931600815141
9	938	2008.631753198505	27.832952336485
9	943	2015.07323835671	26.427179045876
9	944	2025.565032502914	35.275512524033
9	947	2030.370021350767	31.487397316016
9	963	2075.549971626702	65.302957199732
9	964	2080.204249768232	69.597655218881
9	965	2080.511337040667	52.103679575885
9	966	2086.381144601625	55.762059692574
9	987	2136.818048746951	86.883292879199
9	990	2139.375431586822	86.301561381996
9	991	2143.764514313508	80.228273941829
9	1003	2172.806800395298	76.443657421699
9	1004	2177.440598549762	71.195919647002
9	1005	2179.590973653206	67.918961193726
9	1018	2193.168193237427	62.748659814649
9	1019	2202.981409050752	65.25392050735
9	1020	2204.427413180074	59.331518498631
9	1026	2211.453795432208	59.86647414139
9	1027	2217.127832333591	59.539942149184
9	1030	2226.471371458742	58.709856315256
9	1031	2227.940447387415	47.533701253062
9	1032	2228.070881146969	46.232213258719
9	1033	2232.241948240154	49.243017460928
9	1034	2235.67753203948	46.620749448739
9	1035	2238.25288816623	46.873735690252
9	1036	2239.548103825826	32.029596152518
9	1037	2244.833392397574	36.015445792729
9	1041	2261.895411119616	12.887948589529
9	1051	2269.321028320494	2.54975035994
9	1054	2278.252872950525	10.712387880832
9	1055	2282.57339264766	14.4321606771
9	1059	2292.481537987763	7.567426679627
9	1062	2296.278953224511	0.350943309657
9	1065	2299.693029292725	0.32542905731
9	1075	2307.121894071884	5.397134484813
9	1080	2318.491518106039	16.538361039685
9	1081	2326.570180396775	23.554080144165
9	1082	2327.700278009667	13.197883627794
9	1083	2330.425360039882	14.741771351534
9	1090	2347.684429808045	7.841809916674
9	1091	2351.700231443193	9.042734136119
9	1092	2355.739925855412	10.91605745471
9	1095	2368.961155479533	4.856057560467
9	1116	2414.439626806293	22.667810666527
9	1136	2460.468987044685	62.824247237329
9	1139	2465.946088483763	66.970522254935
9	1145	2471.393575745916	68.588361268035
9	1149	2477.863252937163	60.427591143865
9	1154	2487.318932614094	61.261228594103
10	179	385.995055935859	6
10	194	401.159380145501	7
10	202	408.580972013092	8
10	216	446.775027194891	9
10	222	468.45014409572	10
10	225	472.544172029421	11
10	235	487.076176212721	12
10	238	491.308263830936	13
10	246	514.420445053881	14
10	261	540.977110483324	15
10	264	551.819681983572	16
10	303	643.125925376857	17
10	385	884.907727247863	18
10	415	933.050810641064	19
10	429	955.511706174683	20
10	454	994.890497857697	21
10	481	1065.212657206365	22
10	484	1065.754729663329	23
10	503	1093.090213003979	24
10	551	1190.157796246335	25
10	601	1335.422098015786	26
10	604	1338.793171785704	27
10	609	1343.945698054676	28
10	618	1354.444723385226	29
10	621	1363.78207600242	30
10	624	1372.897775342055	31
10	628	1380.740144125913	32
10	652	1449.877692855951	33
10	655	1463.860393903988	34
10	660	1472.968465229854	35
10	681	1550.165412899953	36
10	695	1573.502541172078	37
10	745	1683.53909461402	38
10	748	1684.610946595907	39
10	756	1690.607090687069	40
10	772	1722.801084257979	41
10	803	1795.945836784854	42
10	809	1803.075119845715	43
10	834	1863.031907122048	44
10	855	1890.39997952919	45
10	859	1891.62937734553	46
10	864	1895.714537944116	47
10	892	1928.628792155236	48
10	902	1940.266183214219	49
10	915	1969.677378120698	50
10	935	2005.109057834261	51
10	951	2037.716048677079	52
10	968	2096.363142973599	53
10	985	2130.419533422778	54
10	995	2149.699629152779	55
10	1007	2180.406746134353	56
10	1014	2189.056782590741	57
10	1024	2208.817946604845	58
10	1039	2249.007462530087	59
10	1047	2267.540485069693	60
10	1057	2284.914111308136	61
10	1073	2303.01610025261	62
10	1120	2426.057704019991	63
10	1141	2467.123966566147	64
10	1147	2473.867866227238	65
10	1158	2489.726720628059	66
11	1160	2500	0.0964
12	1160	2500	0.0552

