version 2
run experiments_medium_game_mode1-1479-20230311-09:45:17-16092
attr configname experiments_medium_game_mode1
attr datetime 20230311-09:45:17
attr experiment experiments_medium_game_mode1
attr inifile omnetpp.ini
attr iterationvars "$0=7, $1=7, $2=100"
attr iterationvarsf 7,7,100-
attr measurement "$0=7, $1=7, $2=100"
attr network Network
attr processid 16092
attr repetition 9
attr replication #9
attr resultdir results
attr runnumber 1479
attr seedset 9
param *.boss.arrival_mean 20
param *.boss.service_mean 7
param *.minion.arrival_mean 10
param *.minion.service_mean 7
param *.player.recover_rate_x 100
param **.minion.arrival_distribution 0
param **.minion.service_distribution 0
param **.boss.arrival_distribution 0
param **.boss.service_distribution 0

vector 0 Network.player boss_defeated_stat:vector ETV
attr source signal_boss_defeated
vector 1 Network.player boss_jobs_queue_number_stat:vector ETV
attr source signal_boss_jobs_queue_number
vector 2 Network.player boss_response_time_stat:vector ETV
attr source signal_boss_response_time
vector 3 Network.player minion_waiting_time_stat:vector ETV
attr source signal_minion_waiting_time
vector 4 Network.player minion_jobs_number_stat:vector ETV
attr source signal_minion_jobs_number
vector 5 Network.player minion_jobs_queue_number_stat:vector ETV
attr source signal_minion_jobs_queue_number
vector 6 Network.player minion_defeated_stat:vector ETV
attr source signal_minion_defeated
vector 7 Network.player minion_response_time_stat:vector ETV
attr source signal_minion_response_time
vector 8 Network.player boss_jobs_number_stat:vector ETV
attr source signal_boss_jobs_number
vector 9 Network.player minion_recovered_stat:vector ETV
attr source signal_minion_recovered
vector 10 Network.player boss_waiting_time_stat:vector ETV
attr source signal_boss_waiting_time
vector 11 Network.player minion_throughput:vector ETV
attr source signal_minion_throughput
vector 12 Network.player boss_throughput:vector ETV
attr source signal_boss_throughput
0	124	354.747128827509	10
0	135	372.125411417125	11
0	142	385.478986202277	12
0	149	390.615027314	13
0	150	392.425782168523	14
0	159	404.012857559346	15
0	166	412.254791288845	16
0	169	419.266070353774	17
0	183	445.806935062139	18
0	188	464.001043137995	19
0	212	496.489923940657	20
0	217	508.320775275243	21
0	225	522.778365030037	22
0	237	549.274929933982	23
0	241	551.582388201408	24
0	255	580.571186666237	25
0	263	590.711873090973	26
0	269	630.594864160258	27
0	287	680.071491924577	28
0	294	692.304831284754	29
0	295	695.166405985072	30
0	298	717.907576688645	31
0	307	727.754790487659	32
0	312	745.423366536703	33
0	315	748.38115315226	34
0	323	764.561746672656	35
0	328	768.592310260007	36
0	331	785.652153526677	37
0	335	794.155046353648	38
0	356	839.510445455133	39
0	360	849.74888674139	40
0	382	906.57783984781	41
0	393	920.724176234619	42
0	416	970.895776148806	43
0	429	988.393892373271	44
0	434	997.310004643905	45
0	437	998.10084243196	46
0	438	1000.557416825977	47
0	441	1002.508956697179	48
0	451	1013.309517109679	49
0	473	1083.549042999092	50
0	499	1143.433968192555	51
0	500	1144.560686261914	52
0	520	1212.100213158569	53
0	525	1221.327489674617	54
0	530	1229.71718677319	55
0	548	1269.504967060415	56
0	562	1292.077725978816	57
0	567	1305.618269235257	58
0	576	1330.363412938579	59
0	583	1340.046659325878	60
0	586	1347.816785969498	61
0	589	1356.391631071253	62
0	598	1380.36924766692	63
0	604	1389.233227830314	64
0	620	1439.86321787852	65
0	628	1450.468706615046	66
0	642	1484.340780796347	67
0	643	1489.439177751828	68
0	646	1494.919965053833	69
0	647	1496.4607269384	70
0	652	1503.860814134668	71
0	659	1513.434733443311	72
0	662	1521.224014212017	73
0	665	1529.171198883107	74
0	674	1546.946875453383	75
0	685	1587.516864054316	76
0	686	1587.612424484025	77
0	695	1607.189994927037	78
0	703	1622.108595149859	79
0	706	1623.826294504532	80
0	707	1627.823691924486	81
0	732	1733.213984850321	82
0	740	1748.586845164054	83
0	763	1802.766494222887	84
0	764	1811.559843608562	85
0	765	1816.357966921134	86
0	771	1842.848163913093	87
0	776	1849.662938869826	88
0	781	1854.499410823061	89
0	792	1872.115553707035	90
0	793	1878.749340907092	91
0	797	1884.780762106321	92
0	800	1886.792358865013	93
0	821	1927.619155868281	94
0	861	2022.483869790985	95
0	876	2043.547299006777	96
0	881	2045.853216755646	97
0	893	2058.919325362721	98
0	899	2066.587087280294	99
0	902	2072.706650808798	100
0	908	2082.783231396055	101
0	926	2131.089691407105	102
0	935	2146.716585785676	103
0	936	2156.293776476609	104
0	937	2157.885574962075	105
0	949	2184.379532939996	106
0	961	2207.580569810217	107
0	975	2230.02899487354	108
0	980	2239.012553418221	109
0	981	2243.656225590782	110
0	982	2246.63569138557	111
0	995	2283.726214784368	112
0	998	2285.458511330854	113
0	999	2288.406189169576	114
0	1004	2290.278871516211	115
0	1005	2290.54442095589	116
0	1011	2297.470052040209	117
0	1025	2335.396523675289	118
0	1044	2370.595442254788	119
0	1045	2374.545335162326	120
0	1049	2384.028280350389	121
0	1061	2426.847865826237	122
0	1066	2447.818742350901	123
0	1070	2461.643705209589	124
0	1077	2496.862962986354	125
1	124	354.747128827509	0
1	132	366.90674060042	0
1	135	372.125411417125	0
1	139	381.784833013177	0
1	142	385.478986202277	0
1	144	386.250875507134	0
1	148	389.749122569849	1
1	149	390.615027314	1
1	150	392.425782168523	0
1	154	399.549588799422	0
1	156	402.504371015353	1
1	159	404.012857559346	1
1	161	408.499009690112	1
1	166	412.254791288845	1
1	169	419.266070353774	0
1	180	443.817232557662	0
1	182	445.367973862082	1
1	183	445.806935062139	1
1	188	464.001043137995	0
1	195	478.003471691353	0
1	203	484.600153220399	1
1	212	496.489923940657	1
1	217	508.320775275243	0
1	224	517.502141464979	0
1	225	522.778365030037	0
1	230	529.042666305749	0
1	237	549.274929933982	0
1	240	549.723407939261	0
1	241	551.582388201408	0
1	246	562.927292449865	0
1	255	580.571186666237	0
1	260	586.270515660759	0
1	263	590.711873090973	0
1	268	626.843884536897	0
1	269	630.594864160258	0
1	274	647.353795303353	0
1	278	662.438482297379	1
1	287	680.071491924577	1
1	289	680.919630399863	1
1	294	692.304831284754	1
1	295	695.166405985072	0
1	297	697.442376960556	0
1	298	717.907576688645	0
1	304	725.763040227324	0
1	307	727.754790487659	0
1	309	738.500469943368	0
1	311	739.177665474985	1
1	312	745.423366536703	1
1	315	748.38115315226	0
1	322	762.526755291277	0
1	323	764.561746672656	0
1	325	765.313687185756	0
1	328	768.592310260007	0
1	330	779.370713826155	0
1	331	785.652153526677	0
1	334	791.075455498199	0
1	335	794.155046353648	0
1	351	825.727435836351	0
1	356	839.510445455133	0
1	359	841.668238793278	0
1	360	849.74888674139	0
1	381	906.230180631313	0
1	382	906.57783984781	0
1	392	918.329453634844	0
1	393	920.724176234619	0
1	405	957.388344174164	0
1	407	957.723820241117	1
1	413	965.1212364791	2
1	415	970.625671301786	3
1	416	970.895776148806	3
1	424	986.583432109771	3
1	426	987.393290059605	4
1	429	988.393892373271	4
1	434	997.310004643905	3
1	437	998.10084243196	2
1	438	1000.557416825977	1
1	441	1002.508956697179	0
1	450	1008.65887140681	0
1	451	1013.309517109679	0
1	470	1070.155179727889	0
1	473	1083.549042999092	0
1	494	1130.416300279589	0
1	496	1132.048297238397	1
1	499	1143.433968192555	1
1	500	1144.560686261914	0
1	517	1205.642446634233	0
1	520	1212.100213158569	0
1	524	1216.616931884824	0
1	525	1221.327489674617	0
1	529	1228.520457625003	0
1	530	1229.71718677319	0
1	545	1254.734196931696	0
1	548	1269.504967060415	0
1	559	1286.850380159512	0
1	562	1292.077725978816	0
1	566	1302.844015444965	0
1	567	1305.618269235257	0
1	575	1328.909099580252	0
1	576	1330.363412938579	0
1	580	1337.388330083135	0
1	582	1339.233828183082	1
1	583	1340.046659325878	1
1	585	1343.29505004117	1
1	586	1347.816785969498	1
1	589	1356.391631071253	0
1	597	1374.799124051652	0
1	598	1380.36924766692	0
1	601	1387.35074829731	0
1	604	1389.233227830314	0
1	619	1438.672465126625	0
1	620	1439.86321787852	0
1	625	1446.386407934709	0
1	628	1450.468706615046	0
1	631	1465.471776737086	0
1	635	1472.526123282645	1
1	637	1477.260476761024	2
1	639	1478.758750500482	3
1	641	1484.290723402252	4
1	642	1484.340780796347	4
1	643	1489.439177751828	3
1	645	1490.187265864041	3
1	646	1494.919965053833	3
1	647	1496.4607269384	2
1	649	1500.847975289427	2
1	652	1503.860814134668	2
1	656	1508.857475936079	2
1	659	1513.434733443311	2
1	662	1521.224014212017	1
1	665	1529.171198883107	0
1	671	1534.984185702364	0
1	674	1546.946875453383	0
1	682	1584.596546818588	0
1	684	1584.900654196861	1
1	685	1587.516864054316	1
1	686	1587.612424484025	0
1	692	1604.854966012996	0
1	695	1607.189994927037	0
1	698	1608.92861649769	0
1	700	1610.735235706327	1
1	703	1622.108595149859	1
1	705	1622.440234149539	1
1	706	1623.826294504532	1
1	707	1627.823691924486	0
1	727	1725.797566812866	0
1	732	1733.213984850321	0
1	739	1744.043509672546	0
1	740	1748.586845164054	0
1	758	1790.574625413366	0
1	760	1793.295441535686	1
1	762	1796.601928198126	2
1	763	1802.766494222887	2
1	764	1811.559843608562	1
1	765	1816.357966921134	0
1	770	1830.0117169173	0
1	771	1842.848163913093	0
1	775	1848.743132659626	0
1	776	1849.662938869826	0
1	780	1853.658041950659	0
1	781	1854.499410823061	0
1	783	1855.784039861942	0
1	785	1857.679617678275	1
1	792	1872.115553707035	1
1	793	1878.749340907092	0
1	796	1882.457710465602	0
1	797	1884.780762106321	0
1	799	1885.04093721874	0
1	800	1886.792358865013	0
1	820	1925.63764088096	0
1	821	1927.619155868281	0
1	860	2022.200134446936	0
1	861	2022.483869790985	0
1	873	2032.794886553949	0
1	875	2040.625890296416	1
1	876	2043.547299006777	1
1	881	2045.853216755646	0
1	892	2053.878915809292	0
1	893	2058.919325362721	0
1	898	2064.153547375319	0
1	899	2066.587087280294	0
1	901	2068.750220991927	0
1	902	2072.706650808798	0
1	905	2081.78025563606	0
1	908	2082.783231396055	0
1	925	2126.915847722145	0
1	926	2131.089691407105	0
1	928	2137.731399979001	0
1	930	2139.643418030477	1
1	934	2146.629260054248	2
1	935	2146.716585785676	2
1	936	2156.293776476609	1
1	937	2157.885574962075	0
1	948	2179.771093233548	0
1	949	2184.379532939996	0
1	956	2196.627595088498	0
1	961	2207.580569810217	0
1	968	2216.971440694834	0
1	972	2226.000127713074	1
1	974	2228.447023846671	2
1	975	2230.02899487354	2
1	977	2234.20252635727	2
1	979	2237.414483346714	3
1	980	2239.012553418221	3
1	981	2243.656225590782	2
1	982	2246.63569138557	1
1	984	2249.077865559208	1
1	990	2259.534430219018	2
1	994	2277.923741025562	3
1	995	2283.726214784368	3
1	998	2285.458511330854	2
1	999	2288.406189169576	1
1	1001	2288.666116345938	1
1	1004	2290.278871516211	1
1	1005	2290.54442095589	0
1	1010	2296.659481833168	0
1	1011	2297.470052040209	0
1	1024	2330.015315462675	0
1	1025	2335.396523675289	0
1	1031	2350.915731692075	0
1	1043	2367.773846882979	1
1	1044	2370.595442254788	1
1	1045	2374.545335162326	0
1	1048	2378.574598955318	0
1	1049	2384.028280350389	0
1	1060	2425.11642804679	0
1	1061	2426.847865826237	0
1	1063	2431.98697731575	0
1	1066	2447.818742350901	0
1	1069	2458.246234532336	0
1	1070	2461.643705209589	0
1	1076	2481.626538504285	0
1	1077	2496.862962986354	0
2	124	354.747128827509	6.466510468601
2	135	372.125411417125	5.218670816705
2	142	385.478986202277	3.6941531891
2	149	390.615027314	4.364151806866
2	150	392.425782168523	2.676659598674
2	159	404.012857559346	4.463268759924
2	166	412.254791288845	9.750420273492
2	169	419.266070353774	10.767060663662
2	183	445.806935062139	1.989702504477
2	188	464.001043137995	18.633069275913
2	212	496.489923940657	18.486452249304
2	217	508.320775275243	23.720622054844
2	225	522.778365030037	5.276223565058
2	237	549.274929933982	20.232263628233
2	241	551.582388201408	1.858980262147
2	255	580.571186666237	17.643894216372
2	263	590.711873090973	4.441357430214
2	269	630.594864160258	3.750979623361
2	287	680.071491924577	32.717696621224
2	294	692.304831284754	29.866348987375
2	295	695.166405985072	14.246775585209
2	298	717.907576688645	20.465199728089
2	307	727.754790487659	1.991750260335
2	312	745.423366536703	6.922896593335
2	315	748.38115315226	9.203487677275
2	323	764.561746672656	2.034991381379
2	328	768.592310260007	3.278623074251
2	331	785.652153526677	6.281439700522
2	335	794.155046353648	3.079590855449
2	356	839.510445455133	13.783009618782
2	360	849.74888674139	8.080647948112
2	382	906.57783984781	0.347659216497
2	393	920.724176234619	2.394722599775
2	416	970.895776148806	13.507431974642
2	429	988.393892373271	30.670072132154
2	434	997.310004643905	32.188768164805
2	437	998.10084243196	27.475171130174
2	438	1000.557416825977	13.973984716206
2	441	1002.508956697179	15.115666637574
2	451	1013.309517109679	4.650645702869
2	473	1083.549042999092	13.393863271203
2	499	1143.433968192555	13.017667912966
2	500	1144.560686261914	12.512389023517
2	520	1212.100213158569	6.457766524336
2	525	1221.327489674617	4.710557789793
2	530	1229.71718677319	1.196729148187
2	548	1269.504967060415	14.770770128719
2	562	1292.077725978816	5.227345819304
2	567	1305.618269235257	2.774253790292
2	576	1330.363412938579	1.454313358327
2	583	1340.046659325878	2.658329242743
2	586	1347.816785969498	8.582957786416
2	589	1356.391631071253	13.096581030083
2	598	1380.36924766692	5.570123615268
2	604	1389.233227830314	1.882479533004
2	620	1439.86321787852	1.190752751895
2	628	1450.468706615046	4.082298680337
2	642	1484.340780796347	18.869004059261
2	643	1489.439177751828	16.913054469183
2	646	1494.919965053833	17.659488292809
2	647	1496.4607269384	17.701976437918
2	652	1503.860814134668	19.570090732416
2	659	1513.434733443311	23.24746757927
2	662	1521.224014212017	20.37603892259
2	665	1529.171198883107	20.313722947028
2	674	1546.946875453383	11.962689751019
2	685	1587.516864054316	2.920317235728
2	686	1587.612424484025	2.711770287164
2	695	1607.189994927037	2.335028914041
2	703	1622.108595149859	13.179978652169
2	706	1623.826294504532	13.091058798205
2	707	1627.823691924486	5.383457774947
2	732	1733.213984850321	7.416418037455
2	740	1748.586845164054	4.543335491508
2	763	1802.766494222887	12.191868809521
2	764	1811.559843608562	18.264402072876
2	765	1816.357966921134	19.756038723008
2	771	1842.848163913093	12.836446995793
2	776	1849.662938869826	0.9198062102
2	781	1854.499410823061	0.841368872402
2	792	1872.115553707035	16.331513845093
2	793	1878.749340907092	21.069723228817
2	797	1884.780762106321	2.323051640719
2	800	1886.792358865013	1.751421646273
2	821	1927.619155868281	1.981514987321
2	861	2022.483869790985	0.283735344049
2	876	2043.547299006777	10.752412452828
2	881	2045.853216755646	5.22732645923
2	893	2058.919325362721	5.040409553429
2	899	2066.587087280294	2.433539904975
2	902	2072.706650808798	3.956429816871
2	908	2082.783231396055	1.002975759995
2	926	2131.089691407105	4.17384368496
2	935	2146.716585785676	8.985185806675
2	936	2156.293776476609	16.650358446132
2	937	2157.885574962075	11.256314907827
2	949	2184.379532939996	4.608439706448
2	961	2207.580569810217	10.952974721719
2	975	2230.02899487354	13.057554178706
2	980	2239.012553418221	13.012425705147
2	981	2243.656225590782	15.209201744111
2	982	2246.63569138557	12.4331650283
2	995	2283.726214784368	46.311731437654
2	998	2285.458511330854	36.380645771646
2	999	2288.406189169576	28.871758950558
2	1004	2290.278871516211	12.355130490649
2	1005	2290.54442095589	1.878304609952
2	1011	2297.470052040209	0.810570207041
2	1025	2335.396523675289	5.381208212614
2	1044	2370.595442254788	19.679710562713
2	1045	2374.545335162326	6.771488279347
2	1049	2384.028280350389	5.453681395071
2	1061	2426.847865826237	1.731437779447
2	1066	2447.818742350901	15.831765035151
2	1070	2461.643705209589	3.397470677253
2	1077	2496.862962986354	15.236424482069
3	124	354.747128827509	24.757139675193
3	127	363.29325846643	33.279581531278
3	130	364.8273565602	18.969213980382
3	135	372.125411417125	23.844793058217
3	142	385.478986202277	37.058291930754
3	150	392.425782168523	33.55596627003
3	151	393.128111984397	29.552766502931
3	152	399.091092934873	32.184352334453
3	169	419.266070353774	47.371023531617
3	174	436.12491615262	58.201488876033
3	188	464.001043137995	82.216210124818
3	191	473.969001716325	89.169626587359
3	217	508.320775275243	122.06989976811
3	220	514.57038705794	126.94633253365
3	225	522.778365030037	123.22877623061
3	228	525.162181376642	121.45142611609
3	237	549.274929933982	139.39996884461
3	238	549.643050752689	138.55664316402
3	241	551.582388201408	138.13360437221
3	242	552.596047247947	129.93588979704
3	255	580.571186666237	146.7974308553
3	256	581.442423246614	144.9076934486
3	257	583.023569391054	140.47825045782
3	258	586.199447833359	142.3822152757
3	263	590.711873090973	139.21186370425
3	264	599.7890205343	139.3073318629
3	265	611.175495021318	138.84517186965
3	266	614.346576403539	138.05597417212
3	269	630.594864160258	152.5913924689
3	270	636.335951796137	154.75688572779
3	271	642.792364845701	158.67739399869
3	272	645.626903785304	161.21970034825
3	295	695.166405985072	208.33061079786
3	298	717.907576688645	227.38825039614
3	301	723.341276172161	230.93833423751
3	302	724.721368009023	228.38789339829
3	307	727.754790487659	231.19191214001
3	315	748.38115315226	247.68195641982
3	318	752.797880563045	242.18129248999
3	323	764.561746672656	248.15857781511
3	328	768.592310260007	251.09016879503
3	331	785.652153526677	261.66864683552
3	332	787.204195139976	258.16152883423
3	335	794.155046353648	253.04690642406
3	338	800.252669174096	256.35542883258
3	341	803.439149280734	258.1924781187
3	342	810.080640534407	260.35723259515
3	343	811.990269277099	259.30281169024
3	344	818.327417993146	255.40012554328
3	349	824.275142533314	257.46561465847
3	356	839.510445455133	270.7865559764
3	357	839.796886828461	270.49783806096
3	360	849.74888674139	276.26531083887
3	361	861.93480716449	275.66429150373
3	362	863.550623603816	273.9511147333
3	363	866.519625535344	239.67574099845
3	370	884.77422049248	237.42042518913
3	371	890.810938144381	238.13151910028
3	372	897.967775819681	234.11730569708
3	375	900.415501409443	233.91968539216
3	376	900.550758868712	226.37228197364
3	377	901.329622640536	226.89369108851
3	382	906.57783984781	220.7057962481
3	393	920.724176234619	233.21831725371
3	394	924.35727047721	226.91489351665
3	395	927.776606745348	208.60127281427
3	398	940.319147964258	214.55610773693
3	399	947.720839362751	221.94481216318
3	400	947.746112157584	209.24564221422
3	401	956.958925162837	209.27927973306
3	441	1002.508956697179	250.46343106872
3	446	1006.890431215493	251.25396558656
3	447	1007.189027901997	244.66227261072
3	448	1007.907787646965	242.59410046121
3	451	1013.309517109679	247.46294729955
3	452	1016.184805220203	236.81409139405
3	455	1027.836327322551	236.76087182435
3	458	1037.508541310536	239.57888520192
3	463	1057.950203487942	254.58338997554
3	464	1063.316243874884	241.29438962502
3	473	1083.549042999092	259.4568272462
3	480	1102.87826895439	277.15083311804
3	485	1105.386212805784	279.51592082243
3	488	1118.88977658289	288.68446996002
3	500	1144.560686261914	302.89244746864
3	501	1148.713277109946	272.21674750798
3	502	1154.835773034951	271.75677737589
3	505	1164.5981579217	280.48393292912
3	510	1182.98638000644	282.67680258294
3	511	1187.364749674165	284.67872112146
3	514	1193.041154141874	286.81097351056
3	515	1202.429999936644	294.58854184334
3	520	1212.100213158569	303.87672939481
3	525	1221.327489674617	307.34159317857
3	526	1221.603926355516	306.09270658699
3	527	1223.063742718345	304.7342890835
3	530	1229.71718677319	293.56701208914
3	537	1237.686695320639	280.33617242818
3	540	1238.315086071973	280.92674189781
3	541	1239.497547024393	279.95998064918
3	542	1243.298333151006	282.28331160153
3	543	1248.903797817207	275.09762682925
3	548	1269.504967060415	295.17118573731
3	553	1271.851589994087	286.11845859792
3	562	1292.077725978816	304.65923985206
3	567	1305.618269235257	315.90032479317
3	576	1330.363412938579	333.7280517357
3	589	1356.391631071253	358.88965361141
3	590	1362.475383112631	361.86100237872
3	593	1364.565989931602	361.62845051364
3	598	1380.36924766692	377.22933496944
3	599	1382.886789104	374.22791769719
3	604	1389.233227830314	365.77962517643
3	605	1395.428211923025	367.58410658133
3	606	1400.45727580711	359.99181099051
3	607	1403.274751430556	348.81392412374
3	608	1406.144113923539	340.66800310703
3	609	1410.658104463635	341.88115304802
3	610	1420.738395532246	350.58321580436
3	613	1426.272884975713	352.383031654
3	614	1430.37138073808	344.14768255611
3	617	1437.053843405143	350.02559188433
3	620	1439.86321787852	339.55148904273
3	623	1443.755186374042	340.81805997164
3	628	1450.468706615046	347.17253789947
3	629	1451.962236011846	346.41892861653
3	665	1529.171198883107	409.94040990638
3	666	1529.322702103103	408.32311025004
3	669	1532.189342050743	401.77304177115
3	674	1546.946875453383	414.38670288843
3	677	1562.449208959011	400.48886555366
3	678	1570.664495148087	393.46849775714
3	679	1577.859042096605	397.7776256218
3	680	1581.655325961829	394.03766042447
3	686	1587.612424484025	381.96997784979
3	687	1594.920518289296	383.98761479923
3	688	1596.523439818366	381.05411904216
3	689	1598.379978037337	381.76304615251
3	690	1603.927711145298	375.4072535203
3	695	1607.189994927037	376.97716045679
3	696	1607.473083357835	375.90552035002
3	707	1627.823691924486	394.66674302912
3	708	1634.19447296895	396.25648704115
3	711	1641.5510633786	386.8168664469
3	716	1655.789369111387	396.27256955476
3	721	1675.480992325239	404.9404436664
3	722	1679.205343993625	407.88454484163
3	723	1702.773086820869	428.51966546025
3	724	1704.097001610384	418.94421153664
3	725	1716.937698698756	430.08731853924
3	732	1733.213984850321	443.95838127157
3	733	1736.932864892348	437.67593148663
3	740	1748.586845164054	445.74282971909
3	745	1756.045867311876	443.59680009617
3	746	1759.927283947102	443.6477840763
3	747	1766.06934376088	438.27472850211
3	748	1768.171153548462	439.26205396821
3	751	1774.061433487572	440.27543563455
3	752	1777.734065857565	440.34573577443
3	753	1778.698754473775	430.31560575002
3	754	1782.994858774497	419.15271722917
3	765	1816.357966921134	448.54511139644
3	766	1817.714944815999	442.91582076435
3	771	1842.848163913093	455.49741561578
3	772	1846.051112586169	457.90649749949
3	773	1846.569428578054	425.61742143893
3	776	1849.662938869826	416.25284156487
3	781	1854.499410823061	415.82694569644
3	793	1878.749340907092	437.24988686355
3	794	1881.705150588745	435.31874265404
3	797	1884.780762106321	436.34998594288
3	800	1886.792358865013	421.32058212793
3	801	1887.596427505656	420.49668822565
3	802	1893.294824603854	392.02786453619
3	807	1903.935496994639	396.74530302055
3	808	1905.229496883065	393.96583820663
3	809	1909.878352495246	389.64372508252
3	810	1912.031428232618	388.64993166897
3	813	1914.768209356065	384.08794603344
3	816	1917.343666965276	382.35948126291
3	817	1921.512308194865	382.57901686577
3	818	1922.547338254544	366.8555506757
3	821	1927.619155868281	343.02260904969
3	822	1930.972992961028	326.11802694803
3	825	1939.300796874333	333.59499220696
3	826	1943.289749783473	334.36113328578
3	829	1947.776817713698	328.76048407436
3	830	1951.315215138415	310.20432086539
3	835	1976.578728166013	329.96864070286
3	836	1980.601967446571	332.65873464877
3	839	1991.615391809169	328.78488361417
3	840	1992.119430798167	324.41955106676
3	841	1994.886134657386	269.08856784452
3	842	1995.658462688683	268.59842810312
3	845	1996.768323925262	264.19245019314
3	846	1997.549967428133	257.41868333219
3	847	1998.349238334678	256.2608218764
3	848	2000.088884266972	256.04537459443
3	855	2015.490971386627	260.77774519923
3	858	2020.17253385029	265.34734190063
3	861	2022.483869790985	249.36856503071
3	862	2023.590949442671	235.70556636272
3	863	2025.093568340069	234.5189429267
3	881	2045.853216755646	226.09566521909
3	882	2046.731655302605	216.7199383853
3	893	2058.919325362721	210.17619270309
3	896	2063.490039162042	213.53802379939
3	899	2066.587087280294	212.92904532963
3	902	2072.706650808798	216.92261094686
3	903	2081.401567442799	221.43076501897
3	908	2082.783231396055	219.87635326943
3	911	2088.335225229713	225.38456236817
3	912	2093.024867474533	210.56715700893
3	913	2098.886850079449	213.84591286071
3	914	2103.329064589205	208.03480798698
3	915	2105.849279088845	207.59328313955
3	918	2108.916784268879	195.79723053748
3	921	2112.165588769936	195.21798219756
3	922	2113.195264809037	187.55762392808
3	923	2124.485397205964	189.53959535029
3	926	2131.089691407105	186.28927437437
3	937	2157.885574962075	206.34184335706
3	940	2163.488902888575	201.29825531652
3	949	2184.379532939996	194.43619466714
3	952	2188.0379647991	192.15362876289
3	961	2207.580569810217	207.116988905
3	962	2210.676773740614	207.42658069213
3	1005	2290.54442095589	279.6369814839
3	1008	2294.808971505831	277.54272779285
3	1011	2297.470052040209	275.26991759327
3	1014	2304.581255581279	278.62571180125
3	1015	2311.183875179599	284.93368592501
3	1018	2315.753392267726	286.75844883114
3	1019	2317.720596983801	288.51506358365
3	1020	2318.14073661886	285.34585006491
3	1025	2335.396523675289	290.82654266831
3	1026	2343.969981428281	298.35488356283
3	1029	2347.14139699531	299.5230703051
3	1045	2374.545335162326	326.87024041166
3	1046	2377.374906331606	328.09639970913
3	1049	2384.028280350389	332.00721716955
3	1052	2389.986916536663	336.10800072737
3	1053	2401.548066428631	339.61501596546
3	1054	2413.27127770845	349.11773033313
3	1055	2413.696457516398	344.94623652447
3	1058	2419.116265837708	337.33601020165
3	1061	2426.847865826237	344.88366647094
3	1066	2447.818742350901	363.82166649958
3	1067	2456.015708514435	348.17112703231
3	1070	2461.643705209589	350.10501115258
3	1073	2474.384329471551	347.46848174941
3	1074	2480.216916745139	342.48551676614
3	1077	2496.862962986354	353.16119759891
4	126	358.869815898493	6
4	129	363.575345481466	6
4	134	371.895046822157	6
4	137	377.923427276587	7
4	141	384.799375128966	8
4	146	387.624054524293	9
4	158	403.710755260551	8
4	163	409.874961089375	9
4	165	411.086407588665	10
4	168	413.4487838292	11
4	171	422.660157450908	12
4	173	433.773755810936	13
4	176	436.534729798009	13
4	178	442.545318933231	14
4	185	451.500009386721	15
4	187	460.481688671399	16
4	190	472.330323151671	17
4	193	476.290602231417	17
4	197	481.579066068344	18
4	199	484.114970847012	19
4	201	484.407203437057	20
4	205	486.835795187214	21
4	207	490.519326292506	22
4	209	492.402941934648	23
4	211	496.333474610729	24
4	214	496.562878347646	25
4	216	500.699196732436	26
4	219	510.616588073054	27
4	222	516.403168857546	27
4	227	523.983506691155	28
4	232	541.108139929585	28
4	234	543.897240341514	29
4	236	545.246671162031	30
4	244	552.687457586862	29
4	248	566.809527874848	30
4	250	568.72388947873	31
4	252	569.299048767503	32
4	254	573.483575902518	33
4	262	589.599508870518	31
4	276	652.679419044099	26
4	280	663.850470122602	27
4	282	666.495816017287	28
4	284	674.178476895076	29
4	286	674.435931552021	30
4	291	685.87204359971	31
4	293	687.505858980912	32
4	300	719.175333931076	33
4	306	725.776027199568	32
4	314	747.679645429777	33
4	317	752.045525628458	34
4	320	755.63646562893	34
4	327	765.846569810133	35
4	337	797.929656108619	35
4	340	803.366813512402	35
4	346	822.021854249861	32
4	348	824.092215752893	33
4	353	825.870291983351	33
4	355	830.205306622871	34
4	365	876.496529601967	31
4	367	883.078995659064	32
4	369	884.114224992584	33
4	374	900.309577423501	31
4	379	902.686028552706	29
4	384	907.841458093308	30
4	386	908.22348376376	31
4	388	913.985896496045	32
4	390	915.511219768531	33
4	397	936.150174684048	32
4	403	957.350522892456	29
4	409	959.537566375211	30
4	411	961.015021549476	31
4	418	973.806170987952	32
4	420	974.3337813231	33
4	422	985.733131396166	34
4	428	987.418486126761	35
4	431	989.71794444209	36
4	433	996.635361202879	37
4	436	997.50197745984	38
4	440	1000.614380733914	39
4	443	1002.93753941796	40
4	445	1003.139912697479	41
4	454	1023.453602653883	38
4	457	1027.844105341699	38
4	460	1040.4654648166	38
4	462	1054.46082730682	39
4	466	1065.476110816513	38
4	468	1068.776951415614	39
4	472	1073.889853321717	40
4	475	1086.223698181971	41
4	477	1087.028251520815	42
4	479	1100.311728835791	43
4	482	1102.937126402404	43
4	484	1103.296168715579	44
4	487	1105.543307395317	44
4	490	1119.230788976723	44
4	492	1120.999591853058	45
4	498	1132.560172564953	46
4	504	1161.96034340535	45
4	507	1177.195997390942	45
4	509	1180.081416474803	46
4	513	1187.617665537362	45
4	519	1210.932903490067	44
4	522	1215.469320776207	45
4	532	1230.212834470246	44
4	534	1231.567563007815	45
4	536	1233.156948895368	46
4	539	1237.937985927801	46
4	547	1259.516799556624	43
4	550	1270.540548658841	44
4	552	1271.320799151996	45
4	555	1274.253421360614	45
4	557	1285.152790073744	46
4	561	1289.255603578751	47
4	564	1299.256933405716	48
4	569	1312.449067215708	49
4	571	1316.279499870803	50
4	573	1327.794615258772	51
4	578	1333.785997853023	52
4	588	1348.383148723751	53
4	592	1363.842141545331	53
4	595	1367.812855524695	53
4	603	1388.144615086676	53
4	612	1420.952007139121	48
4	616	1433.410097304958	47
4	622	1441.499454043538	47
4	627	1448.430776163437	47
4	633	1467.099739280006	47
4	651	1501.266960067661	48
4	654	1507.19019397409	49
4	658	1511.263658676434	50
4	661	1520.234627412726	51
4	664	1523.381496563648	52
4	668	1530.680263322624	52
4	673	1538.93329132909	52
4	676	1555.691787578848	53
4	694	1605.705804667371	46
4	702	1619.016333639338	46
4	710	1641.110894273024	46
4	713	1646.610087463157	46
4	715	1647.9432327978	47
4	718	1662.830508195001	47
4	720	1667.699879731407	48
4	729	1727.060034585561	44
4	731	1732.575873732124	45
4	735	1740.131284095942	45
4	737	1742.088416458281	46
4	742	1754.713226187395	47
4	744	1754.825191949659	48
4	750	1773.115304760274	45
4	756	1787.885383079952	42
4	768	1819.757551536556	42
4	778	1849.952015362654	41
4	787	1859.97080242383	42
4	789	1862.906878126622	43
4	791	1862.950662861538	44
4	804	1895.294256602229	42
4	806	1898.255995949292	43
4	812	1913.119553731396	40
4	815	1916.947606572373	40
4	824	1934.945801855677	37
4	828	1944.800417032737	36
4	832	1951.543731605016	35
4	834	1962.190647572055	36
4	838	1989.943338272855	35
4	844	1995.884336036208	32
4	850	2000.46358090522	29
4	852	2003.250193048485	30
4	854	2010.907439471988	31
4	857	2017.266243712978	31
4	865	2025.955543780031	29
4	867	2026.250189254591	30
4	869	2028.994943436586	31
4	871	2029.205533400149	32
4	878	2044.569981006974	33
4	880	2045.615097865451	34
4	884	2047.618326690206	34
4	886	2047.675094750662	35
4	888	2049.278506622473	36
4	890	2052.021063180835	37
4	895	2061.933050463169	38
4	907	2081.964199355301	37
4	910	2083.997075851319	38
4	917	2107.844581482129	34
4	920	2111.538694057014	34
4	932	2143.701765387448	32
4	939	2162.923318210554	33
4	942	2164.078018129687	33
4	944	2164.966107423185	34
4	946	2177.139364210375	35
4	951	2185.971923398421	36
4	954	2191.392652329195	36
4	958	2200.589757462497	37
4	960	2201.991001515014	38
4	964	2210.81382373994	38
4	966	2215.667939719317	39
4	970	2222.785535370716	40
4	986	2249.093811858206	41
4	988	2252.210084213817	42
4	992	2270.85175116467	43
4	997	2284.066064280049	44
4	1003	2289.114500274871	45
4	1007	2292.754600115712	46
4	1013	2297.876878442418	46
4	1017	2313.85941372327	45
4	1022	2319.616467540876	43
4	1028	2344.407621983521	43
4	1033	2354.253585186833	43
4	1035	2360.11653716303	44
4	1037	2363.244942743716	45
4	1039	2365.001793650137	46
4	1041	2367.084833730502	47
4	1051	2389.69848845301	47
4	1057	2415.469235353027	44
4	1065	2442.832758320266	44
4	1072	2470.443226876066	44
4	1079	2498.157739472885	43
5	126	358.869815898493	5
5	127	363.29325846643	5
5	129	363.575345481466	5
5	130	364.8273565602	5
5	134	371.895046822157	5
5	137	377.923427276587	6
5	141	384.799375128966	7
5	146	387.624054524293	8
5	151	393.128111984397	8
5	152	399.091092934873	7
5	158	403.710755260551	7
5	163	409.874961089375	8
5	165	411.086407588665	9
5	168	413.4487838292	10
5	171	422.660157450908	11
5	173	433.773755810936	12
5	174	436.12491615262	12
5	176	436.534729798009	12
5	178	442.545318933231	13
5	185	451.500009386721	14
5	187	460.481688671399	15
5	190	472.330323151671	16
5	191	473.969001716325	16
5	193	476.290602231417	16
5	197	481.579066068344	17
5	199	484.114970847012	18
5	201	484.407203437057	19
5	205	486.835795187214	20
5	207	490.519326292506	21
5	209	492.402941934648	22
5	211	496.333474610729	23
5	214	496.562878347646	24
5	216	500.699196732436	25
5	219	510.616588073054	26
5	220	514.57038705794	26
5	222	516.403168857546	26
5	227	523.983506691155	27
5	228	525.162181376642	27
5	232	541.108139929585	27
5	234	543.897240341514	28
5	236	545.246671162031	29
5	238	549.643050752689	29
5	242	552.596047247947	28
5	244	552.687457586862	28
5	248	566.809527874848	29
5	250	568.72388947873	30
5	252	569.299048767503	31
5	254	573.483575902518	32
5	256	581.442423246614	32
5	257	583.023569391054	31
5	258	586.199447833359	30
5	262	589.599508870518	30
5	264	599.7890205343	30
5	265	611.175495021318	29
5	266	614.346576403539	28
5	270	636.335951796137	27
5	271	642.792364845701	26
5	272	645.626903785304	25
5	276	652.679419044099	25
5	280	663.850470122602	26
5	282	666.495816017287	27
5	284	674.178476895076	28
5	286	674.435931552021	29
5	291	685.87204359971	30
5	293	687.505858980912	31
5	300	719.175333931076	32
5	301	723.341276172161	32
5	302	724.721368009023	31
5	306	725.776027199568	31
5	314	747.679645429777	32
5	317	752.045525628458	33
5	318	752.797880563045	33
5	320	755.63646562893	33
5	327	765.846569810133	34
5	332	787.204195139976	34
5	337	797.929656108619	34
5	338	800.252669174096	34
5	340	803.366813512402	34
5	341	803.439149280734	34
5	342	810.080640534407	33
5	343	811.990269277099	32
5	344	818.327417993146	31
5	346	822.021854249861	31
5	348	824.092215752893	32
5	349	824.275142533314	32
5	353	825.870291983351	32
5	355	830.205306622871	33
5	357	839.796886828461	33
5	361	861.93480716449	32
5	362	863.550623603816	31
5	363	866.519625535344	30
5	365	876.496529601967	30
5	367	883.078995659064	31
5	369	884.114224992584	32
5	370	884.77422049248	32
5	371	890.810938144381	31
5	372	897.967775819681	30
5	374	900.309577423501	30
5	375	900.415501409443	30
5	376	900.550758868712	29
5	377	901.329622640536	28
5	379	902.686028552706	28
5	384	907.841458093308	29
5	386	908.22348376376	30
5	388	913.985896496045	31
5	390	915.511219768531	32
5	394	924.35727047721	32
5	395	927.776606745348	31
5	397	936.150174684048	31
5	398	940.319147964258	31
5	399	947.720839362751	30
5	400	947.746112157584	29
5	401	956.958925162837	28
5	403	957.350522892456	28
5	409	959.537566375211	29
5	411	961.015021549476	30
5	418	973.806170987952	31
5	420	974.3337813231	32
5	422	985.733131396166	33
5	428	987.418486126761	34
5	431	989.71794444209	35
5	433	996.635361202879	36
5	436	997.50197745984	37
5	440	1000.614380733914	38
5	443	1002.93753941796	39
5	445	1003.139912697479	40
5	446	1006.890431215493	40
5	447	1007.189027901997	39
5	448	1007.907787646965	38
5	452	1016.184805220203	37
5	454	1023.453602653883	37
5	455	1027.836327322551	37
5	457	1027.844105341699	37
5	458	1037.508541310536	37
5	460	1040.4654648166	37
5	462	1054.46082730682	38
5	463	1057.950203487942	38
5	464	1063.316243874884	37
5	466	1065.476110816513	37
5	468	1068.776951415614	38
5	472	1073.889853321717	39
5	475	1086.223698181971	40
5	477	1087.028251520815	41
5	479	1100.311728835791	42
5	480	1102.87826895439	42
5	482	1102.937126402404	42
5	484	1103.296168715579	43
5	485	1105.386212805784	43
5	487	1105.543307395317	43
5	488	1118.88977658289	43
5	490	1119.230788976723	43
5	492	1120.999591853058	44
5	498	1132.560172564953	45
5	501	1148.713277109946	45
5	502	1154.835773034951	44
5	504	1161.96034340535	44
5	505	1164.5981579217	44
5	507	1177.195997390942	44
5	509	1180.081416474803	45
5	510	1182.98638000644	45
5	511	1187.364749674165	44
5	513	1187.617665537362	44
5	514	1193.041154141874	44
5	515	1202.429999936644	43
5	519	1210.932903490067	43
5	522	1215.469320776207	44
5	526	1221.603926355516	44
5	527	1223.063742718345	43
5	532	1230.212834470246	43
5	534	1231.567563007815	44
5	536	1233.156948895368	45
5	537	1237.686695320639	45
5	539	1237.937985927801	45
5	540	1238.315086071973	45
5	541	1239.497547024393	44
5	542	1243.298333151006	43
5	543	1248.903797817207	42
5	547	1259.516799556624	42
5	550	1270.540548658841	43
5	552	1271.320799151996	44
5	553	1271.851589994087	44
5	555	1274.253421360614	44
5	557	1285.152790073744	45
5	561	1289.255603578751	46
5	564	1299.256933405716	47
5	569	1312.449067215708	48
5	571	1316.279499870803	49
5	573	1327.794615258772	50
5	578	1333.785997853023	51
5	588	1348.383148723751	52
5	590	1362.475383112631	52
5	592	1363.842141545331	52
5	593	1364.565989931602	52
5	595	1367.812855524695	52
5	599	1382.886789104	52
5	603	1388.144615086676	52
5	605	1395.428211923025	52
5	606	1400.45727580711	51
5	607	1403.274751430556	50
5	608	1406.144113923539	49
5	609	1410.658104463635	48
5	610	1420.738395532246	47
5	612	1420.952007139121	47
5	613	1426.272884975713	47
5	614	1430.37138073808	46
5	616	1433.410097304958	46
5	617	1437.053843405143	46
5	622	1441.499454043538	46
5	623	1443.755186374042	46
5	627	1448.430776163437	46
5	629	1451.962236011846	46
5	633	1467.099739280006	46
5	651	1501.266960067661	47
5	654	1507.19019397409	48
5	658	1511.263658676434	49
5	661	1520.234627412726	50
5	664	1523.381496563648	51
5	666	1529.322702103103	51
5	668	1530.680263322624	51
5	669	1532.189342050743	51
5	673	1538.93329132909	51
5	676	1555.691787578848	52
5	677	1562.449208959011	52
5	678	1570.664495148087	51
5	679	1577.859042096605	50
5	680	1581.655325961829	49
5	687	1594.920518289296	48
5	688	1596.523439818366	47
5	689	1598.379978037337	46
5	690	1603.927711145298	45
5	694	1605.705804667371	45
5	696	1607.473083357835	45
5	702	1619.016333639338	45
5	708	1634.19447296895	45
5	710	1641.110894273024	45
5	711	1641.5510633786	45
5	713	1646.610087463157	45
5	715	1647.9432327978	46
5	716	1655.789369111387	46
5	718	1662.830508195001	46
5	720	1667.699879731407	47
5	721	1675.480992325239	47
5	722	1679.205343993625	46
5	723	1702.773086820869	45
5	724	1704.097001610384	44
5	725	1716.937698698756	43
5	729	1727.060034585561	43
5	731	1732.575873732124	44
5	733	1736.932864892348	44
5	735	1740.131284095942	44
5	737	1742.088416458281	45
5	742	1754.713226187395	46
5	744	1754.825191949659	47
5	745	1756.045867311876	47
5	746	1759.927283947102	46
5	747	1766.06934376088	45
5	748	1768.171153548462	44
5	750	1773.115304760274	44
5	751	1774.061433487572	44
5	752	1777.734065857565	43
5	753	1778.698754473775	42
5	754	1782.994858774497	41
5	756	1787.885383079952	41
5	766	1817.714944815999	41
5	768	1819.757551536556	41
5	772	1846.051112586169	41
5	773	1846.569428578054	40
5	778	1849.952015362654	40
5	787	1859.97080242383	41
5	789	1862.906878126622	42
5	791	1862.950662861538	43
5	794	1881.705150588745	43
5	801	1887.596427505656	42
5	802	1893.294824603854	41
5	804	1895.294256602229	41
5	806	1898.255995949292	42
5	807	1903.935496994639	42
5	808	1905.229496883065	41
5	809	1909.878352495246	40
5	810	1912.031428232618	39
5	812	1913.119553731396	39
5	813	1914.768209356065	39
5	815	1916.947606572373	39
5	816	1917.343666965276	39
5	817	1921.512308194865	38
5	818	1922.547338254544	37
5	822	1930.972992961028	36
5	824	1934.945801855677	36
5	825	1939.300796874333	36
5	826	1943.289749783473	35
5	828	1944.800417032737	35
5	829	1947.776817713698	35
5	830	1951.315215138415	34
5	832	1951.543731605016	34
5	834	1962.190647572055	35
5	835	1976.578728166013	35
5	836	1980.601967446571	34
5	838	1989.943338272855	34
5	839	1991.615391809169	34
5	840	1992.119430798167	33
5	841	1994.886134657386	32
5	842	1995.658462688683	31
5	844	1995.884336036208	31
5	845	1996.768323925262	31
5	846	1997.549967428133	30
5	847	1998.349238334678	29
5	848	2000.088884266972	28
5	850	2000.46358090522	28
5	852	2003.250193048485	29
5	854	2010.907439471988	30
5	855	2015.490971386627	30
5	857	2017.266243712978	30
5	858	2020.17253385029	30
5	862	2023.590949442671	29
5	863	2025.093568340069	28
5	865	2025.955543780031	28
5	867	2026.250189254591	29
5	869	2028.994943436586	30
5	871	2029.205533400149	31
5	878	2044.569981006974	32
5	880	2045.615097865451	33
5	882	2046.731655302605	33
5	884	2047.618326690206	33
5	886	2047.675094750662	34
5	888	2049.278506622473	35
5	890	2052.021063180835	36
5	895	2061.933050463169	37
5	896	2063.490039162042	37
5	903	2081.401567442799	36
5	907	2081.964199355301	36
5	910	2083.997075851319	37
5	911	2088.335225229713	37
5	912	2093.024867474533	36
5	913	2098.886850079449	35
5	914	2103.329064589205	34
5	915	2105.849279088845	33
5	917	2107.844581482129	33
5	918	2108.916784268879	33
5	920	2111.538694057014	33
5	921	2112.165588769936	33
5	922	2113.195264809037	32
5	923	2124.485397205964	31
5	932	2143.701765387448	31
5	939	2162.923318210554	32
5	940	2163.488902888575	32
5	942	2164.078018129687	32
5	944	2164.966107423185	33
5	946	2177.139364210375	34
5	951	2185.971923398421	35
5	952	2188.0379647991	35
5	954	2191.392652329195	35
5	958	2200.589757462497	36
5	960	2201.991001515014	37
5	962	2210.676773740614	37
5	964	2210.81382373994	37
5	966	2215.667939719317	38
5	970	2222.785535370716	39
5	986	2249.093811858206	40
5	988	2252.210084213817	41
5	992	2270.85175116467	42
5	997	2284.066064280049	43
5	1003	2289.114500274871	44
5	1007	2292.754600115712	45
5	1008	2294.808971505831	45
5	1013	2297.876878442418	45
5	1014	2304.581255581279	45
5	1015	2311.183875179599	44
5	1017	2313.85941372327	44
5	1018	2315.753392267726	44
5	1019	2317.720596983801	43
5	1020	2318.14073661886	42
5	1022	2319.616467540876	42
5	1026	2343.969981428281	42
5	1028	2344.407621983521	42
5	1029	2347.14139699531	42
5	1033	2354.253585186833	42
5	1035	2360.11653716303	43
5	1037	2363.244942743716	44
5	1039	2365.001793650137	45
5	1041	2367.084833730502	46
5	1046	2377.374906331606	46
5	1051	2389.69848845301	46
5	1052	2389.986916536663	46
5	1053	2401.548066428631	45
5	1054	2413.27127770845	44
5	1055	2413.696457516398	43
5	1057	2415.469235353027	43
5	1058	2419.116265837708	43
5	1065	2442.832758320266	43
5	1067	2456.015708514435	43
5	1072	2470.443226876066	43
5	1073	2474.384329471551	43
5	1074	2480.216916745139	42
5	1079	2498.157739472885	42
6	127	363.29325846643	29
6	130	364.8273565602	30
6	151	393.128111984397	31
6	152	399.091092934873	32
6	174	436.12491615262	33
6	191	473.969001716325	34
6	220	514.57038705794	35
6	228	525.162181376642	36
6	238	549.643050752689	37
6	242	552.596047247947	38
6	256	581.442423246614	39
6	257	583.023569391054	40
6	258	586.199447833359	41
6	264	599.7890205343	42
6	265	611.175495021318	43
6	266	614.346576403539	44
6	270	636.335951796137	45
6	271	642.792364845701	46
6	272	645.626903785304	47
6	301	723.341276172161	48
6	302	724.721368009023	49
6	318	752.797880563045	50
6	332	787.204195139976	51
6	338	800.252669174096	52
6	341	803.439149280734	53
6	342	810.080640534407	54
6	343	811.990269277099	55
6	344	818.327417993146	56
6	349	824.275142533314	57
6	357	839.796886828461	58
6	361	861.93480716449	59
6	362	863.550623603816	60
6	363	866.519625535344	61
6	370	884.77422049248	62
6	371	890.810938144381	63
6	372	897.967775819681	64
6	375	900.415501409443	65
6	376	900.550758868712	66
6	377	901.329622640536	67
6	394	924.35727047721	68
6	395	927.776606745348	69
6	398	940.319147964258	70
6	399	947.720839362751	71
6	400	947.746112157584	72
6	401	956.958925162837	73
6	446	1006.890431215493	74
6	447	1007.189027901997	75
6	448	1007.907787646965	76
6	452	1016.184805220203	77
6	455	1027.836327322551	78
6	458	1037.508541310536	79
6	463	1057.950203487942	80
6	464	1063.316243874884	81
6	480	1102.87826895439	82
6	485	1105.386212805784	83
6	488	1118.88977658289	84
6	501	1148.713277109946	85
6	502	1154.835773034951	86
6	505	1164.5981579217	87
6	510	1182.98638000644	88
6	511	1187.364749674165	89
6	514	1193.041154141874	90
6	515	1202.429999936644	91
6	526	1221.603926355516	92
6	527	1223.063742718345	93
6	537	1237.686695320639	94
6	540	1238.315086071973	95
6	541	1239.497547024393	96
6	542	1243.298333151006	97
6	543	1248.903797817207	98
6	553	1271.851589994087	99
6	590	1362.475383112631	100
6	593	1364.565989931602	101
6	599	1382.886789104	102
6	605	1395.428211923025	103
6	606	1400.45727580711	104
6	607	1403.274751430556	105
6	608	1406.144113923539	106
6	609	1410.658104463635	107
6	610	1420.738395532246	108
6	613	1426.272884975713	109
6	614	1430.37138073808	110
6	617	1437.053843405143	111
6	623	1443.755186374042	112
6	629	1451.962236011846	113
6	666	1529.322702103103	114
6	669	1532.189342050743	115
6	677	1562.449208959011	116
6	678	1570.664495148087	117
6	679	1577.859042096605	118
6	680	1581.655325961829	119
6	687	1594.920518289296	120
6	688	1596.523439818366	121
6	689	1598.379978037337	122
6	690	1603.927711145298	123
6	696	1607.473083357835	124
6	708	1634.19447296895	125
6	711	1641.5510633786	126
6	716	1655.789369111387	127
6	721	1675.480992325239	128
6	722	1679.205343993625	129
6	723	1702.773086820869	130
6	724	1704.097001610384	131
6	725	1716.937698698756	132
6	733	1736.932864892348	133
6	745	1756.045867311876	134
6	746	1759.927283947102	135
6	747	1766.06934376088	136
6	748	1768.171153548462	137
6	751	1774.061433487572	138
6	752	1777.734065857565	139
6	753	1778.698754473775	140
6	754	1782.994858774497	141
6	766	1817.714944815999	142
6	772	1846.051112586169	143
6	773	1846.569428578054	144
6	794	1881.705150588745	145
6	801	1887.596427505656	146
6	802	1893.294824603854	147
6	807	1903.935496994639	148
6	808	1905.229496883065	149
6	809	1909.878352495246	150
6	810	1912.031428232618	151
6	813	1914.768209356065	152
6	816	1917.343666965276	153
6	817	1921.512308194865	154
6	818	1922.547338254544	155
6	822	1930.972992961028	156
6	825	1939.300796874333	157
6	826	1943.289749783473	158
6	829	1947.776817713698	159
6	830	1951.315215138415	160
6	835	1976.578728166013	161
6	836	1980.601967446571	162
6	839	1991.615391809169	163
6	840	1992.119430798167	164
6	841	1994.886134657386	165
6	842	1995.658462688683	166
6	845	1996.768323925262	167
6	846	1997.549967428133	168
6	847	1998.349238334678	169
6	848	2000.088884266972	170
6	855	2015.490971386627	171
6	858	2020.17253385029	172
6	862	2023.590949442671	173
6	863	2025.093568340069	174
6	882	2046.731655302605	175
6	896	2063.490039162042	176
6	903	2081.401567442799	177
6	911	2088.335225229713	178
6	912	2093.024867474533	179
6	913	2098.886850079449	180
6	914	2103.329064589205	181
6	915	2105.849279088845	182
6	918	2108.916784268879	183
6	921	2112.165588769936	184
6	922	2113.195264809037	185
6	923	2124.485397205964	186
6	940	2163.488902888575	187
6	952	2188.0379647991	188
6	962	2210.676773740614	189
6	1008	2294.808971505831	190
6	1014	2304.581255581279	191
6	1015	2311.183875179599	192
6	1018	2315.753392267726	193
6	1019	2317.720596983801	194
6	1020	2318.14073661886	195
6	1026	2343.969981428281	196
6	1029	2347.14139699531	197
6	1046	2377.374906331606	198
6	1052	2389.986916536663	199
6	1053	2401.548066428631	200
6	1054	2413.27127770845	201
6	1055	2413.696457516398	202
6	1058	2419.116265837708	203
6	1067	2456.015708514435	204
6	1073	2474.384329471551	205
6	1074	2480.216916745139	206
7	127	363.29325846643	33.303269314114
7	130	364.8273565602	34.813679625048
7	151	393.128111984397	34.258296085904
7	152	399.091092934873	35.515747453407
7	174	436.12491615262	64.229869330463
7	191	473.969001716325	92.184168703148
7	220	514.57038705794	128.31951155081
7	228	525.162181376642	125.61259257722
7	238	549.643050752689	139.76808966331
7	242	552.596047247947	139.14726341875
7	256	581.442423246614	147.66866743568
7	257	583.023569391054	146.48883959304
7	258	586.199447833359	143.65412890013
7	264	599.7890205343	148.28901114758
7	265	611.175495021318	150.69380634992
7	266	614.346576403539	142.01625325187
7	270	636.335951796137	158.33248010478
7	271	642.792364845701	161.21329877736
7	272	645.626903785304	161.51193293829
7	301	723.341276172161	232.82194987965
7	302	724.721368009023	232.31842607437
7	318	752.797880563045	252.09868383061
7	332	787.204195139976	263.22068844882
7	338	800.252669174096	259.14452924451
7	341	803.439149280734	259.54190893922
7	342	810.080640534407	264.83396937238
7	343	811.990269277099	262.26686133784
7	344	818.327417993146	265.63996040628
7	349	824.275142533314	261.34785008345
7	357	839.796886828461	271.07299734973
7	361	861.93480716449	288.45123126197
7	362	863.550623603816	277.28010794306
7	363	866.519625535344	276.92011666483
7	370	884.77422049248	257.93033595558
7	371	890.810938144381	243.45714284103
7	372	897.967775819681	245.28835677558
7	375	900.415501409443	236.56503128684
7	376	900.550758868712	234.05494285142
7	377	901.329622640536	227.15114574546
7	394	924.35727047721	236.8514114963
7	395	927.776606745348	230.33422978479
7	398	940.319147964258	221.14381403318
7	399	947.720839362751	221.95779913543
7	400	947.746112157584	221.97008495802
7	401	956.958925162837	218.45845521947
7	446	1006.890431215493	254.84490558703
7	447	1007.189027901997	251.55256227307
7	448	1007.907787646965	245.38103235569
7	452	1016.184805220203	250.33823541007
7	455	1027.836327322551	248.4656134964
7	458	1037.508541310536	246.43308581234
7	463	1057.950203487942	260.02054737932
7	464	1063.316243874884	259.94943036248
7	480	1102.87826895439	278.7860532015
7	485	1105.386212805784	279.65877696943
7	488	1118.88977658289	293.01948459954
7	501	1148.713277109946	307.04503831667
7	502	1154.835773034951	278.33924343298
7	505	1164.5981579217	281.51916226264
7	510	1182.98638000644	298.87215501386
7	511	1187.364749674165	287.05517225066
7	514	1193.041154141874	290.35512558917
7	515	1202.429999936644	296.19981930533
7	526	1221.603926355516	307.61802985947
7	527	1223.063742718345	307.55252294981
7	537	1237.686695320639	301.53652063659
7	540	1238.315086071973	280.96456317952
7	541	1239.497547024393	282.10920285023
7	542	1243.298333151006	283.76076677579
7	543	1248.903797817207	287.88877626773
7	553	1271.851589994087	297.51780867099
7	590	1362.475383112631	364.97340565279
7	593	1364.565989931602	363.95160919769
7	599	1382.886789104	379.74687640652
7	605	1395.428211923025	371.97460926914
7	606	1400.45727580711	372.61317046541
7	607	1403.274751430556	362.80928661396
7	608	1406.144113923539	351.68328661672
7	609	1410.658104463635	345.18199364712
7	610	1420.738395532246	351.96144411663
7	613	1426.272884975713	356.11770524782
7	614	1430.37138073808	356.48152741636
7	617	1437.053843405143	350.83014522317
7	623	1443.755186374042	343.44345753825
7	629	1451.962236011846	348.66606729627
7	666	1529.322702103103	410.09191312638
7	669	1532.189342050743	411.18975019768
7	677	1562.449208959011	429.88903639406
7	678	1570.664495148087	408.70415174274
7	679	1577.859042096605	400.66304470566
7	680	1581.655325961829	401.57390948703
7	687	1594.920518289296	389.27807165506
7	688	1596.523439818366	385.5905363283
7	689	1598.379978037337	382.91065726113
7	690	1603.927711145298	387.31077926047
7	696	1607.473083357835	377.26024888759
7	708	1634.19447296895	401.03752407358
7	711	1641.5510633786	403.6130774508
7	716	1655.789369111387	401.05517217969
7	721	1675.480992325239	415.96419276861
7	722	1679.205343993625	408.66479533478
7	723	1702.773086820869	431.45228766887
7	724	1704.097001610384	429.84358024977
7	725	1716.937698698756	431.78490862501
7	733	1736.932864892348	447.6772613136
7	745	1756.045867311876	453.20185186691
7	746	1759.927283947102	447.47821673139
7	747	1766.06934376088	449.78984389008
7	748	1768.171153548462	440.37653828969
7	751	1774.061433487572	445.15233390732
7	752	1777.734065857565	443.94806800454
7	753	1778.698754473775	441.31042439064
7	754	1782.994858774497	434.61171005075
7	766	1817.714944815999	449.9020892913
7	772	1846.051112586169	458.70036428886
7	773	1846.569428578054	458.42481349138
7	794	1881.705150588745	440.20569654521
7	801	1887.596427505656	422.12465076857
7	802	1893.294824603854	426.19508532385
7	807	1903.935496994639	402.66853692698
7	808	1905.229496883065	398.03930290898
7	809	1909.878352495246	398.61469381881
7	810	1912.031428232618	391.79680081989
7	813	1914.768209356065	391.38671279242
7	816	1917.343666965276	386.66340364265
7	817	1921.512308194865	386.5281224925
7	818	1922.547338254544	383.61404692545
7	822	1930.972992961028	346.37644614244
7	825	1939.300796874333	334.44583086134
7	826	1943.289749783473	337.5839451161
7	829	1947.776817713698	338.84820121601
7	830	1951.315215138415	332.29888149908
7	835	1976.578728166013	335.46783389299
7	836	1980.601967446571	333.99187998341
7	839	1991.615391809169	343.67215901137
7	840	1992.119430798167	329.28892260317
7	841	1994.886134657386	327.18625492598
7	842	1995.658462688683	269.86089587582
7	845	1996.768323925262	269.7082893397
7	846	1997.549967428133	264.97409369601
7	847	1998.349238334678	258.21795423874
7	848	2000.088884266972	258.00046780869
7	855	2015.490971386627	271.44746171408
7	858	2020.17253385029	265.4593076629
7	862	2023.590949442671	250.4756446824
7	863	2025.093568340069	237.20818526012
7	882	2046.731655302605	226.97410376605
7	896	2063.490039162042	214.74690650242
7	903	2081.401567442799	225.61752758086
7	911	2088.335225229713	225.42834710309
7	912	2093.024867474533	230.074204613
7	913	2098.886850079449	216.42913961385
7	914	2103.329064589205	218.28812737046
7	915	2105.849279088845	210.55502248662
7	918	2108.916784268879	210.66078831959
7	921	2112.165588769936	199.04603503854
7	922	2113.195264809037	196.24765823666
7	923	2124.485397205964	198.847756325
7	940	2163.488902888575	211.94517128356
7	952	2188.0379647991	198.09462652625
7	962	2210.676773740614	210.21319283539
7	1008	2294.808971505831	283.90153203384
7	1014	2304.581255581279	282.38112113434
7	1015	2311.183875179599	285.22833139957
7	1018	2315.753392267726	289.50320301314
7	1019	2317.720596983801	288.72565354722
7	1020	2318.14073661886	288.93520321871
7	1026	2343.969981428281	299.40000042131
7	1029	2347.14139699531	301.52629912986
7	1046	2377.374906331606	329.69981158094
7	1052	2389.986916536663	337.96585335583
7	1053	2401.548066428631	347.66915061934
7	1054	2413.27127770845	351.33822724528
7	1055	2413.696457516398	349.54291014108
7	1058	2419.116265837708	350.36604484578
7	1067	2456.015708514435	372.01863266312
7	1073	2474.384329471551	362.84563541454
7	1074	2480.216916745139	353.30106902299
8	132	366.90674060042	1
8	139	381.784833013177	1
8	144	386.250875507134	1
8	148	389.749122569849	2
8	154	399.549588799422	1
8	156	402.504371015353	2
8	161	408.499009690112	2
8	180	443.817232557662	1
8	182	445.367973862082	2
8	195	478.003471691353	1
8	203	484.600153220399	2
8	224	517.502141464979	1
8	230	529.042666305749	1
8	240	549.723407939261	1
8	246	562.927292449865	1
8	260	586.270515660759	1
8	268	626.843884536897	1
8	274	647.353795303353	1
8	278	662.438482297379	2
8	289	680.919630399863	2
8	297	697.442376960556	1
8	304	725.763040227324	1
8	309	738.500469943368	1
8	311	739.177665474985	2
8	322	762.526755291277	1
8	325	765.313687185756	1
8	330	779.370713826155	1
8	334	791.075455498199	1
8	351	825.727435836351	1
8	359	841.668238793278	1
8	381	906.230180631313	1
8	392	918.329453634844	1
8	405	957.388344174164	1
8	407	957.723820241117	2
8	413	965.1212364791	3
8	415	970.625671301786	4
8	424	986.583432109771	4
8	426	987.393290059605	5
8	450	1008.65887140681	1
8	470	1070.155179727889	1
8	494	1130.416300279589	1
8	496	1132.048297238397	2
8	517	1205.642446634233	1
8	524	1216.616931884824	1
8	529	1228.520457625003	1
8	545	1254.734196931696	1
8	559	1286.850380159512	1
8	566	1302.844015444965	1
8	575	1328.909099580252	1
8	580	1337.388330083135	1
8	582	1339.233828183082	2
8	585	1343.29505004117	2
8	597	1374.799124051652	1
8	601	1387.35074829731	1
8	619	1438.672465126625	1
8	625	1446.386407934709	1
8	631	1465.471776737086	1
8	635	1472.526123282645	2
8	637	1477.260476761024	3
8	639	1478.758750500482	4
8	641	1484.290723402252	5
8	645	1490.187265864041	4
8	649	1500.847975289427	3
8	656	1508.857475936079	3
8	671	1534.984185702364	1
8	682	1584.596546818588	1
8	684	1584.900654196861	2
8	692	1604.854966012996	1
8	698	1608.92861649769	1
8	700	1610.735235706327	2
8	705	1622.440234149539	2
8	727	1725.797566812866	1
8	739	1744.043509672546	1
8	758	1790.574625413366	1
8	760	1793.295441535686	2
8	762	1796.601928198126	3
8	770	1830.0117169173	1
8	775	1848.743132659626	1
8	780	1853.658041950659	1
8	783	1855.784039861942	1
8	785	1857.679617678275	2
8	796	1882.457710465602	1
8	799	1885.04093721874	1
8	820	1925.63764088096	1
8	860	2022.200134446936	1
8	873	2032.794886553949	1
8	875	2040.625890296416	2
8	892	2053.878915809292	1
8	898	2064.153547375319	1
8	901	2068.750220991927	1
8	905	2081.78025563606	1
8	925	2126.915847722145	1
8	928	2137.731399979001	1
8	930	2139.643418030477	2
8	934	2146.629260054248	3
8	948	2179.771093233548	1
8	956	2196.627595088498	1
8	968	2216.971440694834	1
8	972	2226.000127713074	2
8	974	2228.447023846671	3
8	977	2234.20252635727	3
8	979	2237.414483346714	4
8	984	2249.077865559208	2
8	990	2259.534430219018	3
8	994	2277.923741025562	4
8	1001	2288.666116345938	2
8	1010	2296.659481833168	1
8	1024	2330.015315462675	1
8	1031	2350.915731692075	1
8	1043	2367.773846882979	2
8	1048	2378.574598955318	1
8	1060	2425.11642804679	1
8	1063	2431.98697731575	1
8	1069	2458.246234532336	1
8	1076	2481.626538504285	1
9	132	366.90674060042	6
9	139	381.784833013177	7
9	144	386.250875507134	8
9	154	399.549588799422	9
9	180	443.817232557662	10
9	195	478.003471691353	11
9	224	517.502141464979	12
9	230	529.042666305749	13
9	240	549.723407939261	14
9	246	562.927292449865	15
9	260	586.270515660759	16
9	268	626.843884536897	17
9	274	647.353795303353	18
9	297	697.442376960556	19
9	304	725.763040227324	20
9	309	738.500469943368	21
9	322	762.526755291277	22
9	325	765.313687185756	23
9	330	779.370713826155	24
9	334	791.075455498199	25
9	351	825.727435836351	26
9	359	841.668238793278	27
9	381	906.230180631313	28
9	392	918.329453634844	29
9	405	957.388344174164	30
9	450	1008.65887140681	31
9	470	1070.155179727889	32
9	494	1130.416300279589	33
9	517	1205.642446634233	34
9	524	1216.616931884824	35
9	529	1228.520457625003	36
9	545	1254.734196931696	37
9	559	1286.850380159512	38
9	566	1302.844015444965	39
9	575	1328.909099580252	40
9	580	1337.388330083135	41
9	597	1374.799124051652	42
9	601	1387.35074829731	43
9	619	1438.672465126625	44
9	625	1446.386407934709	45
9	631	1465.471776737086	46
9	671	1534.984185702364	47
9	682	1584.596546818588	48
9	692	1604.854966012996	49
9	698	1608.92861649769	50
9	727	1725.797566812866	51
9	739	1744.043509672546	52
9	758	1790.574625413366	53
9	770	1830.0117169173	54
9	775	1848.743132659626	55
9	780	1853.658041950659	56
9	783	1855.784039861942	57
9	796	1882.457710465602	58
9	799	1885.04093721874	59
9	820	1925.63764088096	60
9	860	2022.200134446936	61
9	873	2032.794886553949	62
9	892	2053.878915809292	63
9	898	2064.153547375319	64
9	901	2068.750220991927	65
9	905	2081.78025563606	66
9	925	2126.915847722145	67
9	928	2137.731399979001	68
9	948	2179.771093233548	69
9	956	2196.627595088498	70
9	968	2216.971440694834	71
9	1010	2296.659481833168	72
9	1024	2330.015315462675	73
9	1031	2350.915731692075	74
9	1048	2378.574598955318	75
9	1060	2425.11642804679	76
9	1063	2431.98697731575	77
9	1069	2458.246234532336	78
9	1076	2481.626538504285	79
10	132	366.90674060042	0
10	139	381.784833013177	0
10	144	386.250875507134	0
10	149	390.615027314	0.865904744151
10	154	399.549588799422	0
10	159	404.012857559346	1.508486543993
10	166	412.254791288845	3.755781598733
10	180	443.817232557662	0
10	183	445.806935062139	0.438961200057
10	195	478.003471691353	0
10	212	496.489923940657	11.889770720258
10	224	517.502141464979	0
10	230	529.042666305749	0
10	240	549.723407939261	0
10	246	562.927292449865	0
10	260	586.270515660759	0
10	268	626.843884536897	0
10	274	647.353795303353	0
10	287	680.071491924577	17.633009627198
10	294	692.304831284754	11.385200884891
10	297	697.442376960556	0
10	304	725.763040227324	0
10	309	738.500469943368	0
10	312	745.423366536703	6.245701061718
10	322	762.526755291277	0
10	325	765.313687185756	0
10	330	779.370713826155	0
10	334	791.075455498199	0
10	351	825.727435836351	0
10	359	841.668238793278	0
10	381	906.230180631313	0
10	392	918.329453634844	0
10	405	957.388344174164	0
10	416	970.895776148806	13.171955907689
10	429	988.393892373271	23.272655894171
10	434	997.310004643905	26.684333342119
10	437	998.10084243196	11.517410322189
10	438	1000.557416825977	13.164126766372
10	450	1008.65887140681	0
10	470	1070.155179727889	0
10	494	1130.416300279589	0
10	499	1143.433968192555	11.385670954158
10	517	1205.642446634233	0
10	524	1216.616931884824	0
10	529	1228.520457625003	0
10	545	1254.734196931696	0
10	559	1286.850380159512	0
10	566	1302.844015444965	0
10	575	1328.909099580252	0
10	580	1337.388330083135	0
10	583	1340.046659325878	0.812831142796
10	586	1347.816785969498	4.521735928328
10	597	1374.799124051652	0
10	601	1387.35074829731	0
10	619	1438.672465126625	0
10	625	1446.386407934709	0
10	631	1465.471776737086	0
10	642	1484.340780796347	11.814657513702
10	643	1489.439177751828	12.178700990804
10	646	1494.919965053833	16.161214553351
10	647	1496.4607269384	12.170003536148
10	652	1503.860814134668	13.673548270627
10	659	1513.434733443311	12.586758153884
10	662	1521.224014212017	12.366538275938
10	671	1534.984185702364	0
10	682	1584.596546818588	0
10	685	1587.516864054316	2.616209857455
10	692	1604.854966012996	0
10	698	1608.92861649769	0
10	703	1622.108595149859	11.373359443532
10	706	1623.826294504532	1.386060354993
10	727	1725.797566812866	0
10	739	1744.043509672546	0
10	758	1790.574625413366	0
10	763	1802.766494222887	9.471052687201
10	764	1811.559843608562	14.957915410436
10	770	1830.0117169173	0
10	775	1848.743132659626	0
10	780	1853.658041950659	0
10	783	1855.784039861942	0
10	792	1872.115553707035	14.43593602876
10	796	1882.457710465602	0
10	799	1885.04093721874	0
10	820	1925.63764088096	0
10	860	2022.200134446936	0
10	873	2032.794886553949	0
10	876	2043.547299006777	2.921408710361
10	892	2053.878915809292	0
10	898	2064.153547375319	0
10	901	2068.750220991927	0
10	905	2081.78025563606	0
10	925	2126.915847722145	0
10	928	2137.731399979001	0
10	935	2146.716585785676	7.073167755199
10	936	2156.293776476609	9.664516422361
10	948	2179.771093233548	0
10	956	2196.627595088498	0
10	968	2216.971440694834	0
10	975	2230.02899487354	4.028867160466
10	980	2239.012553418221	10.56552957155
10	981	2243.656225590782	9.453699233512
10	982	2246.63569138557	9.221208038856
10	995	2283.726214784368	34.64834922516
10	998	2285.458511330854	25.924081111836
10	999	2288.406189169576	10.482448144014
10	1004	2290.278871516211	1.612755170273
10	1010	2296.659481833168	0
10	1024	2330.015315462675	0
10	1031	2350.915731692075	0
10	1044	2370.595442254788	2.821595371809
10	1048	2378.574598955318	0
10	1060	2425.11642804679	0
10	1063	2431.98697731575	0
10	1069	2458.246234532336	0
10	1076	2481.626538504285	0
11	1080	2500	0.0824
12	1080	2500	0.05

