file 61977 1678524313                                           
version 2
run experiments_medium_game_mode1-1462-20230311-09:45:13-16007
attr configname experiments_medium_game_mode1
attr datetime 20230311-09:45:13
attr experiment experiments_medium_game_mode1
attr inifile omnetpp.ini
attr iterationvars "$0=7, $1=7, $2=0"
attr iterationvarsf 7,7,0-
attr measurement "$0=7, $1=7, $2=0"
attr network Network
attr processid 16007
attr repetition 22
attr replication #22
attr resultdir results
attr runnumber 1462
attr seedset 22
param *.boss.arrival_mean 20
param *.boss.service_mean 7
param *.minion.arrival_mean 10
param *.minion.service_mean 7
param *.player.recover_rate_x 0
param **.minion.arrival_distribution 0
param **.minion.service_distribution 0
param **.boss.arrival_distribution 0
param **.boss.service_distribution 0

vector 0 Network.player minion_defeated_stat:vector ETV
attr source signal_minion_defeated
vector 1 Network.player minion_jobs_queue_number_stat:vector ETV
attr source signal_minion_jobs_queue_number
vector 2 Network.player minion_response_time_stat:vector ETV
attr source signal_minion_response_time
vector 3 Network.player minion_waiting_time_stat:vector ETV
attr source signal_minion_waiting_time
vector 4 Network.player boss_jobs_number_stat:vector ETV
attr source signal_boss_jobs_number
vector 5 Network.player boss_jobs_queue_number_stat:vector ETV
attr source signal_boss_jobs_queue_number
vector 6 Network.player minion_recovered_stat:vector ETV
attr source signal_minion_recovered
vector 7 Network.player boss_waiting_time_stat:vector ETV
attr source signal_boss_waiting_time
vector 8 Network.player minion_jobs_number_stat:vector ETV
attr source signal_minion_jobs_number
vector 9 Network.player boss_defeated_stat:vector ETV
attr source signal_boss_defeated
vector 10 Network.player boss_response_time_stat:vector ETV
attr source signal_boss_response_time
vector 11 Network.player minion_throughput:vector ETV
attr source signal_minion_throughput
vector 12 Network.player boss_throughput:vector ETV
attr source signal_boss_throughput
0	2013 5654 144 1066 350.713805847587 2499.552587320532 207 28 234 27117 4291455
1	7667 11026 144 1066 350.713805847587 2499.552587320532 421 0 23 4037 49863
2	18693 8184 144 1066 350.713805847587 2499.552587320532 207 0.025009659932 169.19353961551 16043.539900678 1593469.8602553
3	26877 10989 144 1066 350.713805847587 2499.552587320532 281 0 165.37408761719 20271.990014425 1937272.2744002
4	37866 2453 146 1060 352.732720250375 2486.924382343612 96 1 3 121 177
5	40319 4909 146 1061 352.732720250375 2489.764103609395 192 0 2 50 62
6	45228 1964 146 1060 352.732720250375 2486.924382343612 74 9 82 3367 186961
7	47192 2743 146 1060 352.732720250375 2486.924382343612 96 0 16.915072589512 167.91313298891 1785.6186088551
8	49935 5622 150 1063 357.110273761727 2491.824172234539 214 1 24 2257 29417
9	55557 2567 151 1061 359.643498698874 2489.764103609395 96 19 114 6384 498256
10	58124 3812 151 1061 359.643498698874 2489.764103609395 96 0.057356254122 34.053337139914 765.96774915306 11083.930651652
11	61936 20 1067 1067 2500 2500 1 0.0936 0.0936 0.0936 0.00876096
12	61956 20 1067 1067 2500 2500 1 0.0456 0.0456 0.0456 0.00207936

