file 62313 1678524229                                           
version 2
run experiments_medium_game_mode1-1101-20230311-09:43:49-14196
attr configname experiments_medium_game_mode1
attr datetime 20230311-09:43:49
attr experiment experiments_medium_game_mode1
attr inifile omnetpp.ini
attr iterationvars "$0=6.5, $1=6, $2=0"
attr iterationvarsf 6.5,6,0-
attr measurement "$0=6.5, $1=6, $2=0"
attr network Network
attr processid 14196
attr repetition 21
attr replication #21
attr resultdir results
attr runnumber 1101
attr seedset 21
param *.boss.arrival_mean 20
param *.boss.service_mean 6.5
param *.minion.arrival_mean 10
param *.minion.service_mean 6
param *.player.recover_rate_x 0
param **.minion.arrival_distribution 0
param **.minion.service_distribution 0
param **.boss.arrival_distribution 0
param **.boss.service_distribution 0

vector 0 Network.player minion_defeated_stat:vector ETV
attr source signal_minion_defeated
vector 1 Network.player minion_jobs_queue_number_stat:vector ETV
attr source signal_minion_jobs_queue_number
vector 2 Network.player minion_response_time_stat:vector ETV
attr source signal_minion_response_time
vector 3 Network.player minion_waiting_time_stat:vector ETV
attr source signal_minion_waiting_time
vector 4 Network.player minion_jobs_number_stat:vector ETV
attr source signal_minion_jobs_number
vector 5 Network.player boss_jobs_number_stat:vector ETV
attr source signal_boss_jobs_number
vector 6 Network.player boss_jobs_queue_number_stat:vector ETV
attr source signal_boss_jobs_queue_number
vector 7 Network.player boss_waiting_time_stat:vector ETV
attr source signal_boss_waiting_time
vector 8 Network.player boss_defeated_stat:vector ETV
attr source signal_boss_defeated
vector 9 Network.player boss_response_time_stat:vector ETV
attr source signal_boss_response_time
vector 10 Network.player minion_recovered_stat:vector ETV
attr source signal_minion_recovered
vector 11 Network.player minion_throughput:vector ETV
attr source signal_minion_throughput
vector 12 Network.player boss_throughput:vector ETV
attr source signal_boss_throughput
0	2021 6192 148 1095 351.464856683459 2489.172431973489 226 31 256 32431 5615761
1	8213 11594 148 1099 351.464856683459 2491.481527160442 447 0 17 2455 23719
2	19807 8896 148 1095 351.464856683459 2489.172431973489 226 0.005024802479 150.65518798583 9743.5118557978 712584.39760541
3	28703 10264 148 1094 351.464856683459 2489.019590075643 272 0 147.82230157253 11051.28918404 814462.24141211
4	38967 5739 150 1099 363.579054885799 2491.481527160442 221 1 18 1441 14493
5	44706 2442 185 1097 437.655607876823 2490.842751616098 95 1 3 130 214
6	47148 4851 185 1097 437.655607876823 2490.842751616098 189 0 2 70 98
7	51999 2810 185 1097 437.655607876823 2490.842751616098 95 0 26.146458296125 185.73201626791 2422.239385851
8	54809 2513 186 1086 446.207450825957 2444.574235650456 94 16 109 5875 436395
9	57322 3648 186 1086 446.207450825957 2444.574235650456 94 0.069040674551 31.360412271571 736.16653989283 11333.910603181
10	60970 1302 214 1083 529.768904742497 2432.363775165864 47 11 57 1598 62980
11	62272 20 1100 1100 2500 2500 1 0.1024 0.1024 0.1024 0.01048576
12	62292 20 1100 1100 2500 2500 1 0.0436 0.0436 0.0436 0.00190096

