file 63537 1678524026                                           
version 2
run experiments_medium_game_mode1-140-20230311-09:40:26-9370
attr configname experiments_medium_game_mode1
attr datetime 20230311-09:40:26
attr experiment experiments_medium_game_mode1
attr inifile omnetpp.ini
attr iterationvars "$0=5, $1=5, $2=0"
attr iterationvarsf 5,5,0-
attr measurement "$0=5, $1=5, $2=0"
attr network Network
attr processid 9370
attr repetition 20
attr replication #20
attr resultdir results
attr runnumber 140
attr seedset 20
param *.boss.arrival_mean 20
param *.boss.service_mean 5
param *.minion.arrival_mean 10
param *.minion.service_mean 5
param *.player.recover_rate_x 0
param **.minion.arrival_distribution 0
param **.minion.service_distribution 0
param **.boss.arrival_distribution 0
param **.boss.service_distribution 0

vector 0 Network.player minion_jobs_number_stat:vector ETV
attr source signal_minion_jobs_number
vector 1 Network.player minion_jobs_queue_number_stat:vector ETV
attr source signal_minion_jobs_queue_number
vector 2 Network.player minion_defeated_stat:vector ETV
attr source signal_minion_defeated
vector 3 Network.player minion_response_time_stat:vector ETV
attr source signal_minion_response_time
vector 4 Network.player minion_waiting_time_stat:vector ETV
attr source signal_minion_waiting_time
vector 5 Network.player boss_jobs_number_stat:vector ETV
attr source signal_boss_jobs_number
vector 6 Network.player boss_jobs_queue_number_stat:vector ETV
attr source signal_boss_jobs_queue_number
vector 7 Network.player boss_waiting_time_stat:vector ETV
attr source signal_boss_waiting_time
vector 8 Network.player boss_defeated_stat:vector ETV
attr source signal_boss_defeated
vector 9 Network.player boss_response_time_stat:vector ETV
attr source signal_boss_response_time
vector 10 Network.player minion_recovered_stat:vector ETV
attr source signal_minion_recovered
vector 11 Network.player minion_throughput:vector ETV
attr source signal_minion_throughput
vector 12 Network.player boss_throughput:vector ETV
attr source signal_boss_throughput
0	2009 5578 125 1098 351.622388343199 2470.076086231798 217 1 10 666 3050
1	7587 11101 125 1108 351.622388343199 2488.757358172168 432 0 9 891 3845
2	18688 5882 126 1108 355.889422575673 2488.757358172168 215 28 242 29025 4746555
3	24570 8427 126 1108 355.889422575673 2488.757358172168 215 0.034887698442 105.31132625047 3994.5158905611 147635.2922536
4	32997 9546 126 1111 355.889422575673 2499.750458475522 265 0 90.865176923312 3712.0390703463 136709.90266936
5	42543 2913 146 1110 429.805982642391 2491.727201881822 113 1 5 175 369
6	45456 5821 146 1111 429.805982642391 2499.750458475522 226 0 4 124 264
7	51277 3404 146 1110 429.805982642391 2491.727201881822 113 0 29.389621658179 377.92842198114 6476.1638323843
8	54681 3047 151 1111 432.250782023323 2499.750458475522 113 13 125 7797 658225
9	57728 4386 151 1111 432.250782023323 2499.750458475522 113 0.020567941364 46.92129874058 942.13179101804 18035.323596349
10	62114 1384 182 1110 512.001023992162 2491.727201881822 50 7 56 1575 60025
11	63498 20 1112 1112 2500 2500 1 0.0968 0.0968 0.0968 0.00937024
12	63518 18 1112 1112 2500 2500 1 0.05 0.05 0.05 0.0025

