version 2
run factors_calibration_bosses-75-20230303-16:36:34-8020
attr configname factors_calibration_bosses
attr datetime 20230303-16:36:34
attr experiment factors_calibration_bosses
attr inifile omnetpp.ini
attr iterationvars $0=5
attr iterationvarsf 5-
attr measurement $0=5
attr network Network
attr processid 8020
attr repetition 15
attr replication #15
attr resultdir results
attr runnumber 75
attr seedset 15
param *.minion.arrival_mean 2
param *.minion.service_mean 1
param *.boss.arrival_mean 20
param *.boss.service_mean 5
param *.player.recover_rate_x 100
param **.minion.arrival_distribution 0
param **.minion.service_distribution 0
param **.boss.arrival_distribution 0
param **.boss.service_distribution 0

vector 0 Network.player minion_defeated_stat:vector ETV
attr source signal_minion_defeated
vector 1 Network.player minion_jobs_queue_number_stat:vector ETV
attr source signal_minion_jobs_queue_number
vector 2 Network.player minion_response_time_stat:vector ETV
attr source signal_minion_response_time
vector 3 Network.player minion_waiting_time_stat:vector ETV
attr source signal_minion_waiting_time
vector 4 Network.player minion_jobs_number_stat:vector ETV
attr source signal_minion_jobs_number
vector 5 Network.player boss_jobs_number_stat:vector ETV
attr source signal_boss_jobs_number
vector 6 Network.player boss_jobs_queue_number_stat:vector ETV
attr source signal_boss_jobs_queue_number
vector 7 Network.player boss_waiting_time_stat:vector ETV
attr source signal_boss_waiting_time
vector 8 Network.player boss_defeated_stat:vector ETV
attr source signal_boss_defeated
vector 9 Network.player boss_response_time_stat:vector ETV
attr source signal_boss_response_time
vector 10 Network.player minion_recovered_stat:vector ETV
attr source signal_minion_recovered
vector 11 Network.player minion_throughput:vector ETV
attr source signal_minion_throughput
vector 12 Network.player boss_throughput:vector ETV
attr source signal_boss_throughput
0	521	350.655880079759	152
0	522	351.300065560535	153
0	527	355.735168245208	154
0	528	356.304870977121	155
0	533	358.421131663734	156
0	534	358.549321751348	157
0	537	361.634784520874	158
0	542	367.40278742165	159
0	543	367.668435669285	160
0	546	369.505227127297	161
0	549	370.407450739059	162
0	554	370.833504322059	163
0	555	371.10198886966	164
0	558	373.664333081734	165
0	561	378.245114946002	166
0	564	382.316204870167	167
0	567	382.863978596387	168
0	570	384.224664283585	169
0	573	388.045400629739	170
0	582	393.673515987294	171
0	585	394.254081556062	172
0	588	396.871407185558	173
0	591	398.149942329847	174
0	594	399.543111370932	175
0	597	400.352763055694	176
0	600	402.51967796811	177
0	603	404.573275037409	178
0	606	406.86105302289	179
0	616	410.836233975007	180
0	619	413.065901683224	181
0	620	413.380116126992	182
0	621	414.525941187494	183
0	624	419.072689344881	184
0	627	420.278385453604	185
0	632	425.774216239465	186
0	637	428.166728069881	187
0	640	431.412523567617	188
0	643	432.381246713496	189
0	648	433.684856151476	190
0	651	433.836761607913	191
0	656	434.526689622711	192
0	661	436.861222207577	193
0	662	437.267910926971	194
0	663	438.090752019753	195
0	666	438.64348856177	196
0	667	440.658463763814	197
0	670	441.522168313125	198
0	673	443.869101754179	199
0	674	444.549641815867	200
0	675	444.619569962472	201
0	678	448.431716781725	202
0	681	449.377336298638	203
0	684	451.43964757579	204
0	687	456.971750409772	205
0	694	459.957592920269	206
0	695	460.216674666591	207
0	700	461.111502571163	208
0	701	461.839364178629	209
0	704	462.73052038497	210
0	707	462.9192074894	211
0	710	463.958656594843	212
0	715	465.137047823675	213
0	716	465.51921440399	214
0	717	466.103382491054	215
0	720	466.549637326954	216
0	723	467.306043558184	217
0	726	470.2391885291	218
0	731	474.379048726923	219
0	732	474.396650933234	220
0	739	476.551194967838	221
0	740	476.912410544098	222
0	741	477.440106560359	223
0	744	481.225025233571	224
0	747	481.61214553609	225
0	750	488.708526210413	226
0	757	494.233911143323	227
0	760	494.576408083099	228
0	761	494.813473345771	229
0	762	495.052445936038	230
0	765	496.282782095852	231
0	768	497.317717660271	232
0	773	501.644154330301	233
0	774	502.0730740107	234
0	777	508.191243770715	235
0	782	512.050560036095	236
0	783	512.582798216416	237
0	786	514.660076812852	238
0	805	538.008749036572	239
0	806	539.739467997111	240
0	809	543.264574928055	241
0	810	546.548689877728	242
0	811	546.971326539277	243
0	812	547.113374537876	244
0	815	547.896875819775	245
0	816	547.935189769869	246
0	837	559.478500012838	247
0	838	561.25841096387	248
0	841	564.76983720494	249
0	848	569.669702665443	250
0	849	570.17542708048	251
0	850	570.863000373345	252
0	853	572.091616847101	253
0	854	573.01183642924	254
0	855	573.802032415345	255
0	856	573.900302873634	256
0	857	574.493683531622	257
0	858	575.19718542918	258
0	874	586.13575703014	259
0	877	587.013750543507	260
0	878	588.123933374055	261
0	881	588.753696620009	262
0	882	588.997630833322	263
0	885	592.210907725276	264
0	886	592.350820701964	265
0	887	593.244586333655	266
0	890	595.040829943218	267
0	893	595.396688633489	268
0	900	597.460899310527	269
0	901	597.772446434101	270
0	902	599.041133520132	271
0	907	599.497790652357	272
0	914	603.612690430238	273
0	917	603.745669884259	274
0	920	604.494326771587	275
0	921	605.514491883667	276
0	922	606.248902348867	277
0	925	606.960041747121	278
0	926	607.130131478184	279
0	929	608.02607452572	280
0	930	608.333623414075	281
0	933	610.279184758071	282
0	956	629.784974406088	283
0	957	629.927926613866	284
0	958	630.342296933801	285
0	959	630.522876204966	286
0	960	631.31112121164	287
0	961	631.315275573086	288
0	962	632.713129810644	289
0	967	636.936387174123	290
0	968	637.487693597497	291
0	969	637.786740625546	292
0	972	640.702456132524	293
0	981	645.202841303655	294
0	982	645.34737266567	295
0	990	648.841292156772	296
0	991	649.954286768161	297
0	996	651.069294269497	298
0	997	651.09672157814	299
0	1009	656.303259828825	300
0	1012	657.933106930641	301
0	1013	658.420067278361	302
0	1016	663.087314251737	303
0	1017	663.152131349642	304
0	1043	676.030756056007	305
0	1044	676.13827017959	306
0	1047	678.589477805177	307
0	1048	678.933965987323	308
0	1051	680.350567335907	309
0	1052	681.516685634298	310
0	1059	683.018381996983	311
0	1060	684.331797395693	312
0	1061	684.720212227622	313
0	1064	686.967898497267	314
0	1065	687.204384473422	315
0	1068	687.469116302046	316
0	1069	688.374590852698	317
0	1072	689.091570417512	318
0	1073	689.201854708855	319
0	1074	689.935830628324	320
0	1075	690.140464290491	321
0	1076	690.274119982224	322
0	1079	691.961782990793	323
0	1080	692.010864877705	324
0	1081	692.119793655093	325
0	1082	693.755526530421	326
0	1083	695.550610264543	327
0	1088	700.515246808116	328
0	1089	700.651564991566	329
0	1094	702.86763092524	330
0	1095	703.235317321332	331
0	1098	706.605097989603	332
0	1101	707.021217856857	333
0	1104	708.165259136018	334
0	1107	709.376535268032	335
0	1112	711.306679309515	336
0	1113	712.364431681895	337
0	1116	714.372136231059	338
0	1119	717.00445929027	339
0	1122	718.807046078016	340
0	1125	721.523431545375	341
0	1134	726.25923506362	342
0	1141	728.869412512988	343
0	1142	729.529904433779	344
0	1146	732.468005809953	345
0	1147	733.071330900757	346
0	1148	733.290467838742	347
0	1149	733.679017561218	348
0	1154	738.236901757124	349
0	1155	739.738211473345	350
0	1158	743.763384373678	351
0	1161	744.565037823027	352
0	1209	784.133201316241	353
0	1218	788.225451692695	354
0	1219	788.345695769483	355
0	1220	790.945857650824	356
0	1221	791.539472330677	357
0	1222	792.782893518241	358
0	1225	793.872423124823	359
0	1230	794.427659002854	360
0	1235	795.303579113484	361
0	1236	796.564462227308	362
0	1237	797.520962808432	363
0	1238	797.538313653921	364
0	1245	799.405437548496	365
0	1250	800.908352445558	366
0	1255	802.674562861	367
0	1258	803.776974311722	368
0	1263	804.688662986958	369
0	1264	805.165358523561	370
0	1265	806.501392722666	371
0	1266	806.514945412364	372
0	1267	806.543338024804	373
0	1268	806.916309713556	374
0	1269	808.128593899451	375
0	1270	808.21614154392	376
0	1298	824.759558310021	377
0	1299	828.84591688806	378
0	1300	829.362619760938	379
0	1301	829.669609984157	380
0	1304	830.714701818266	381
0	1307	832.013968232054	382
0	1314	833.773407456507	383
0	1321	835.23532451296	384
0	1324	835.47495091033	385
0	1325	835.968289783986	386
0	1337	847.500757542601	387
0	1342	848.017552752353	388
0	1343	848.582947051663	389
0	1344	849.017139145466	390
0	1345	849.063794861989	391
0	1346	849.261723248861	392
0	1349	850.087096537496	393
0	1350	850.319488186497	394
0	1351	852.079518558785	395
0	1352	852.74051767204	396
0	1355	857.425163049804	397
0	1356	857.909019363406	398
0	1359	859.613893674815	399
0	1366	862.628475991016	400
0	1369	863.4358006861	401
0	1370	863.8648307695	402
0	1375	866.602980888252	403
0	1376	867.047155549319	404
0	1379	869.831887845199	405
0	1380	869.930734425429	406
0	1381	870.510274727494	407
0	1382	874.317004271509	408
0	1389	876.403625044533	409
0	1390	877.117289213849	410
0	1391	877.176294704312	411
0	1392	878.127959426427	412
0	1412	891.519374958112	413
0	1413	892.021579492209	414
0	1414	892.550087739285	415
0	1415	892.790864581607	416
0	1419	897.186298853399	417
0	1420	897.215728026983	418
0	1421	897.580676859139	419
0	1422	898.456577003087	420
0	1423	898.486818025765	421
0	1424	899.03690243274	422
0	1429	902.254736608675	423
0	1434	905.790867871822	424
0	1439	907.990994036477	425
0	1440	908.003279604422	426
0	1443	909.226612651054	427
0	1444	909.873509381591	428
0	1449	912.633407844707	429
0	1450	912.753775831961	430
0	1451	913.048321385921	431
0	1452	913.250639194014	432
0	1455	915.326343314485	433
0	1456	916.332179636869	434
0	1457	917.066378220253	435
0	1460	920.118831291009	436
0	1461	920.789134085173	437
0	1464	923.595697064497	438
0	1467	924.746517104779	439
0	1468	926.202335224115	440
0	1471	927.965348872963	441
0	1472	928.277124740455	442
0	1477	929.65766416874	443
0	1482	931.461845694593	444
0	1483	932.25324781869	445
0	1484	932.400516757602	446
0	1485	932.476256048331	447
0	1488	932.829966899678	448
0	1489	932.884146371305	449
0	1490	932.987169417771	450
0	1491	933.567083190099	451
0	1492	934.952657644744	452
0	1493	935.111121681237	453
0	1494	935.410343823796	454
0	1497	936.846548030061	455
0	1500	943.95239112691	456
0	1509	949.596505318217	457
0	1512	950.07468004816	458
0	1521	952.882992003534	459
0	1522	952.914994580401	460
0	1525	953.500350770618	461
0	1526	953.622171717505	462
0	1527	953.774205935563	463
0	1528	953.895132867319	464
0	1535	956.251476531721	465
0	1536	956.853443100195	466
0	1539	957.327972320755	467
0	1540	957.458236023099	468
0	1545	957.954249887595	469
0	1546	958.742617902493	470
0	1583	999.438373390687	471
0	1584	999.860926687335	472
0	1585	1000.481292009379	473
0	1588	1001.597231125614	474
0	1589	1001.614181016812	475
0	1590	1001.882216280855	476
0	1591	1002.129154088052	477
0	1596	1005.073913184916	478
0	1597	1005.178431728552	479
0	1598	1006.350330216268	480
0	1599	1007.038126397095	481
0	1600	1007.095578637284	482
0	1603	1009.186187410036	483
0	1604	1010.544735257375	484
0	1607	1011.298526362442	485
0	1608	1011.862796910026	486
0	1609	1012.072341473754	487
0	1610	1012.267868471706	488
0	1613	1012.578032510841	489
0	1614	1012.673039423639	490
0	1621	1015.827650672783	491
0	1626	1017.1140604371	492
0	1629	1017.968363153417	493
0	1630	1018.000694975089	494
0	1633	1018.921551059952	495
0	1634	1019.332906469668	496
0	1635	1019.445651530604	497
0	1642	1023.734280411842	498
0	1643	1024.172659732399	499
0	1644	1024.247890483663	500
0	1653	1028.653424603894	501
0	1658	1029.995370333434	502
0	1659	1030.225992345133	503
0	1662	1033.744307088363	504
0	1663	1033.943607339207	505
0	1666	1034.42868122236	506
0	1667	1034.743661325083	507
0	1668	1036.548889685232	508
0	1671	1040.351086477926	509
0	1674	1041.936353535737	510
0	1677	1042.713905263559	511
0	1680	1047.895846721196	512
0	1683	1049.726978477168	513
0	1688	1051.110664271031	514
0	1689	1051.17609877583	515
0	1694	1055.178808108879	516
0	1695	1056.031578948963	517
0	1700	1057.629337337029	518
0	1701	1057.807235742184	519
0	1704	1062.175329989912	520
0	1709	1064.93392372229	521
0	1718	1069.661734828443	522
0	1719	1069.882219656861	523
0	1720	1070.5548337681	524
0	1721	1071.011982896594	525
0	1727	1073.139348932671	526
0	1728	1073.972015283427	527
0	1731	1078.462063082967	528
0	1734	1081.376633675784	529
0	1737	1083.502472014036	530
0	1744	1087.173711083786	531
0	1749	1089.178641180273	532
0	1750	1089.314452280827	533
0	1751	1089.765894086057	534
0	1752	1091.588786864965	535
0	1755	1096.572761712601	536
0	1758	1099.992477906237	537
0	1765	1103.402444187901	538
0	1766	1104.12568479513	539
0	1767	1104.724260724805	540
0	1770	1106.723729366218	541
0	1780	1111.296304840273	542
0	1781	1111.584822920443	543
0	1784	1111.728137099522	544
0	1785	1112.156411151835	545
0	1788	1112.778824561467	546
0	1791	1114.44698780509	547
0	1794	1114.86770777022	548
0	1837	1143.387958188097	549
0	1840	1145.514974978668	550
0	1841	1146.108654430132	551
0	1842	1146.751233113427	552
0	1843	1147.077664090874	553
0	1844	1147.407438131884	554
0	1852	1161.429704925456	555
0	1855	1162.664489457091	556
0	1856	1162.980947084058	557
0	1857	1163.767451220508	558
0	1858	1163.953304054915	559
0	1859	1164.232453521141	560
0	1860	1164.335339916539	561
0	1864	1165.839491493883	562
0	1871	1168.292635258453	563
0	1872	1168.336342130695	564
0	1879	1169.399778124891	565
0	1880	1170.730776909157	566
0	1881	1172.728865716613	567
0	1892	1180.273972514268	568
0	1893	1180.811632160569	569
0	1894	1181.208127398685	570
0	1895	1181.457140751729	571
0	1947	1209.03735611294	572
0	1948	1209.276099806927	573
0	1949	1210.756408386852	574
0	1950	1210.763392026529	575
0	1951	1212.858378460547	576
0	1952	1212.862159197232	577
0	1953	1213.391406308049	578
0	1956	1213.769477052844	579
0	1957	1214.165647136133	580
0	1986	1236.039789027008	581
0	1987	1236.88355118885	582
0	1990	1238.541147162146	583
0	1993	1240.660762629335	584
0	1994	1240.729838635029	585
0	1995	1241.297020845257	586
0	1996	1242.655003901621	587
0	1999	1243.277025637487	588
0	2000	1243.937064144959	589
0	2003	1244.185822977073	590
0	2004	1244.910018911264	591
0	2005	1245.824070941403	592
0	2010	1247.579957213997	593
0	2011	1247.615256785673	594
0	2012	1247.842320975454	595
0	2019	1249.23634903709	596
0	2025	1251.584641891279	597
0	2026	1251.590712768886	598
0	2027	1253.508078696476	599
0	2032	1256.260983931547	600
0	2033	1256.955671136061	601
0	2034	1257.276082945823	602
0	2035	1258.389096804416	603
0	2036	1259.181553127287	604
0	2037	1259.204453128583	605
0	2038	1259.506569198045	606
0	2039	1259.592342093041	607
0	2042	1261.574447335878	608
0	2049	1264.613378144812	609
0	2050	1265.28669407445	610
0	2051	1266.121342623544	611
0	2056	1270.607326223047	612
0	2061	1272.769746285455	613
0	2062	1273.026025178563	614
0	2063	1273.595418128027	615
0	2064	1275.009700896969	616
0	2069	1275.559818484311	617
0	2070	1275.897666489829	618
0	2071	1276.166773296154	619
0	2072	1276.690017029621	620
0	2073	1277.602639921937	621
0	2074	1277.626711875557	622
0	2079	1279.295922719269	623
0	2080	1281.934717358223	624
0	2083	1285.510137777706	625
0	2084	1285.793297549731	626
0	2085	1286.555420557955	627
0	2086	1286.55561115871	628
0	2087	1286.645351712766	629
0	2090	1287.449267954028	630
0	2091	1287.649282527954	631
0	2092	1287.838517497635	632
0	2101	1289.497321957276	633
0	2102	1290.647701611861	634
0	2105	1291.446745402127	635
0	2106	1292.465606943856	636
0	2107	1293.215674070429	637
0	2108	1294.143094503747	638
0	2113	1296.154878764936	639
0	2118	1297.142997774425	640
0	2119	1297.65043994502	641
0	2120	1297.670298000523	642
0	2121	1298.048070832056	643
0	2131	1302.756688339058	644
0	2132	1303.606755711981	645
0	2133	1304.054428799173	646
0	2144	1307.72530168144	647
0	2165	1314.668955646338	648
0	2166	1314.834743168547	649
0	2167	1318.163692174139	650
0	2168	1319.609120094512	651
0	2169	1320.214614980122	652
0	2174	1321.942403390596	653
0	2175	1322.288788278586	654
0	2176	1322.965211782408	655
0	2177	1323.152883004714	656
0	2178	1324.085818181726	657
0	2185	1326.973712020086	658
0	2186	1327.562897067275	659
0	2187	1327.564387348252	660
0	2188	1328.830826771182	661
0	2189	1328.840748938932	662
0	2190	1329.127540085485	663
0	2193	1333.183882745522	664
0	2198	1334.287929034631	665
0	2201	1335.356763873786	666
0	2206	1335.901827535146	667
0	2207	1338.265698413061	668
0	2212	1339.527673122944	669
0	2221	1341.786354547058	670
0	2222	1342.076190342546	671
0	2223	1342.133162251972	672
0	2228	1345.473852464408	673
0	2229	1345.674737165848	674
0	2230	1346.73801752371	675
0	2231	1347.441211446786	676
0	2232	1348.390570175893	677
0	2235	1350.17342652863	678
0	2238	1354.942926997853	679
0	2241	1357.699770028511	680
0	2244	1358.791141766233	681
0	2260	1369.078462819797	682
0	2270	1374.293253627592	683
0	2271	1374.655666068608	684
0	2272	1375.526845272222	685
0	2275	1376.085566892872	686
0	2304	1391.887435356221	687
0	2305	1392.781514237426	688
0	2306	1394.887035669082	689
0	2307	1395.304669540121	690
0	2308	1395.592202172543	691
0	2313	1397.48506882054	692
0	2316	1398.532562300987	693
0	2319	1399.174207300798	694
0	2320	1401.441788882157	695
0	2321	1401.589853923244	696
0	2322	1401.974441012953	697
0	2323	1402.697557233048	698
0	2324	1402.765918013219	699
0	2327	1405.476991207302	700
0	2328	1405.943747205737	701
0	2331	1407.070343346187	702
0	2332	1408.092393492474	703
0	2333	1408.11470880532	704
0	2334	1409.279898223691	705
0	2337	1409.722928449758	706
0	2348	1412.295091067758	707
0	2349	1412.34900419198	708
0	2354	1413.870870948784	709
0	2357	1414.522562521711	710
0	2362	1419.580551428838	711
0	2365	1419.818600675208	712
0	2366	1420.497513923467	713
0	2369	1420.794766123675	714
0	2370	1421.063512846472	715
0	2371	1421.218702421245	716
0	2374	1421.88828068277	717
0	2375	1421.981827755035	718
0	2378	1423.021813003995	719
0	2381	1424.473314417809	720
0	2382	1424.994325251057	721
0	2385	1426.999178958809	722
0	2388	1428.84386160608	723
0	2391	1431.584151300027	724
0	2398	1442.051623744033	725
0	2399	1444.570904581535	726
0	2400	1444.96602715641	727
0	2403	1447.654475332523	728
0	2408	1449.091166310083	729
0	2413	1450.446453342772	730
0	2416	1451.95839640816	731
0	2417	1453.886222433983	732
0	2418	1456.543057252359	733
0	2421	1459.408747581571	734
0	2427	1467.00913155459	735
0	2434	1470.346759712171	736
0	2437	1471.573845867111	737
0	2438	1472.091595269577	738
0	2439	1472.309763527095	739
0	2442	1477.67346654551	740
0	2445	1479.547204438749	741
0	2450	1482.627118238447	742
0	2451	1483.544192516821	743
0	2460	1488.617930110402	744
0	2461	1490.748788534534	745
0	2466	1493.140602690742	746
0	2467	1493.795668665064	747
0	2468	1494.232932684974	748
0	2469	1494.869005608198	749
0	2476	1499.388005482601	750
0	2477	1499.676917827759	751
0	2478	1501.650238074076	752
0	2481	1502.764468214724	753
0	2484	1504.381737468974	754
0	2491	1506.148709676194	755
0	2492	1506.53449193544	756
0	2497	1507.903543516918	757
0	2500	1509.139991858975	758
0	2503	1509.503437668481	759
0	2506	1510.831598730746	760
0	2509	1511.654398357958	761
0	2510	1511.905357587486	762
0	2515	1512.914861852242	763
0	2516	1513.40694973465	764
0	2517	1513.433376346124	765
0	2527	1519.630830697341	766
0	2530	1521.974504637291	767
0	2554	1530.975441293076	768
0	2555	1531.172897356905	769
0	2556	1531.567567589852	770
0	2557	1533.228105210899	771
0	2558	1533.625222856303	772
0	2561	1533.980777082573	773
0	2562	1535.038182274194	774
0	2563	1535.741877650707	775
0	2566	1536.531758433509	776
0	2569	1537.998991401044	777
0	2570	1539.244794522995	778
0	2571	1540.119472897597	779
0	2572	1540.395677506655	780
0	2573	1540.772618259062	781
0	2583	1548.964888550627	782
0	2593	1552.72109328951	783
0	2594	1553.226497349365	784
0	2595	1553.796353468317	785
0	2598	1554.231858647613	786
0	2599	1554.324416105607	787
0	2600	1556.97381414074	788
0	2606	1559.932113979996	789
0	2609	1564.45765372602	790
0	2612	1564.551516290382	791
0	2613	1565.159855505475	792
0	2616	1566.069439966788	793
0	2657	1601.473526127868	794
0	2662	1603.015506799022	795
0	2663	1603.150902727231	796
0	2664	1604.70404145786	797
0	2665	1607.543366652053	798
0	2666	1607.73573356812	799
0	2667	1608.477169289322	800
0	2668	1608.638576959675	801
0	2671	1613.18828881057	802
0	2676	1613.82129045778	803
0	2677	1613.916979924942	804
0	2680	1614.494631538759	805
0	2687	1617.79307205139	806
0	2724	1646.139612653201	807
0	2725	1646.761642637477	808
0	2726	1647.207713971375	809
0	2729	1647.914223831791	810
0	2730	1649.510833520597	811
0	2733	1651.280597317547	812
0	2736	1652.166167586923	813
0	2737	1652.245862027082	814
0	2740	1653.212788887002	815
0	2741	1653.449115901459	816
0	2744	1653.491389453126	817
0	2745	1653.974180984818	818
0	2746	1654.34835730833	819
0	2749	1655.156378094564	820
0	2752	1656.603432973217	821
0	2755	1658.865870462591	822
0	2756	1659.443059502353	823
0	2757	1659.686513539187	824
0	2762	1661.069294997203	825
0	2767	1663.778402005783	826
0	2782	1675.07944272507	827
0	2790	1685.203228034651	828
0	2791	1686.29574217605	829
0	2792	1687.18948024262	830
0	2795	1689.299237354984	831
0	2803	1692.473585688058	832
0	2804	1692.557484919651	833
0	2807	1694.742181546069	834
0	2808	1694.748023839968	835
0	2809	1694.833893771018	836
0	2812	1695.720372652515	837
0	2813	1696.665187200291	838
0	2814	1696.917141342455	839
0	2815	1699.180269886564	840
0	2818	1700.490730208699	841
0	2819	1701.776141882362	842
0	2820	1702.546153786138	843
0	2838	1711.121985363751	844
0	2839	1711.560242441535	845
0	2882	1738.668527124685	846
0	2883	1738.858213881236	847
0	2886	1739.44807756926	848
0	2887	1739.929677416253	849
0	2888	1740.177070053266	850
0	2891	1740.512061662492	851
0	2894	1741.797499383121	852
0	2895	1744.247764727026	853
0	2900	1746.605052597558	854
0	2905	1746.903134517127	855
0	2906	1747.202574639167	856
0	2907	1748.810801585785	857
0	2908	1749.490118454193	858
0	2909	1749.85167745266	859
0	2910	1752.752058629505	860
0	2911	1753.187280903585	861
0	2912	1753.624714002595	862
0	2915	1754.099324034683	863
0	2916	1754.274384941607	864
0	2919	1754.66188437843	865
0	2920	1754.693837490375	866
0	2930	1758.208682772563	867
0	2933	1759.468515823233	868
0	2975	1785.322069909644	869
0	2976	1785.866764388844	870
0	2977	1785.90144135407	871
0	2978	1786.322497942448	872
0	3010	1809.32464006067	873
0	3024	1816.469287485112	874
0	3025	1816.617014562772	875
0	3026	1816.934202432236	876
0	3027	1817.301800114827	877
0	3030	1819.895724689682	878
0	3031	1820.865001801184	879
0	3034	1821.322017180678	880
0	3035	1822.864657369529	881
0	3036	1823.022570289225	882
0	3039	1823.247780877221	883
0	3040	1823.718353865311	884
0	3041	1824.272863346833	885
0	3044	1826.847293426558	886
0	3045	1827.578067933569	887
0	3046	1828.310667233449	888
0	3047	1828.471330103831	889
0	3048	1828.870274768709	890
0	3049	1829.190953706493	891
0	3052	1830.209892917414	892
0	3053	1830.489952687355	893
0	3054	1831.980425873676	894
0	3055	1832.305809475965	895
0	3056	1833.173242761935	896
0	3057	1834.10195085425	897
0	3058	1834.375461374307	898
0	3059	1835.608982284638	899
0	3060	1836.685201398193	900
0	3061	1836.826998913305	901
0	3062	1837.246499618537	902
0	3063	1837.271615842631	903
0	3064	1837.992293804508	904
0	3065	1838.639183399005	905
0	3066	1838.778970050791	906
0	3067	1838.88420722721	907
0	3068	1839.837238319567	908
0	3069	1840.42528089795	909
0	3070	1840.786332985931	910
0	3071	1841.447119876524	911
0	3074	1841.903277182102	912
0	3079	1843.074207605617	913
0	3082	1844.288862085356	914
0	3083	1844.523459819242	915
0	3084	1846.240269167253	916
0	3085	1847.052028113288	917
0	3095	1853.479393757129	918
0	3096	1853.486174854283	919
0	3099	1854.794261944631	920
0	3100	1855.275366539279	921
0	3101	1855.337942438744	922
0	3102	1855.359420917565	923
0	3120	1864.510712491683	924
0	3121	1864.773344702117	925
0	3122	1865.503183961055	926
0	3123	1865.998801929504	927
0	3133	1870.805924520911	928
0	3134	1871.06651729714	929
0	3135	1871.193926614557	930
0	3136	1871.293379745805	931
0	3137	1871.337308960527	932
0	3138	1872.241631831803	933
0	3139	1872.983617057997	934
0	3140	1873.179364961771	935
0	3141	1873.204085337089	936
0	3142	1874.061246705455	937
0	3149	1878.394392544818	938
0	3155	1885.825748748963	939
0	3156	1886.065883463469	940
0	3157	1886.294309977877	941
0	3160	1886.640171595569	942
0	3176	1902.838751576946	943
0	3180	1906.228855026784	944
0	3183	1907.620730976385	945
0	3184	1908.258028459247	946
0	3187	1908.923162956391	947
0	3188	1909.412026930215	948
0	3189	1910.502286149944	949
0	3190	1910.781966579829	950
0	3191	1910.974309349936	951
0	3192	1911.143708109209	952
0	3197	1912.548018142312	953
0	3198	1915.231572571229	954
0	3201	1917.21824615735	955
0	3204	1917.989599776925	956
0	3205	1918.015069546175	957
0	3206	1918.936630197431	958
0	3209	1919.032830473509	959
0	3210	1919.072419081072	960
0	3213	1919.88383733154	961
0	3214	1920.604700123294	962
0	3221	1924.812366217546	963
0	3224	1926.655372750201	964
0	3227	1928.054423671883	965
0	3230	1929.170764170413	966
0	3231	1929.374711324771	967
0	3234	1930.101844369372	968
0	3237	1931.37727734011	969
0	3238	1932.028870350625	970
0	3239	1932.034544271637	971
0	3240	1932.5108770056	972
0	3243	1934.016935030094	973
0	3244	1935.165868856794	974
0	3245	1936.478456133814	975
0	3246	1936.490363712877	976
0	3247	1936.928622004247	977
0	3248	1936.96289558543	978
0	3249	1937.068661453528	979
0	3256	1942.853732496131	980
0	3257	1943.350064562261	981
0	3258	1943.95104571808	982
0	3261	1945.363281145464	983
0	3264	1947.770590104623	984
0	3267	1954.881652528608	985
0	3277	1963.211527538969	986
0	3278	1963.641886588745	987
0	3281	1964.56137916645	988
0	3284	1965.366992784432	989
0	3287	1969.204969803203	990
0	3297	1975.844675735073	991
0	3298	1976.737322206525	992
0	3299	1976.870744926629	993
0	3304	1978.944826547843	994
0	3305	1979.505130458219	995
0	3310	1979.990917963377	996
0	3311	1980.527968760486	997
0	3318	1984.502343498074	998
0	3319	1984.702769833511	999
0	3320	1985.178560400652	1000
0	3321	1985.190261400542	1001
0	3326	1988.221066316736	1002
0	3331	1990.450948550793	1003
0	3332	1990.533897788094	1004
0	3337	1992.613561260629	1005
0	3340	1994.935652258728	1006
0	3341	1996.149568195873	1007
0	3344	1996.91683535004	1008
0	3345	1998.163763630553	1009
0	3355	2005.11191036347	1010
0	3362	2006.874525985681	1011
0	3363	2008.212645615372	1012
0	3370	2010.320876282899	1013
0	3371	2011.252822512135	1014
0	3372	2012.119445710677	1015
0	3373	2012.945153364623	1016
0	3374	2014.437480140641	1017
0	3377	2016.285686979821	1018
0	3380	2018.082090480038	1019
0	3381	2018.195341256094	1020
0	3386	2021.383950962309	1021
0	3389	2022.891594055408	1022
0	3392	2025.883294816588	1023
0	3393	2026.885059405163	1024
0	3396	2029.271634403602	1025
0	3399	2031.181991287402	1026
0	3413	2036.829521681974	1027
0	3416	2038.79291085522	1028
0	3419	2039.246592465713	1029
0	3420	2039.453387655286	1030
0	3423	2043.092918711278	1031
0	3428	2043.883473824925	1032
0	3429	2045.810893763524	1033
0	3430	2045.974025484898	1034
0	3431	2049.275337323722	1035
0	3437	2053.450946787255	1036
0	3438	2054.157590403184	1037
0	3441	2055.438753590294	1038
0	3444	2060.691053438054	1039
0	3447	2062.502575332213	1040
0	3454	2066.477776349014	1041
0	3455	2067.130325526081	1042
0	3458	2067.959396680246	1043
0	3466	2072.816085462449	1044
0	3467	2073.135023267628	1045
0	3468	2073.832073183037	1046
0	3471	2075.295251852489	1047
0	3476	2080.964581602519	1048
0	3477	2082.692334846859	1049
0	3480	2084.331085225855	1050
0	3483	2085.080830783307	1051
0	3486	2085.970546904721	1052
0	3489	2091.958628064833	1053
0	3494	2094.693377288077	1054
0	3497	2095.776090405431	1055
0	3504	2097.066032467245	1056
0	3505	2097.253350636798	1057
0	3508	2098.226754171646	1058
0	3509	2098.274354538193	1059
0	3512	2100.046955768896	1060
0	3513	2101.40397024056	1061
0	3518	2104.231281059911	1062
0	3519	2104.790361844769	1063
0	3524	2108.940060675466	1064
0	3525	2109.209188543564	1065
0	3531	2118.194948305518	1066
0	3534	2120.945121011088	1067
0	3541	2124.117073008162	1068
0	3542	2125.188806048254	1069
0	3545	2125.954940402508	1070
0	3548	2127.323583371771	1071
0	3551	2128.133664659308	1072
0	3552	2128.850191435757	1073
0	3557	2129.910011974779	1074
0	3558	2130.08421142134	1075
0	3561	2131.983211874261	1076
0	3564	2133.254918937328	1077
0	3567	2133.68340241392	1078
0	3607	2155.981559005085	1079
0	3608	2156.070688121708	1080
0	3609	2156.516151503077	1081
0	3642	2190.583413521789	1082
0	3643	2194.45577635053	1083
0	3646	2195.002933030853	1084
0	3647	2195.023572776017	1085
0	3648	2195.363192800467	1086
0	3653	2198.623406485903	1087
0	3658	2199.086484400431	1088
0	3661	2201.496543335796	1089
0	3664	2203.992878750518	1090
0	3665	2204.128296382754	1091
0	3666	2204.824539709079	1092
0	3667	2205.438014256297	1093
0	3668	2207.517404148161	1094
0	3669	2209.257390704582	1095
0	3670	2209.274738170259	1096
0	3671	2209.549566175929	1097
0	3672	2209.602978195543	1098
0	3673	2212.001278536225	1099
0	3674	2212.194277749489	1100
0	3675	2212.54773164422	1101
0	3678	2213.394821573692	1102
0	3681	2213.845961036724	1103
0	3682	2214.152169283347	1104
0	3683	2214.653618202003	1105
0	3686	2216.212965505922	1106
0	3687	2216.474610269632	1107
0	3690	2217.944386673783	1108
0	3691	2217.984507395562	1109
0	3692	2218.251262054331	1110
0	3693	2218.960178497697	1111
0	3718	2233.002912577102	1112
0	3719	2233.161775943303	1113
0	3730	2238.696673288712	1114
0	3731	2239.133485374916	1115
0	3734	2239.669990966141	1116
0	3735	2240.248854009161	1117
0	3740	2242.466009719988	1118
0	3743	2245.650672307178	1119
0	3761	2255.456027034125	1120
0	3762	2256.031458257614	1121
0	3763	2256.06415726262	1122
0	3764	2256.934504381021	1123
0	3767	2258.747433053087	1124
0	3768	2259.269683526336	1125
0	3771	2260.491133566145	1126
0	3772	2261.868931043476	1127
0	3777	2264.195444205656	1128
0	3778	2264.970515049117	1129
0	3779	2266.255398544143	1130
0	3780	2266.715838973869	1131
0	3787	2267.262229778053	1132
0	3792	2268.124169681463	1133
0	3793	2268.945660530175	1134
0	3794	2269.611400268293	1135
0	3795	2270.247125887374	1136
0	3798	2272.010193115518	1137
0	3799	2272.059478447616	1138
0	3808	2273.725465159468	1139
0	3809	2274.750110735979	1140
0	3810	2275.04697752084	1141
0	3811	2275.525166001062	1142
0	3812	2275.964250994499	1143
0	3815	2276.225314853346	1144
0	3818	2277.520496142256	1145
0	3819	2280.970472812511	1146
0	3822	2282.353534314641	1147
0	3825	2283.715904561951	1148
0	3826	2284.03194947016	1149
0	3827	2284.128163135571	1150
0	3828	2284.502577473403	1151
0	3831	2285.479168490272	1152
0	3832	2285.72957528282	1153
0	3833	2286.149935814137	1154
0	3834	2286.150398859892	1155
0	3835	2286.188187955102	1156
0	3836	2286.234589990458	1157
0	3839	2287.196128419836	1158
0	3840	2287.277604105633	1159
0	3841	2288.541878713597	1160
0	3842	2289.077567259601	1161
0	3843	2289.336358623391	1162
0	3848	2295.164903023869	1163
0	3851	2295.903341734491	1164
0	3854	2300.538826417896	1165
0	3855	2300.936535042919	1166
0	3858	2302.844407144242	1167
0	3865	2307.361702929053	1168
0	3870	2308.856726533876	1169
0	3871	2308.898555725342	1170
0	3874	2309.435099516946	1171
0	3875	2309.435827327672	1172
0	3876	2309.778230510649	1173
0	3879	2311.313344651206	1174
0	3884	2313.606856446688	1175
0	3885	2314.227857297419	1176
0	3936	2351.676393055449	1177
0	3937	2351.708105020672	1178
0	3940	2352.218853697492	1179
0	3945	2354.872014315266	1180
0	3946	2355.097568216401	1181
0	3947	2355.626814819302	1182
0	3952	2356.250616331925	1183
0	3953	2356.43883164307	1184
0	3954	2357.629801860365	1185
0	3955	2357.958274174307	1186
0	3956	2361.177817560204	1187
0	3961	2364.963625216005	1188
0	3962	2365.064973626676	1189
0	3963	2366.597325777445	1190
0	3964	2368.554037666837	1191
0	4075	2446.357754879031	1192
0	4078	2447.349043432626	1193
0	4079	2447.819377996536	1194
0	4080	2447.901279465343	1195
0	4081	2448.179986248118	1196
0	4082	2448.190278654843	1197
0	4083	2448.253024747112	1198
0	4086	2449.35843480794	1199
0	4087	2449.453588853716	1200
0	4090	2450.595273092846	1201
0	4093	2453.363495261456	1202
0	4096	2454.713456358303	1203
0	4097	2455.366700697579	1204
0	4098	2455.745106967075	1205
0	4101	2458.053087184113	1206
0	4104	2458.539086507963	1207
0	4105	2459.032964356007	1208
0	4106	2459.809908227036	1209
0	4107	2459.859541914491	1210
0	4108	2460.440302046191	1211
0	4109	2460.605210793339	1212
0	4110	2460.716829246472	1213
0	4111	2461.293626602476	1214
0	4112	2461.448620019274	1215
0	4113	2462.879865197591	1216
0	4114	2463.519749384597	1217
0	4115	2464.234302657302	1218
0	4118	2465.202437543748	1219
0	4119	2467.828875219212	1220
0	4120	2468.674378614231	1221
0	4121	2468.689360631627	1222
0	4126	2469.534217146483	1223
0	4127	2469.539238654437	1224
0	4128	2469.99074949657	1225
0	4129	2470.389073009317	1226
0	4134	2471.062832062805	1227
0	4135	2471.147870214669	1228
0	4138	2471.971367991143	1229
0	4139	2474.772879813466	1230
0	4142	2474.877773534366	1231
0	4145	2475.395742613623	1232
0	4146	2475.82932673711	1233
0	4151	2478.734185927638	1234
0	4152	2479.045713640928	1235
0	4157	2480.711691495591	1236
0	4162	2483.026091778612	1237
0	4163	2483.663440048546	1238
0	4164	2484.529938524992	1239
0	4169	2485.387762468043	1240
0	4170	2485.654505993664	1241
0	4171	2485.765927847546	1242
0	4176	2486.997437678011	1243
0	4177	2487.139261124467	1244
0	4178	2487.570833469718	1245
0	4181	2489.57403898473	1246
0	4182	2490.692981654678	1247
0	4183	2491.639214800272	1248
0	4184	2492.345753525958	1249
0	4187	2494.554738181659	1250
0	4188	2494.64441555748	1251
0	4189	2494.652993520611	1252
0	4194	2496.517976824972	1253
0	4195	2496.687292555157	1254
0	4196	2497.049538883503	1255
0	4197	2497.408754579542	1256
0	4198	2498.385525209062	1257
0	4201	2499.376948187964	1258
0	4202	2499.54738292865	1259
1	521	350.655880079759	1
1	522	351.300065560535	0
1	524	353.808356634325	0
1	526	354.447673640529	1
1	527	355.735168245208	1
1	528	356.304870977121	0
1	530	356.773177688507	0
1	532	357.423218125706	1
1	533	358.421131663734	1
1	534	358.549321751348	0
1	536	360.309658180054	0
1	537	361.634784520874	0
1	539	363.557377117711	0
1	541	367.294544761086	1
1	542	367.40278742165	1
1	543	367.668435669285	0
1	545	368.466727441848	0
1	546	369.505227127297	0
1	548	369.817903242023	0
1	549	370.407450739059	0
1	551	370.605717090511	0
1	553	370.646005173385	1
1	554	370.833504322059	1
1	555	371.10198886966	0
1	557	372.584193679965	0
1	558	373.664333081734	0
1	560	378.011473964509	0
1	561	378.245114946002	0
1	563	379.86312073638	0
1	564	382.316204870167	0
1	566	382.845800114123	0
1	567	382.863978596387	0
1	569	384.207130902413	0
1	570	384.224664283585	0
1	572	388.015331275863	0
1	573	388.045400629739	0
1	577	390.501435690532	0
1	582	393.673515987294	0
1	584	394.141652825126	0
1	585	394.254081556062	0
1	587	395.93734180118	0
1	588	396.871407185558	0
1	590	397.769885351611	0
1	591	398.149942329847	0
1	593	399.062862481755	0
1	594	399.543111370932	0
1	596	399.81044110188	0
1	597	400.352763055694	0
1	599	400.881606934728	0
1	600	402.51967796811	0
1	602	403.594437303428	0
1	603	404.573275037409	0
1	605	406.418193195422	0
1	606	406.86105302289	0
1	610	409.780065616584	0
1	612	409.833507732339	1
1	614	410.169780586144	2
1	616	410.836233975007	2
1	618	411.180651086855	2
1	619	413.065901683224	2
1	620	413.380116126992	1
1	621	414.525941187494	0
1	623	417.910364113403	0
1	624	419.072689344881	0
1	626	419.322014381718	0
1	627	420.278385453604	0
1	629	422.832687932944	0
1	631	425.542810294806	1
1	632	425.774216239465	1
1	634	426.046406565393	1
1	636	427.403790945081	2
1	637	428.166728069881	2
1	639	428.467409221126	2
1	640	431.412523567617	2
1	642	432.157906105553	2
1	643	432.381246713496	2
1	645	432.566989621887	2
1	647	432.576830013383	3
1	648	433.684856151476	3
1	650	433.707121020079	3
1	651	433.836761607913	3
1	653	434.075815971024	3
1	655	434.301972765728	4
1	656	434.526689622711	4
1	658	436.143084157326	4
1	660	436.505526775174	5
1	661	436.861222207577	5
1	662	437.267910926971	4
1	663	438.090752019753	3
1	665	438.587108715932	3
1	666	438.64348856177	3
1	667	440.658463763814	2
1	669	441.088667791185	2
1	670	441.522168313125	2
1	672	443.242626465881	2
1	673	443.869101754179	2
1	674	444.549641815867	1
1	675	444.619569962472	0
1	677	447.663250918167	0
1	678	448.431716781725	0
1	680	449.238721655231	0
1	681	449.377336298638	0
1	683	451.3461667504	0
1	684	451.43964757579	0
1	686	451.767290612183	0
1	687	456.971750409772	0
1	689	458.993742886957	0
1	691	459.343958491434	1
1	693	459.858958107345	2
1	694	459.957592920269	2
1	695	460.216674666591	1
1	697	460.333440321371	1
1	699	461.097413854872	2
1	700	461.111502571163	2
1	701	461.839364178629	1
1	703	462.356576989134	1
1	704	462.73052038497	1
1	706	462.862074836743	1
1	707	462.9192074894	1
1	709	462.924578593461	1
1	710	463.958656594843	1
1	712	464.111838732075	1
1	714	464.899660843376	2
1	715	465.137047823675	2
1	716	465.51921440399	1
1	717	466.103382491054	0
1	719	466.116300048314	0
1	720	466.549637326954	0
1	722	467.051919811134	0
1	723	467.306043558184	0
1	725	468.913656410081	0
1	726	470.2391885291	0
1	728	473.747557434278	0
1	730	473.957214960922	1
1	731	474.379048726923	1
1	732	474.396650933234	0
1	734	474.465329448068	0
1	736	475.464146816483	1
1	738	475.789490248008	2
1	739	476.551194967838	2
1	740	476.912410544098	1
1	741	477.440106560359	0
1	743	479.068118148266	0
1	744	481.225025233571	0
1	746	481.234960168071	0
1	747	481.61214553609	0
1	749	488.613249449141	0
1	750	488.708526210413	0
1	752	492.196263225667	0
1	754	493.365408144471	1
1	756	493.908954237719	2
1	757	494.233911143323	2
1	759	494.559710589472	2
1	760	494.576408083099	2
1	761	494.813473345771	1
1	762	495.052445936038	0
1	764	495.877079747321	0
1	765	496.282782095852	0
1	767	497.064208923518	0
1	768	497.317717660271	0
1	770	500.020058922059	0
1	772	500.575056594569	1
1	773	501.644154330301	1
1	774	502.0730740107	0
1	776	506.651889600837	0
1	777	508.191243770715	0
1	779	511.450215036188	0
1	781	511.872766618468	1
1	782	512.050560036095	1
1	783	512.582798216416	0
1	785	514.0705471376	0
1	786	514.660076812852	0
1	792	524.665125402064	0
1	795	527.680579508331	1
1	797	529.682812786438	2
1	799	529.925255498158	3
1	801	530.330968274815	4
1	803	534.925016943674	5
1	805	538.008749036572	5
1	806	539.739467997111	4
1	808	542.332458376385	4
1	809	543.264574928055	4
1	810	546.548689877728	3
1	811	546.971326539277	2
1	812	547.113374537876	1
1	814	547.491184314128	1
1	815	547.896875819775	1
1	816	547.935189769869	0
1	820	549.207984333628	0
1	824	552.554777196234	1
1	826	553.385730716285	2
1	828	553.610643275451	3
1	830	554.319904081299	4
1	833	555.327581822066	5
1	835	558.007713601131	6
1	837	559.478500012838	6
1	838	561.25841096387	5
1	840	563.46897086838	5
1	841	564.76983720494	5
1	843	565.113837247203	5
1	845	567.278015769836	6
1	847	568.136461575542	7
1	848	569.669702665443	7
1	849	570.17542708048	6
1	850	570.863000373345	5
1	852	571.97629495835	5
1	853	572.091616847101	5
1	854	573.01183642924	4
1	855	573.802032415345	3
1	856	573.900302873634	2
1	857	574.493683531622	1
1	858	575.19718542918	0
1	860	575.403330267762	0
1	864	575.731045064088	1
1	866	577.39283414429	2
1	868	579.808245389156	3
1	870	581.011205160115	4
1	872	581.155087339642	5
1	874	586.13575703014	5
1	876	586.418613726642	5
1	877	587.013750543507	5
1	878	588.123933374055	4
1	880	588.155888633618	4
1	881	588.753696620009	4
1	882	588.997630833322	3
1	884	591.917871062618	3
1	885	592.210907725276	3
1	886	592.350820701964	2
1	887	593.244586333655	1
1	889	594.821648245698	1
1	890	595.040829943218	1
1	892	595.051679155466	1
1	893	595.396688633489	1
1	895	596.20639649376	1
1	897	596.294188609216	2
1	899	596.572053800164	3
1	900	597.460899310527	3
1	901	597.772446434101	2
1	902	599.041133520132	1
1	904	599.232966113424	1
1	906	599.487101652306	2
1	907	599.497790652357	2
1	909	601.309662777513	2
1	911	602.136221639985	3
1	913	603.347891325522	4
1	914	603.612690430238	4
1	916	603.70164852621	4
1	917	603.745669884259	4
1	919	604.208594724906	4
1	920	604.494326771587	4
1	921	605.514491883667	3
1	922	606.248902348867	2
1	924	606.466707188844	2
1	925	606.960041747121	2
1	926	607.130131478184	1
1	928	607.614868598518	1
1	929	608.02607452572	1
1	930	608.333623414075	0
1	932	609.575660587351	0
1	933	610.279184758071	0
1	937	613.217956900836	0
1	939	617.864122186885	1
1	941	618.154571237449	2
1	943	621.480842435129	3
1	945	623.102942711009	4
1	949	624.311325197614	5
1	951	624.735007462025	6
1	954	626.980300777487	7
1	956	629.784974406088	7
1	957	629.927926613866	6
1	958	630.342296933801	5
1	959	630.522876204966	4
1	960	631.31112121164	3
1	961	631.315275573086	2
1	962	632.713129810644	1
1	964	634.093489531929	1
1	966	636.698074197553	2
1	967	636.936387174123	2
1	968	637.487693597497	1
1	969	637.786740625546	0
1	971	640.523601900004	0
1	972	640.702456132524	0
1	974	640.935429828029	0
1	976	641.442740905723	1
1	978	641.553322454432	2
1	980	643.89233745968	3
1	981	645.202841303655	3
1	982	645.34737266567	2
1	986	648.115625816765	2
1	988	648.644336831124	3
1	990	648.841292156772	3
1	991	649.954286768161	2
1	993	650.142493223033	2
1	995	650.16930441038	3
1	996	651.069294269497	3
1	997	651.09672157814	2
1	1001	652.720191788628	2
1	1003	652.99212258376	3
1	1005	655.416610795973	4
1	1007	655.458802547401	5
1	1009	656.303259828825	5
1	1011	657.293952573896	5
1	1012	657.933106930641	5
1	1013	658.420067278361	4
1	1015	660.773834184325	4
1	1016	663.087314251737	4
1	1017	663.152131349642	3
1	1019	664.553012929444	3
1	1023	665.620851880145	4
1	1025	667.61797561028	5
1	1027	668.076064222293	6
1	1029	668.676034905745	7
1	1031	668.962429852442	8
1	1033	670.006796156084	9
1	1035	671.157512397511	10
1	1037	674.647520044623	11
1	1039	675.105732068458	12
1	1041	675.24949377229	13
1	1043	676.030756056007	13
1	1044	676.13827017959	12
1	1046	677.560963948066	12
1	1047	678.589477805177	12
1	1048	678.933965987323	11
1	1050	679.759383910526	11
1	1051	680.350567335907	11
1	1052	681.516685634298	10
1	1054	681.782166360226	10
1	1056	682.058980599772	11
1	1058	682.528886986413	12
1	1059	683.018381996983	12
1	1060	684.331797395693	11
1	1061	684.720212227622	10
1	1063	684.866927246265	10
1	1064	686.967898497267	10
1	1065	687.204384473422	9
1	1067	687.299956445299	9
1	1068	687.469116302046	9
1	1069	688.374590852698	8
1	1071	688.754707784605	8
1	1072	689.091570417512	8
1	1073	689.201854708855	7
1	1074	689.935830628324	6
1	1075	690.140464290491	5
1	1076	690.274119982224	4
1	1078	690.355490972647	4
1	1079	691.961782990793	4
1	1080	692.010864877705	3
1	1081	692.119793655093	2
1	1082	693.755526530421	1
1	1083	695.550610264543	0
1	1085	699.459149082247	0
1	1087	700.335791872472	1
1	1088	700.515246808116	1
1	1089	700.651564991566	0
1	1091	701.370437166844	0
1	1093	701.797951159647	1
1	1094	702.86763092524	1
1	1095	703.235317321332	0
1	1097	705.364722239057	0
1	1098	706.605097989603	0
1	1100	706.660779127563	0
1	1101	707.021217856857	0
1	1103	707.676820094869	0
1	1104	708.165259136018	0
1	1106	709.358300362471	0
1	1107	709.376535268032	0
1	1109	709.675264443965	0
1	1111	710.932108846136	1
1	1112	711.306679309515	1
1	1113	712.364431681895	0
1	1115	713.575912107083	0
1	1116	714.372136231059	0
1	1118	716.920350728856	0
1	1119	717.00445929027	0
1	1121	718.594646680702	0
1	1122	718.807046078016	0
1	1124	719.935907737547	0
1	1125	721.523431545375	0
1	1127	722.090470609901	0
1	1129	722.318335668143	1
1	1131	722.656922531022	2
1	1133	723.245303130804	3
1	1134	726.25923506362	3
1	1136	726.818451105127	3
1	1138	728.041882425159	4
1	1140	728.809650658542	5
1	1141	728.869412512988	5
1	1142	729.529904433779	4
1	1146	732.468005809953	3
1	1147	733.071330900757	2
1	1148	733.290467838742	1
1	1149	733.679017561218	0
1	1151	736.806994116262	0
1	1153	737.93689389845	1
1	1154	738.236901757124	1
1	1155	739.738211473345	0
1	1157	742.676789328312	0
1	1158	743.763384373678	0
1	1160	743.946603817997	0
1	1161	744.565037823027	0
1	1168	754.396175974642	0
1	1170	756.29742984462	1
1	1172	757.387756249389	2
1	1176	761.782018917273	3
1	1181	762.616272659514	4
1	1185	767.761931083372	5
1	1188	768.587983771287	6
1	1190	770.252003027408	7
1	1192	771.147736040968	8
1	1194	771.803831503463	9
1	1197	774.058015593	10
1	1199	774.223482422809	11
1	1201	777.342946361478	12
1	1203	777.929580930772	13
1	1205	779.517737650564	14
1	1207	782.015890148541	15
1	1209	784.133201316241	15
1	1211	785.093838382631	15
1	1213	785.165070562738	16
1	1215	786.44049802821	17
1	1217	786.495727660968	18
1	1218	788.225451692695	18
1	1219	788.345695769483	17
1	1220	790.945857650824	16
1	1221	791.539472330677	15
1	1222	792.782893518241	14
1	1224	793.650915778176	14
1	1225	793.872423124823	14
1	1227	794.013188163675	14
1	1229	794.363870468322	15
1	1230	794.427659002854	15
1	1232	794.5823846427	15
1	1234	795.036154187664	16
1	1235	795.303579113484	16
1	1236	796.564462227308	15
1	1237	797.520962808432	14
1	1238	797.538313653921	13
1	1240	798.686014018669	13
1	1242	799.214224400086	14
1	1244	799.255443412564	15
1	1245	799.405437548496	15
1	1247	800.012603900644	15
1	1249	800.451911040458	16
1	1250	800.908352445558	16
1	1252	801.03618074556	16
1	1254	801.625610468849	17
1	1255	802.674562861	17
1	1257	803.277586164062	17
1	1258	803.776974311722	17
1	1260	803.88172247478	17
1	1262	804.328339395705	18
1	1263	804.688662986958	18
1	1264	805.165358523561	17
1	1265	806.501392722666	16
1	1266	806.514945412364	15
1	1267	806.543338024804	14
1	1268	806.916309713556	13
1	1269	808.128593899451	12
1	1270	808.21614154392	11
1	1272	808.816038940029	11
1	1276	811.467408945212	12
1	1278	811.921924846541	13
1	1280	812.425815409252	14
1	1282	812.616243598888	15
1	1284	814.731796512194	16
1	1286	815.794189381596	17
1	1288	819.85049232709	18
1	1290	821.75507743807	19
1	1292	822.001535921076	20
1	1294	823.532216672654	21
1	1296	824.010277119195	22
1	1298	824.759558310021	22
1	1299	828.84591688806	21
1	1300	829.362619760938	20
1	1301	829.669609984157	19
1	1303	830.506667991947	19
1	1304	830.714701818266	19
1	1306	831.966429581287	19
1	1307	832.013968232054	19
1	1309	832.519833255444	19
1	1311	832.588600234087	20
1	1313	833.094188759241	21
1	1314	833.773407456507	21
1	1316	834.049375875035	21
1	1318	834.053167769101	22
1	1320	834.46901891468	23
1	1321	835.23532451296	23
1	1323	835.269603355601	23
1	1324	835.47495091033	23
1	1325	835.968289783986	22
1	1329	838.927250671209	22
1	1331	843.710906944798	23
1	1333	844.18814781582	24
1	1336	845.833251574882	25
1	1337	847.500757542601	25
1	1339	847.585670540378	25
1	1341	847.858619505658	26
1	1342	848.017552752353	26
1	1343	848.582947051663	25
1	1344	849.017139145466	24
1	1345	849.063794861989	23
1	1346	849.261723248861	22
1	1348	849.728187505246	22
1	1349	850.087096537496	22
1	1350	850.319488186497	21
1	1351	852.079518558785	20
1	1352	852.74051767204	19
1	1354	856.655412655381	19
1	1355	857.425163049804	19
1	1356	857.909019363406	18
1	1358	858.197033334954	18
1	1359	859.613893674815	18
1	1361	860.924473891176	18
1	1363	862.146011197576	19
1	1365	862.432453106288	20
1	1366	862.628475991016	20
1	1368	862.715270088289	20
1	1369	863.4358006861	20
1	1370	863.8648307695	19
1	1372	864.608431666109	19
1	1374	866.221368531159	20
1	1375	866.602980888252	20
1	1376	867.047155549319	19
1	1378	867.566318821955	19
1	1379	869.831887845199	19
1	1380	869.930734425429	18
1	1381	870.510274727494	17
1	1382	874.317004271509	16
1	1384	874.482876991448	16
1	1386	875.753554257682	17
1	1388	876.349625510077	18
1	1389	876.403625044533	18
1	1390	877.117289213849	17
1	1391	877.176294704312	16
1	1392	878.127959426427	15
1	1396	881.010026380048	15
1	1398	881.128349634749	16
1	1400	881.275657122058	17
1	1402	882.586376683823	18
1	1404	882.982980476056	19
1	1406	885.846227505748	20
1	1408	885.858085008513	21
1	1410	886.143513912675	22
1	1412	891.519374958112	22
1	1413	892.021579492209	21
1	1414	892.550087739285	20
1	1415	892.790864581607	19
1	1419	897.186298853399	18
1	1420	897.215728026983	17
1	1421	897.580676859139	16
1	1422	898.456577003087	15
1	1423	898.486818025765	14
1	1424	899.03690243274	13
1	1426	900.102702605627	13
1	1428	900.560166250065	14
1	1429	902.254736608675	14
1	1431	905.630115743862	14
1	1433	905.765463836406	15
1	1434	905.790867871822	15
1	1436	905.844497202781	15
1	1438	907.331554475026	16
1	1439	907.990994036477	16
1	1440	908.003279604422	15
1	1442	908.897756200147	15
1	1443	909.226612651054	15
1	1444	909.873509381591	14
1	1446	911.545781896901	14
1	1448	911.833604214731	15
1	1449	912.633407844707	15
1	1450	912.753775831961	14
1	1451	913.048321385921	13
1	1452	913.250639194014	12
1	1454	913.774127821415	12
1	1455	915.326343314485	12
1	1456	916.332179636869	11
1	1457	917.066378220253	10
1	1459	917.386293709479	10
1	1460	920.118831291009	10
1	1461	920.789134085173	9
1	1463	923.254754974267	9
1	1464	923.595697064497	9
1	1466	923.724530334622	9
1	1467	924.746517104779	9
1	1468	926.202335224115	8
1	1470	927.125502571202	8
1	1471	927.965348872963	8
1	1472	928.277124740455	7
1	1474	929.250613534415	7
1	1476	929.389045472381	8
1	1477	929.65766416874	8
1	1479	930.083792726861	8
1	1481	930.704302716966	9
1	1482	931.461845694593	9
1	1483	932.25324781869	8
1	1484	932.400516757602	7
1	1485	932.476256048331	6
1	1487	932.581222866067	6
1	1488	932.829966899678	6
1	1489	932.884146371305	5
1	1490	932.987169417771	4
1	1491	933.567083190099	3
1	1492	934.952657644744	2
1	1493	935.111121681237	1
1	1494	935.410343823796	0
1	1496	936.11289834892	0
1	1497	936.846548030061	0
1	1499	943.445580232444	0
1	1500	943.95239112691	0
1	1502	946.226865784283	0
1	1504	948.432384869994	1
1	1506	948.514136368641	2
1	1508	948.652039738129	3
1	1509	949.596505318217	3
1	1511	949.990914135097	3
1	1512	950.07468004816	3
1	1514	950.476823999827	3
1	1516	950.801859850235	4
1	1518	952.005087300845	5
1	1520	952.345212311109	6
1	1521	952.882992003534	6
1	1522	952.914994580401	5
1	1524	953.377938728828	5
1	1525	953.500350770618	5
1	1526	953.622171717505	4
1	1527	953.774205935563	3
1	1528	953.895132867319	2
1	1530	954.456712034383	2
1	1532	954.731767455785	3
1	1534	955.492801331163	4
1	1535	956.251476531721	4
1	1536	956.853443100195	3
1	1538	956.998084540934	3
1	1539	957.327972320755	3
1	1540	957.458236023099	2
1	1542	957.539573934901	2
1	1544	957.773536876261	3
1	1545	957.954249887595	3
1	1546	958.742617902493	2
1	1550	959.027589347388	2
1	1552	959.155546618173	3
1	1556	963.897121383923	4
1	1558	963.953459138442	5
1	1560	964.085074597887	6
1	1563	965.546962023895	7
1	1565	966.28706968602	8
1	1567	967.461876646197	9
1	1569	968.319827053049	10
1	1571	968.580639644344	11
1	1573	970.665734846495	12
1	1577	982.905529073024	13
1	1583	999.438373390687	13
1	1584	999.860926687335	12
1	1585	1000.481292009379	11
1	1587	1001.144543405083	11
1	1588	1001.597231125614	11
1	1589	1001.614181016812	10
1	1590	1001.882216280855	9
1	1591	1002.129154088052	8
1	1593	1003.588131943884	8
1	1595	1004.574149174221	9
1	1596	1005.073913184916	9
1	1597	1005.178431728552	8
1	1598	1006.350330216268	7
1	1599	1007.038126397095	6
1	1600	1007.095578637284	5
1	1602	1008.871417198063	5
1	1603	1009.186187410036	5
1	1604	1010.544735257375	4
1	1606	1011.226165762683	4
1	1607	1011.298526362442	4
1	1608	1011.862796910026	3
1	1609	1012.072341473754	2
1	1610	1012.267868471706	1
1	1612	1012.358816073303	1
1	1613	1012.578032510841	1
1	1614	1012.673039423639	0
1	1616	1013.095293700417	0
1	1618	1014.739531041286	1
1	1620	1014.776232880279	2
1	1621	1015.827650672783	2
1	1623	1016.775027712936	2
1	1625	1016.778860672714	3
1	1626	1017.1140604371	3
1	1628	1017.400917244019	3
1	1629	1017.968363153417	3
1	1630	1018.000694975089	2
1	1632	1018.691961905162	2
1	1633	1018.921551059952	2
1	1634	1019.332906469668	1
1	1635	1019.445651530604	0
1	1637	1022.976128873814	0
1	1639	1023.01133978119	1
1	1641	1023.590947511598	2
1	1642	1023.734280411842	2
1	1643	1024.172659732399	1
1	1644	1024.247890483663	0
1	1646	1024.445828805131	0
1	1648	1025.018226500147	1
1	1650	1025.626471358679	2
1	1652	1027.290083233843	3
1	1653	1028.653424603894	3
1	1655	1028.730489856681	3
1	1657	1029.196666557324	4
1	1658	1029.995370333434	4
1	1659	1030.225992345133	3
1	1661	1033.377890028524	3
1	1662	1033.744307088363	3
1	1663	1033.943607339207	2
1	1665	1034.243346791809	2
1	1666	1034.42868122236	2
1	1667	1034.743661325083	1
1	1668	1036.548889685232	0
1	1670	1039.580006899626	0
1	1671	1040.351086477926	0
1	1673	1041.319153274392	0
1	1674	1041.936353535737	0
1	1676	1042.406336663569	0
1	1677	1042.713905263559	0
1	1679	1044.267978886568	0
1	1680	1047.895846721196	0
1	1682	1049.615544542096	0
1	1683	1049.726978477168	0
1	1685	1050.076007638806	0
1	1687	1050.625247215343	1
1	1688	1051.110664271031	1
1	1689	1051.17609877583	0
1	1691	1054.029387678353	0
1	1693	1054.633463220593	1
1	1694	1055.178808108879	1
1	1695	1056.031578948963	0
1	1697	1057.298269051541	0
1	1699	1057.317757626159	1
1	1700	1057.629337337029	1
1	1701	1057.807235742184	0
1	1703	1061.991849735295	0
1	1704	1062.175329989912	0
1	1706	1064.608945990328	0
1	1708	1064.823464540176	1
1	1709	1064.93392372229	1
1	1711	1065.152423504577	1
1	1713	1066.360482603238	2
1	1715	1066.748619439124	3
1	1717	1068.347296216718	4
1	1718	1069.661734828443	4
1	1719	1069.882219656861	3
1	1720	1070.5548337681	2
1	1721	1071.011982896594	1
1	1723	1071.38916081057	1
1	1727	1073.139348932671	1
1	1728	1073.972015283427	0
1	1730	1078.221260160579	0
1	1731	1078.462063082967	0
1	1733	1081.184498267306	0
1	1734	1081.376633675784	0
1	1736	1082.94237363516	0
1	1737	1083.502472014036	0
1	1739	1085.294318396437	0
1	1741	1085.961413358557	1
1	1743	1086.951552235328	2
1	1744	1087.173711083786	2
1	1746	1087.5858052271	2
1	1748	1088.511826890979	3
1	1749	1089.178641180273	3
1	1750	1089.314452280827	2
1	1751	1089.765894086057	1
1	1752	1091.588786864965	0
1	1754	1094.967340173235	0
1	1755	1096.572761712601	0
1	1757	1099.1543530585	0
1	1758	1099.992477906237	0
1	1760	1102.392288914384	0
1	1762	1102.480113654256	1
1	1764	1102.825236787806	2
1	1765	1103.402444187901	2
1	1766	1104.12568479513	1
1	1767	1104.724260724805	0
1	1769	1105.687237211306	0
1	1770	1106.723729366218	0
1	1774	1107.475899869137	0
1	1776	1110.619035510661	1
1	1778	1111.036226701625	2
1	1780	1111.296304840273	2
1	1781	1111.584822920443	1
1	1783	1111.596963284525	1
1	1784	1111.728137099522	1
1	1785	1112.156411151835	0
1	1787	1112.643060746678	0
1	1788	1112.778824561467	0
1	1790	1113.454549545027	0
1	1791	1114.44698780509	0
1	1793	1114.852997089906	0
1	1794	1114.86770777022	0
1	1796	1115.821900788533	0
1	1798	1116.269212904772	1
1	1800	1116.988608327221	2
1	1802	1117.040054895329	3
1	1806	1118.386462307537	4
1	1808	1119.787448688919	5
1	1810	1120.100115089514	6
1	1812	1120.402635615769	7
1	1814	1120.454426104974	8
1	1818	1123.758896683077	9
1	1823	1126.369568742859	10
1	1825	1128.805840258322	11
1	1829	1131.066882237731	12
1	1831	1134.157851945598	13
1	1833	1137.965182090276	14
1	1837	1143.387958188097	14
1	1839	1144.363608925358	14
1	1840	1145.514974978668	14
1	1841	1146.108654430132	13
1	1842	1146.751233113427	12
1	1843	1147.077664090874	11
1	1844	1147.407438131884	10
1	1848	1150.478361178008	10
1	1850	1160.954682044478	11
1	1852	1161.429704925456	11
1	1854	1161.47990803748	11
1	1855	1162.664489457091	11
1	1856	1162.980947084058	10
1	1857	1163.767451220508	9
1	1858	1163.953304054915	8
1	1859	1164.232453521141	7
1	1860	1164.335339916539	6
1	1864	1165.839491493883	5
1	1866	1167.241279537224	5
1	1868	1167.278612900247	6
1	1870	1167.460299364379	7
1	1871	1168.292635258453	7
1	1872	1168.336342130695	6
1	1874	1168.62483560574	6
1	1876	1168.8673204564	7
1	1878	1169.136333644754	8
1	1879	1169.399778124891	8
1	1880	1170.730776909157	7
1	1881	1172.728865716613	6
1	1887	1178.222986699493	6
1	1890	1179.682572167747	7
1	1892	1180.273972514268	7
1	1893	1180.811632160569	6
1	1894	1181.208127398685	5
1	1895	1181.457140751729	4
1	1897	1181.639122602363	4
1	1901	1183.046762753674	5
1	1903	1184.979322066873	6
1	1905	1185.442713461297	7
1	1907	1185.681913691875	8
1	1913	1186.679337760127	9
1	1915	1186.984241104228	10
1	1918	1190.062288741367	11
1	1921	1191.440799598029	12
1	1923	1191.844497341639	13
1	1925	1191.925681567824	14
1	1927	1192.081423140606	15
1	1929	1193.438128395972	16
1	1931	1194.036345903219	17
1	1933	1196.767918433749	18
1	1935	1198.50645691759	19
1	1937	1198.622245333107	20
1	1939	1200.953722794513	21
1	1941	1201.204404484699	22
1	1943	1201.944963540494	23
1	1945	1206.53058234537	24
1	1947	1209.03735611294	24
1	1948	1209.276099806927	23
1	1949	1210.756408386852	22
1	1950	1210.763392026529	21
1	1951	1212.858378460547	20
1	1952	1212.862159197232	19
1	1953	1213.391406308049	18
1	1955	1213.408875044749	18
1	1956	1213.769477052844	18
1	1957	1214.165647136133	17
1	1961	1215.810610372476	17
1	1963	1219.809438826525	18
1	1965	1221.887335580928	19
1	1967	1222.435767671968	20
1	1969	1222.859286720802	21
1	1971	1225.622059901699	22
1	1975	1227.134521222775	23
1	1978	1231.360230248702	24
1	1980	1232.392407505948	25
1	1982	1232.81588546595	26
1	1985	1234.822559405648	27
1	1986	1236.039789027008	27
1	1987	1236.88355118885	26
1	1989	1238.2061870049	26
1	1990	1238.541147162146	26
1	1992	1238.556369877244	26
1	1993	1240.660762629335	26
1	1994	1240.729838635029	25
1	1995	1241.297020845257	24
1	1996	1242.655003901621	23
1	1998	1242.7017830763	23
1	1999	1243.277025637487	23
1	2000	1243.937064144959	22
1	2002	1244.048536917149	22
1	2003	1244.185822977073	22
1	2004	1244.910018911264	21
1	2005	1245.824070941403	20
1	2007	1246.63958237219	20
1	2009	1247.22921860821	21
1	2010	1247.579957213997	21
1	2011	1247.615256785673	20
1	2012	1247.842320975454	19
1	2014	1248.014959792285	19
1	2016	1248.664757877061	20
1	2018	1248.989592386413	21
1	2019	1249.23634903709	21
1	2021	1249.757891462886	21
1	2025	1251.584641891279	21
1	2026	1251.590712768886	20
1	2027	1253.508078696476	19
1	2029	1254.487310918788	19
1	2031	1254.931597116725	20
1	2032	1256.260983931547	20
1	2033	1256.955671136061	19
1	2034	1257.276082945823	18
1	2035	1258.389096804416	17
1	2036	1259.181553127287	16
1	2037	1259.204453128583	15
1	2038	1259.506569198045	14
1	2039	1259.592342093041	13
1	2041	1261.449974843345	13
1	2042	1261.574447335878	13
1	2044	1263.55907110605	13
1	2046	1263.835234320867	14
1	2048	1264.546211260808	15
1	2049	1264.613378144812	15
1	2050	1265.28669407445	14
1	2051	1266.121342623544	13
1	2053	1266.96323010411	13
1	2055	1268.600752950135	14
1	2056	1270.607326223047	14
1	2058	1271.282784405258	14
1	2060	1271.73072139625	15
1	2061	1272.769746285455	15
1	2062	1273.026025178563	14
1	2063	1273.595418128027	13
1	2064	1275.009700896969	12
1	2066	1275.179969504743	12
1	2068	1275.405825551845	13
1	2069	1275.559818484311	13
1	2070	1275.897666489829	12
1	2071	1276.166773296154	11
1	2072	1276.690017029621	10
1	2073	1277.602639921937	9
1	2074	1277.626711875557	8
1	2076	1279.03296531741	8
1	2078	1279.037906368011	9
1	2079	1279.295922719269	9
1	2080	1281.934717358223	8
1	2082	1283.731274769469	8
1	2083	1285.510137777706	8
1	2084	1285.793297549731	7
1	2085	1286.555420557955	6
1	2086	1286.55561115871	5
1	2087	1286.645351712766	4
1	2089	1286.917407568458	4
1	2090	1287.449267954028	4
1	2091	1287.649282527954	3
1	2092	1287.838517497635	2
1	2094	1287.902042138885	2
1	2096	1287.910366958498	3
1	2098	1288.677301827416	4
1	2100	1289.026452434826	5
1	2101	1289.497321957276	5
1	2102	1290.647701611861	4
1	2104	1291.383262983045	4
1	2105	1291.446745402127	4
1	2106	1292.465606943856	3
1	2107	1293.215674070429	2
1	2108	1294.143094503747	1
1	2110	1295.039096707272	1
1	2112	1295.595850335023	2
1	2113	1296.154878764936	2
1	2115	1296.194278568782	2
1	2117	1296.423629890733	3
1	2118	1297.142997774425	3
1	2119	1297.65043994502	2
1	2120	1297.670298000523	1
1	2121	1298.048070832056	0
1	2126	1302.606562694904	0
1	2128	1302.674175212236	1
1	2130	1302.712922299817	2
1	2131	1302.756688339058	2
1	2132	1303.606755711981	1
1	2133	1304.054428799173	0
1	2135	1304.155999422908	0
1	2137	1304.572418513771	1
1	2139	1304.632421985024	2
1	2141	1306.078377488351	3
1	2143	1306.702478520333	4
1	2144	1307.72530168144	4
1	2149	1308.885584137467	4
1	2151	1310.055209843513	5
1	2155	1310.666582497948	6
1	2157	1312.764977752622	7
1	2159	1312.91243277936	8
1	2162	1313.772505432551	9
1	2164	1313.78912646212	10
1	2165	1314.668955646338	10
1	2166	1314.834743168547	9
1	2167	1318.163692174139	8
1	2168	1319.609120094512	7
1	2169	1320.214614980122	6
1	2171	1321.102258655263	6
1	2173	1321.787990138236	7
1	2174	1321.942403390596	7
1	2175	1322.288788278586	6
1	2176	1322.965211782408	5
1	2177	1323.152883004714	4
1	2178	1324.085818181726	3
1	2180	1324.119970221857	3
1	2182	1325.765371421154	4
1	2184	1326.676551638463	5
1	2185	1326.973712020086	5
1	2186	1327.562897067275	4
1	2187	1327.564387348252	3
1	2188	1328.830826771182	2
1	2189	1328.840748938932	1
1	2190	1329.127540085485	0
1	2192	1331.331983887722	0
1	2193	1333.183882745522	0
1	2195	1333.860677939256	0
1	2197	1333.917127686097	1
1	2198	1334.287929034631	1
1	2200	1335.050098874114	1
1	2201	1335.356763873786	1
1	2203	1335.433389802591	1
1	2205	1335.718903683261	2
1	2206	1335.901827535146	2
1	2207	1338.265698413061	1
1	2209	1338.339331223561	1
1	2211	1338.749895831184	2
1	2212	1339.527673122944	2
1	2214	1340.139045273515	2
1	2216	1340.447397833594	3
1	2218	1341.149353579183	4
1	2220	1341.291052395999	5
1	2221	1341.786354547058	5
1	2222	1342.076190342546	4
1	2223	1342.133162251972	3
1	2225	1342.603018719597	3
1	2227	1343.977486435191	4
1	2228	1345.473852464408	4
1	2229	1345.674737165848	3
1	2230	1346.73801752371	2
1	2231	1347.441211446786	1
1	2232	1348.390570175893	0
1	2234	1349.3515591542	0
1	2235	1350.17342652863	0
1	2237	1354.879673260134	0
1	2238	1354.942926997853	0
1	2240	1356.566705278576	0
1	2241	1357.699770028511	0
1	2243	1358.249529687071	0
1	2244	1358.791141766233	0
1	2248	1362.427234499461	0
1	2250	1365.339696443294	1
1	2252	1365.576962569621	2
1	2254	1365.769603671471	3
1	2256	1366.427992040567	4
1	2258	1367.28546902752	5
1	2260	1369.078462819797	5
1	2264	1372.248393714643	5
1	2266	1372.511531274087	6
1	2269	1372.829125994512	7
1	2270	1374.293253627592	7
1	2271	1374.655666068608	6
1	2272	1375.526845272222	5
1	2274	1375.550614967825	5
1	2275	1376.085566892872	5
1	2277	1376.458776428908	5
1	2279	1377.892305044473	6
1	2286	1384.128220671508	7
1	2288	1385.227104734446	8
1	2290	1385.565285554165	9
1	2294	1387.726012817985	10
1	2297	1388.263452930578	11
1	2302	1389.706220867563	12
1	2304	1391.887435356221	12
1	2305	1392.781514237426	11
1	2306	1394.887035669082	10
1	2307	1395.304669540121	9
1	2308	1395.592202172543	8
1	2310	1397.341658520782	8
1	2312	1397.378624240697	9
1	2313	1397.48506882054	9
1	2315	1397.859364676247	9
1	2316	1398.532562300987	9
1	2318	1399.062399033421	9
1	2319	1399.174207300798	9
1	2320	1401.441788882157	8
1	2321	1401.589853923244	7
1	2322	1401.974441012953	6
1	2323	1402.697557233048	5
1	2324	1402.765918013219	4
1	2326	1402.97242087405	4
1	2327	1405.476991207302	4
1	2328	1405.943747205737	3
1	2330	1406.067731345078	3
1	2331	1407.070343346187	3
1	2332	1408.092393492474	2
1	2333	1408.11470880532	1
1	2334	1409.279898223691	0
1	2336	1409.299125700992	0
1	2337	1409.722928449758	0
1	2339	1410.025229420054	0
1	2341	1410.348601211253	1
1	2343	1410.391036913902	2
1	2345	1410.741045439148	3
1	2347	1411.16223911149	4
1	2348	1412.295091067758	4
1	2349	1412.34900419198	3
1	2351	1412.669099782369	3
1	2353	1413.47197943052	4
1	2354	1413.870870948784	4
1	2356	1414.288375392468	4
1	2357	1414.522562521711	4
1	2359	1415.881123188878	4
1	2361	1418.467013676095	5
1	2362	1419.580551428838	5
1	2364	1419.633252425292	5
1	2365	1419.818600675208	5
1	2366	1420.497513923467	4
1	2368	1420.608323111216	4
1	2369	1420.794766123675	4
1	2370	1421.063512846472	3
1	2371	1421.218702421245	2
1	2373	1421.664124928856	2
1	2374	1421.88828068277	2
1	2375	1421.981827755035	1
1	2377	1422.233047917332	1
1	2378	1423.021813003995	1
1	2380	1424.081938111892	1
1	2381	1424.473314417809	1
1	2382	1424.994325251057	0
1	2384	1426.74781880048	0
1	2385	1426.999178958809	0
1	2387	1428.596550397759	0
1	2388	1428.84386160608	0
1	2390	1430.411946199495	0
1	2391	1431.584151300027	0
1	2393	1439.512238481391	0
1	2395	1440.169100535688	1
1	2397	1440.551007825389	2
1	2398	1442.051623744033	2
1	2399	1444.570904581535	1
1	2400	1444.96602715641	0
1	2402	1447.152499919888	0
1	2403	1447.654475332523	0
1	2405	1448.841530601072	0
1	2407	1448.861084506442	1
1	2408	1449.091166310083	1
1	2410	1449.260859280901	1
1	2412	1450.236873952251	2
1	2413	1450.446453342772	2
1	2415	1451.530451560979	2
1	2416	1451.95839640816	2
1	2417	1453.886222433983	1
1	2418	1456.543057252359	0
1	2420	1456.644403820215	0
1	2421	1459.408747581571	0
1	2425	1466.572502365715	0
1	2427	1467.00913155459	0
1	2429	1468.053266601072	0
1	2431	1468.057428405282	1
1	2433	1470.303143662745	2
1	2434	1470.346759712171	2
1	2436	1470.919762200061	2
1	2437	1471.573845867111	2
1	2438	1472.091595269577	1
1	2439	1472.309763527095	0
1	2441	1476.855877337946	0
1	2442	1477.67346654551	0
1	2444	1479.043977395624	0
1	2445	1479.547204438749	0
1	2447	1480.323529499056	0
1	2449	1480.769692031158	1
1	2450	1482.627118238447	1
1	2451	1483.544192516821	0
1	2453	1484.07156744137	0
1	2455	1484.398946014696	1
1	2457	1485.095220434539	2
1	2459	1487.126866763998	3
1	2460	1488.617930110402	3
1	2461	1490.748788534534	2
1	2463	1490.925314200862	2
1	2465	1492.833050709267	3
1	2466	1493.140602690742	3
1	2467	1493.795668665064	2
1	2468	1494.232932684974	1
1	2469	1494.869005608198	0
1	2471	1497.479473821956	0
1	2473	1497.753429039651	1
1	2475	1498.134396428019	2
1	2476	1499.388005482601	2
1	2477	1499.676917827759	1
1	2478	1501.650238074076	0
1	2480	1501.828199441348	0
1	2481	1502.764468214724	0
1	2483	1503.584483718751	0
1	2484	1504.381737468974	0
1	2486	1504.613586869472	0
1	2488	1505.375466269794	1
1	2490	1505.464140083128	2
1	2491	1506.148709676194	2
1	2492	1506.53449193544	1
1	2494	1506.626563066268	1
1	2496	1506.86159629217	2
1	2497	1507.903543516918	2
1	2499	1508.836577610657	2
1	2500	1509.139991858975	2
1	2502	1509.284963889183	2
1	2503	1509.503437668481	2
1	2505	1510.552837213994	2
1	2506	1510.831598730746	2
1	2508	1510.924510002872	2
1	2509	1511.654398357958	2
1	2510	1511.905357587486	1
1	2512	1511.909402138478	1
1	2514	1512.076679776437	2
1	2515	1512.914861852242	2
1	2516	1513.40694973465	1
1	2517	1513.433376346124	0
1	2519	1515.555764361998	0
1	2521	1516.521481714036	1
1	2525	1518.176009480521	2
1	2527	1519.630830697341	2
1	2529	1520.82615780479	2
1	2530	1521.974504637291	2
1	2534	1523.884096552449	2
1	2536	1524.522304797913	3
1	2538	1524.619590928957	4
1	2540	1526.573083108818	5
1	2542	1528.033909560315	6
1	2544	1528.309650224431	7
1	2546	1528.46607150003	8
1	2548	1529.527324426065	9
1	2551	1530.057754804181	10
1	2553	1530.646268566577	11
1	2554	1530.975441293076	11
1	2555	1531.172897356905	10
1	2556	1531.567567589852	9
1	2557	1533.228105210899	8
1	2558	1533.625222856303	7
1	2560	1533.748614906053	7
1	2561	1533.980777082573	7
1	2562	1535.038182274194	6
1	2563	1535.741877650707	5
1	2565	1535.926792702138	5
1	2566	1536.531758433509	5
1	2568	1537.443031897988	5
1	2569	1537.998991401044	5
1	2570	1539.244794522995	4
1	2571	1540.119472897597	3
1	2572	1540.395677506655	2
1	2573	1540.772618259062	1
1	2577	1541.55218372953	1
1	2579	1542.279393182169	2
1	2581	1545.516365105442	3
1	2583	1548.964888550627	3
1	2585	1548.983435366766	3
1	2587	1549.708122673097	4
1	2589	1550.435880442119	5
1	2593	1552.72109328951	5
1	2594	1553.226497349365	4
1	2595	1553.796353468317	3
1	2597	1554.096518757829	3
1	2598	1554.231858647613	3
1	2599	1554.324416105607	2
1	2600	1556.97381414074	1
1	2604	1558.224072769489	1
1	2606	1559.932113979996	1
1	2608	1562.289000697007	1
1	2609	1564.45765372602	1
1	2611	1564.474926483594	1
1	2612	1564.551516290382	1
1	2613	1565.159855505475	0
1	2615	1565.991985898346	0
1	2616	1566.069439966788	0
1	2618	1567.409790857548	0
1	2622	1572.626820865524	1
1	2624	1573.924312547005	2
1	2626	1578.777725576365	3
1	2628	1581.217558247495	4
1	2630	1581.879321489068	5
1	2632	1583.764792187255	6
1	2634	1586.276882668394	7
1	2636	1588.884109535468	8
1	2638	1589.017546056799	9
1	2640	1589.854280110555	10
1	2642	1591.496263992265	11
1	2644	1591.641122970438	12
1	2646	1592.550530834685	13
1	2648	1593.32736753706	14
1	2653	1598.648786607919	15
1	2655	1599.976159007419	16
1	2657	1601.473526127868	16
1	2659	1602.125836813857	16
1	2661	1602.633111833627	17
1	2662	1603.015506799022	17
1	2663	1603.150902727231	16
1	2664	1604.70404145786	15
1	2665	1607.543366652053	14
1	2666	1607.73573356812	13
1	2667	1608.477169289322	12
1	2668	1608.638576959675	11
1	2670	1611.693681953996	11
1	2671	1613.18828881057	11
1	2673	1613.225155541521	11
1	2675	1613.446467937905	12
1	2676	1613.82129045778	12
1	2677	1613.916979924942	11
1	2679	1614.311937251194	11
1	2680	1614.494631538759	11
1	2682	1615.259735942626	11
1	2684	1616.179388805232	12
1	2686	1617.264606758458	13
1	2687	1617.79307205139	13
1	2691	1621.106424897813	13
1	2693	1621.123148603578	14
1	2697	1624.435394461313	15
1	2699	1625.722012055589	16
1	2704	1629.159563404555	17
1	2706	1630.429845242936	18
1	2708	1632.074833009041	19
1	2713	1636.425856051668	20
1	2715	1638.489866226727	21
1	2717	1641.147404115622	22
1	2719	1644.054807280301	23
1	2722	1645.028582802536	24
1	2724	1646.139612653201	24
1	2725	1646.761642637477	23
1	2726	1647.207713971375	22
1	2728	1647.884089765292	22
1	2729	1647.914223831791	22
1	2730	1649.510833520597	21
1	2732	1650.599884767983	21
1	2733	1651.280597317547	21
1	2735	1652.042743663865	21
1	2736	1652.166167586923	21
1	2737	1652.245862027082	20
1	2739	1652.968435120169	20
1	2740	1653.212788887002	20
1	2741	1653.449115901459	19
1	2743	1653.490478886203	19
1	2744	1653.491389453126	19
1	2745	1653.974180984818	18
1	2746	1654.34835730833	17
1	2748	1654.718254670508	17
1	2749	1655.156378094564	17
1	2751	1656.054518828468	17
1	2752	1656.603432973217	17
1	2754	1657.946697883348	17
1	2755	1658.865870462591	17
1	2756	1659.443059502353	16
1	2757	1659.686513539187	15
1	2759	1660.068751550373	15
1	2761	1660.780051992561	16
1	2762	1661.069294997203	16
1	2764	1662.789876676435	16
1	2766	1662.962944442372	17
1	2767	1663.778402005783	17
1	2772	1667.968413265968	17
1	2774	1669.39593659929	18
1	2776	1670.151444456016	19
1	2780	1673.724275026329	20
1	2782	1675.07944272507	20
1	2786	1675.471163053099	20
1	2788	1684.050359097589	21
1	2790	1685.203228034651	21
1	2791	1686.29574217605	20
1	2792	1687.18948024262	19
1	2794	1688.509040754904	19
1	2795	1689.299237354984	19
1	2799	1691.072193083412	19
1	2802	1692.051492922693	20
1	2803	1692.473585688058	20
1	2804	1692.557484919651	19
1	2806	1694.618590529908	19
1	2807	1694.742181546069	19
1	2808	1694.748023839968	18
1	2809	1694.833893771018	17
1	2811	1695.687933939312	17
1	2812	1695.720372652515	17
1	2813	1696.665187200291	16
1	2814	1696.917141342455	15
1	2815	1699.180269886564	14
1	2817	1700.341282528052	14
1	2818	1700.490730208699	14
1	2819	1701.776141882362	13
1	2820	1702.546153786138	12
1	2824	1704.673239894352	12
1	2826	1705.222027168216	13
1	2828	1705.739022708871	14
1	2830	1705.912191960685	15
1	2832	1706.467800180778	16
1	2834	1707.248730669372	17
1	2837	1710.33012506393	18
1	2838	1711.121985363751	18
1	2839	1711.560242441535	17
1	2841	1712.464362688205	17
1	2848	1719.230150769495	18
1	2852	1721.133567897009	19
1	2856	1723.853971113147	20
1	2859	1725.235740923344	21
1	2861	1727.149599172454	22
1	2863	1727.487297774178	23
1	2865	1728.374016573563	24
1	2867	1731.391274289712	25
1	2869	1731.403422700404	26
1	2871	1732.760561007443	27
1	2873	1733.167310260821	28
1	2875	1733.347861096754	29
1	2877	1736.549000989689	30
1	2880	1737.945632498439	31
1	2882	1738.668527124685	31
1	2883	1738.858213881236	30
1	2885	1738.862142603933	30
1	2886	1739.44807756926	30
1	2887	1739.929677416253	29
1	2888	1740.177070053266	28
1	2890	1740.241193833703	28
1	2891	1740.512061662492	28
1	2893	1740.832048007029	28
1	2894	1741.797499383121	28
1	2895	1744.247764727026	27
1	2897	1744.897046613692	27
1	2899	1745.876196168263	28
1	2900	1746.605052597558	28
1	2902	1746.616396648315	28
1	2904	1746.618250180423	29
1	2905	1746.903134517127	29
1	2906	1747.202574639167	28
1	2907	1748.810801585785	27
1	2908	1749.490118454193	26
1	2909	1749.85167745266	25
1	2910	1752.752058629505	24
1	2911	1753.187280903585	23
1	2912	1753.624714002595	22
1	2914	1753.642252238327	22
1	2915	1754.099324034683	22
1	2916	1754.274384941607	21
1	2918	1754.606874145668	21
1	2919	1754.66188437843	21
1	2920	1754.693837490375	20
1	2924	1755.56550650558	20
1	2926	1755.697090923033	21
1	2929	1756.508716400416	22
1	2930	1758.208682772563	22
1	2932	1758.560514913813	22
1	2933	1759.468515823233	22
1	2937	1766.76990740553	22
1	2939	1766.798237852126	23
1	2941	1766.869944038028	24
1	2943	1767.061787326975	25
1	2945	1768.018897499607	26
1	2947	1768.166312141276	27
1	2949	1768.803438834718	28
1	2951	1770.470609701005	29
1	2953	1770.542862957898	30
1	2955	1770.7359472807	31
1	2957	1771.436242141138	32
1	2959	1771.533637847629	33
1	2961	1772.844118580597	34
1	2963	1773.960449328721	35
1	2965	1778.149467587484	36
1	2967	1778.756723505819	37
1	2969	1782.228337904673	38
1	2971	1782.556305426418	39
1	2973	1782.835012865286	40
1	2975	1785.322069909644	40
1	2976	1785.866764388844	39
1	2977	1785.90144135407	38
1	2978	1786.322497942448	37
1	2982	1788.329750218137	37
1	2984	1788.641820515176	38
1	2986	1789.066724698867	39
1	2988	1793.109818101023	40
1	2990	1795.570264903983	41
1	2992	1796.11441378565	42
1	2994	1796.310947855032	43
1	2996	1802.274125933799	44
1	2998	1802.893547995155	45
1	3000	1803.633267728751	46
1	3002	1805.152334105268	47
1	3004	1805.707423989482	48
1	3006	1806.78839866636	49
1	3009	1808.823514941182	50
1	3010	1809.32464006067	50
1	3014	1810.854107822073	50
1	3016	1811.030217479056	51
1	3018	1811.488884292761	52
1	3020	1811.806492276213	53
1	3023	1815.605426993288	54
1	3024	1816.469287485112	54
1	3025	1816.617014562772	53
1	3026	1816.934202432236	52
1	3027	1817.301800114827	51
1	3029	1817.686571639588	51
1	3030	1819.895724689682	51
1	3031	1820.865001801184	50
1	3033	1821.092096407894	50
1	3034	1821.322017180678	50
1	3035	1822.864657369529	49
1	3036	1823.022570289225	48
1	3038	1823.108802961808	48
1	3039	1823.247780877221	48
1	3040	1823.718353865311	47
1	3041	1824.272863346833	46
1	3043	1824.485316609644	46
1	3044	1826.847293426558	46
1	3045	1827.578067933569	45
1	3046	1828.310667233449	44
1	3047	1828.471330103831	43
1	3048	1828.870274768709	42
1	3049	1829.190953706493	41
1	3051	1829.535480591177	41
1	3052	1830.209892917414	41
1	3053	1830.489952687355	40
1	3054	1831.980425873676	39
1	3055	1832.305809475965	38
1	3056	1833.173242761935	37
1	3057	1834.10195085425	36
1	3058	1834.375461374307	35
1	3059	1835.608982284638	34
1	3060	1836.685201398193	33
1	3061	1836.826998913305	32
1	3062	1837.246499618537	31
1	3063	1837.271615842631	30
1	3064	1837.992293804508	29
1	3065	1838.639183399005	28
1	3066	1838.778970050791	27
1	3067	1838.88420722721	26
1	3068	1839.837238319567	25
1	3069	1840.42528089795	24
1	3070	1840.786332985931	23
1	3071	1841.447119876524	22
1	3073	1841.503835607891	22
1	3074	1841.903277182102	22
1	3076	1842.593530697411	22
1	3078	1842.865111639469	23
1	3079	1843.074207605617	23
1	3081	1844.280208307569	23
1	3082	1844.288862085356	23
1	3083	1844.523459819242	22
1	3084	1846.240269167253	21
1	3085	1847.052028113288	20
1	3089	1848.042838330183	20
1	3091	1849.536092718621	21
1	3093	1849.928205190257	22
1	3095	1853.479393757129	22
1	3096	1853.486174854283	21
1	3098	1853.731010347168	21
1	3099	1854.794261944631	21
1	3100	1855.275366539279	20
1	3101	1855.337942438744	19
1	3102	1855.359420917565	18
1	3104	1856.799781176727	18
1	3108	1857.448619469568	19
1	3110	1860.224982952549	20
1	3112	1860.537872815206	21
1	3114	1860.598713699612	22
1	3116	1861.361652210791	23
1	3119	1863.421087304565	24
1	3120	1864.510712491683	24
1	3121	1864.773344702117	23
1	3122	1865.503183961055	22
1	3123	1865.998801929504	21
1	3127	1868.021257238425	21
1	3129	1868.929437710103	22
1	3131	1869.107279788467	23
1	3133	1870.805924520911	23
1	3134	1871.06651729714	22
1	3135	1871.193926614557	21
1	3136	1871.293379745805	20
1	3137	1871.337308960527	19
1	3138	1872.241631831803	18
1	3139	1872.983617057997	17
1	3140	1873.179364961771	16
1	3141	1873.204085337089	15
1	3142	1874.061246705455	14
1	3144	1875.687008211392	14
1	3146	1877.422879839775	15
1	3148	1877.46386205912	16
1	3149	1878.394392544818	16
1	3153	1878.859885508196	16
1	3155	1885.825748748963	16
1	3156	1886.065883463469	15
1	3157	1886.294309977877	14
1	3159	1886.42228417159	14
1	3160	1886.640171595569	14
1	3164	1887.754237563126	14
1	3166	1890.947722079901	15
1	3168	1893.37735959471	16
1	3170	1894.148792932539	17
1	3172	1900.067494009816	18
1	3175	1902.363338098196	19
1	3176	1902.838751576946	19
1	3180	1906.228855026784	18
1	3182	1907.218114836622	18
1	3183	1907.620730976385	18
1	3184	1908.258028459247	17
1	3186	1908.511882332367	17
1	3187	1908.923162956391	17
1	3188	1909.412026930215	16
1	3189	1910.502286149944	15
1	3190	1910.781966579829	14
1	3191	1910.974309349936	13
1	3192	1911.143708109209	12
1	3194	1911.499611039066	12
1	3196	1912.436079757491	13
1	3197	1912.548018142312	13
1	3198	1915.231572571229	12
1	3200	1916.450448411689	12
1	3201	1917.21824615735	12
1	3203	1917.842280007895	12
1	3204	1917.989599776925	12
1	3205	1918.015069546175	11
1	3206	1918.936630197431	10
1	3208	1919.021844357296	10
1	3209	1919.032830473509	10
1	3210	1919.072419081072	9
1	3212	1919.504422955181	9
1	3213	1919.88383733154	9
1	3214	1920.604700123294	8
1	3216	1921.149181560847	8
1	3218	1921.397897739772	9
1	3220	1922.735440401868	10
1	3221	1924.812366217546	10
1	3223	1925.771896078812	10
1	3224	1926.655372750201	10
1	3226	1927.345011094856	10
1	3227	1928.054423671883	10
1	3229	1928.152367561315	10
1	3230	1929.170764170413	10
1	3231	1929.374711324771	9
1	3233	1929.407077985407	9
1	3234	1930.101844369372	9
1	3236	1931.141692592025	9
1	3237	1931.37727734011	9
1	3238	1932.028870350625	8
1	3239	1932.034544271637	7
1	3240	1932.5108770056	6
1	3242	1933.391753097423	6
1	3243	1934.016935030094	6
1	3244	1935.165868856794	5
1	3245	1936.478456133814	4
1	3246	1936.490363712877	3
1	3247	1936.928622004247	2
1	3248	1936.96289558543	1
1	3249	1937.068661453528	0
1	3251	1941.060169610123	0
1	3253	1941.117329374633	1
1	3255	1942.736365769573	2
1	3256	1942.853732496131	2
1	3257	1943.350064562261	1
1	3258	1943.95104571808	0
1	3260	1945.123021636056	0
1	3261	1945.363281145464	0
1	3263	1947.71634619646	0
1	3264	1947.770590104623	0
1	3266	1954.451636381393	0
1	3267	1954.881652528608	0
1	3271	1958.287872053103	0
1	3273	1960.050333703695	1
1	3276	1962.447162660641	2
1	3277	1963.211527538969	2
1	3278	1963.641886588745	1
1	3280	1964.313523350548	1
1	3281	1964.56137916645	1
1	3283	1964.946126785477	1
1	3284	1965.366992784432	1
1	3286	1968.031124429229	1
1	3287	1969.204969803203	1
1	3291	1971.923926128061	1
1	3293	1972.259068870146	2
1	3295	1973.220966164664	3
1	3297	1975.844675735073	3
1	3298	1976.737322206525	2
1	3299	1976.870744926629	1
1	3301	1977.149804342684	1
1	3303	1978.375606849292	2
1	3304	1978.944826547843	2
1	3305	1979.505130458219	1
1	3307	1979.574616481982	1
1	3309	1979.856295727023	2
1	3310	1979.990917963377	2
1	3311	1980.527968760486	1
1	3313	1982.978029042219	1
1	3315	1983.40175110468	2
1	3317	1983.923132371502	3
1	3318	1984.502343498074	3
1	3319	1984.702769833511	2
1	3320	1985.178560400652	1
1	3321	1985.190261400542	0
1	3323	1986.641458529353	0
1	3325	1987.301230062673	1
1	3326	1988.221066316736	1
1	3328	1988.702299421112	1
1	3330	1989.145662017748	2
1	3331	1990.450948550793	2
1	3332	1990.533897788094	1
1	3334	1991.048765116971	1
1	3336	1992.56397693629	2
1	3337	1992.613561260629	2
1	3339	1994.136056351033	2
1	3340	1994.935652258728	2
1	3341	1996.149568195873	1
1	3343	1996.156209798308	1
1	3344	1996.91683535004	1
1	3345	1998.163763630553	0
1	3350	2004.449965499406	0
1	3352	2004.528182465205	1
1	3354	2004.889277399122	2
1	3355	2005.11191036347	2
1	3357	2005.545552324114	2
1	3359	2006.508332783573	3
1	3361	2006.667953331831	4
1	3362	2006.874525985681	4
1	3363	2008.212645615372	3
1	3365	2008.475494283838	3
1	3367	2009.064264560885	4
1	3369	2009.336952348568	5
1	3370	2010.320876282899	5
1	3371	2011.252822512135	4
1	3372	2012.119445710677	3
[...]
5	2283	1380.964876480297	2
5	2292	1386.732170890961	2
5	2300	1389.108069391996	1
5	2423	1465.193283170876	1
5	2523	1518.048533812449	1
5	2532	1522.115300919114	1
5	2575	1541.428895554315	1
5	2591	1550.738110740724	1
5	2602	1557.057458542175	1
5	2620	1568.331551592928	1
5	2650	1594.882472076587	2
5	2689	1619.894738349259	1
5	2695	1624.084042264992	2
5	2701	1626.210616034251	3
5	2710	1632.846757884736	3
5	2769	1664.490478429722	1
5	2778	1671.38165525371	1
5	2784	1675.267107061551	1
5	2797	1689.847971375368	1
5	2822	1702.746913519538	1
5	2843	1712.497602514756	1
5	2845	1714.363548584924	2
5	2850	1719.6409964056	2
5	2854	1722.58306476235	3
5	2922	1755.40584379679	1
5	2935	1762.461127702236	1
5	2980	1787.059466435055	1
5	3012	1809.486314153089	1
5	3087	1847.391152781413	1
5	3106	1857.225048866429	1
5	3125	1866.271830798015	1
5	3151	1878.578067492393	1
5	3162	1886.757159903634	1
5	3178	1903.265596083928	1
5	3269	1956.425399870298	1
5	3289	1969.834502793289	1
5	3347	1999.57917616298	1
5	3401	2031.530575653383	1
5	3435	2049.403337861292	1
5	3460	2069.148904070772	1
5	3527	2112.867149498668	1
5	3571	2134.440791909142	1
5	3611	2157.212802221385	1
5	3627	2171.380613717592	2
5	3629	2171.740503012916	3
5	3638	2187.341514577323	3
5	3695	2219.535531233618	1
5	3705	2223.8424989331	2
5	3745	2245.658919910221	1
5	3889	2315.1814443388	1
5	3895	2322.283976249027	2
5	3912	2331.248097080117	2
5	3927	2346.228359067299	2
5	3968	2370.716186367381	1
5	3974	2375.068077861533	2
5	3980	2375.806323096909	3
5	3990	2379.965256529779	4
5	3996	2385.250852286311	5
5	4021	2413.808996696861	3
5	4046	2423.704403934987	3
5	4069	2439.323409864084	1
6	575	390.19208526962	0
6	579	390.552455599804	1
6	580	390.655141799278	1
6	581	393.661352364086	0
6	608	407.439532221909	0
6	615	410.442778319088	0
6	788	518.507968548388	0
6	790	522.173620324886	1
6	793	525.930471339742	1
6	804	537.256423771993	0
6	818	548.748816733117	0
6	822	550.067618500052	1
6	831	554.479139238226	1
6	836	558.279795088441	0
6	862	575.666162275779	0
6	873	585.573793226432	0
6	935	612.842100177508	0
6	947	623.411592726827	1
6	952	626.42020587498	1
6	955	629.44446814148	0
6	984	647.071192511576	0
6	989	648.677841417669	0
6	999	651.628792350656	0
6	1008	655.84213481308	0
6	1021	665.26574855193	0
6	1042	675.413442380476	0
6	1144	730.723164477223	0
6	1145	730.749594956862	0
6	1163	746.720203383419	0
6	1164	746.830303923498	0
6	1166	751.804402087226	0
6	1174	761.533052013322	1
6	1177	762.182614644149	1
6	1179	762.512293667094	1
6	1183	766.941994342124	2
6	1186	768.238189187687	2
6	1195	772.550509600502	1
6	1208	782.225336173391	0
6	1274	809.99896328964	0
6	1297	824.521942834875	0
6	1327	836.11272726403	0
6	1334	844.232312406263	0
6	1394	880.101037723776	0
6	1411	891.219300784814	0
6	1417	893.1674807599	0
6	1418	896.846461774226	0
6	1548	958.986682587974	0
6	1554	961.113788177775	1
6	1561	964.713309390119	1
6	1575	980.006287846102	1
6	1579	986.58770618071	2
6	1580	987.159298242339	2
6	1581	998.211649306465	1
6	1582	998.318358786027	0
6	1725	1071.697528192129	0
6	1726	1072.772546772091	0
6	1772	1107.464074333445	0
6	1779	1111.238470723109	0
6	1804	1117.78384952829	0
6	1816	1121.017381211308	1
6	1820	1124.43115273652	2
6	1821	1125.895438970328	2
6	1827	1130.82600363503	2
6	1834	1141.210836328482	2
6	1835	1141.329280509048	1
6	1836	1143.318613398631	0
6	1846	1148.533918641737	0
6	1851	1161.190141850179	0
6	1862	1164.363948844049	0
6	1863	1165.655962457304	0
6	1883	1174.071106898272	0
6	1885	1175.776090639092	1
6	1888	1179.600868290557	1
6	1891	1180.153070159661	0
6	1899	1182.736178667829	0
6	1909	1185.782939051587	1
6	1911	1186.137599269998	2
6	1916	1189.513041768776	2
6	1919	1190.600079485763	1
6	1946	1207.490534194196	0
6	1959	1214.244314790628	0
6	1973	1226.823743164412	1
6	1976	1231.196340198066	1
6	1983	1233.749026873435	0
6	2023	1250.476709292462	0
6	2024	1250.672879714784	0
6	2123	1298.650389291879	0
6	2124	1300.539472376964	0
6	2146	1308.125086076041	0
6	2147	1308.254090360263	0
6	2153	1310.28837300475	0
6	2160	1313.665861377632	0
6	2246	1359.796549003241	0
6	2259	1367.708327800127	0
6	2262	1370.990339914893	0
6	2267	1372.742632237328	0
6	2281	1378.159707347523	0
6	2283	1380.964876480297	1
6	2284	1384.026729924573	1
6	2292	1386.732170890961	1
6	2295	1387.925016905754	1
6	2298	1388.894811422157	0
6	2300	1389.108069391996	0
6	2303	1390.842347408579	0
6	2423	1465.193283170876	0
6	2426	1466.88515629975	0
6	2523	1518.048533812449	0
6	2526	1519.393569505264	0
6	2532	1522.115300919114	0
6	2549	1530.04672733318	0
6	2575	1541.428895554315	0
6	2582	1547.442022508609	0
6	2591	1550.738110740724	0
6	2592	1551.264490072031	0
6	2602	1557.057458542175	0
6	2605	1559.187420151523	0
6	2620	1568.331551592928	0
6	2650	1594.882472076587	1
6	2651	1597.549387971297	1
6	2656	1600.619811008342	0
6	2689	1619.894738349259	0
6	2695	1624.084042264992	1
6	2701	1626.210616034251	2
6	2702	1628.914900387953	2
6	2710	1632.846757884736	2
6	2711	1633.526556289806	2
6	2720	1644.926685491923	1
6	2723	1645.510670325042	0
6	2769	1664.490478429722	0
6	2770	1667.093762577532	0
6	2778	1671.38165525371	0
6	2781	1673.9496564095	0
6	2784	1675.267107061551	0
6	2789	1685.061488107044	0
6	2797	1689.847971375368	0
6	2800	1691.366129245423	0
6	2822	1702.746913519538	0
6	2835	1710.135216786985	0
6	2843	1712.497602514756	0
6	2845	1714.363548584924	1
6	2846	1717.061804028459	1
6	2850	1719.6409964056	1
6	2854	1722.58306476235	2
6	2857	1724.888511205328	2
6	2878	1736.936643689847	1
6	2881	1738.357826509851	0
6	2922	1755.40584379679	0
6	2927	1756.40468727708	0
6	2935	1762.461127702236	0
6	2974	1785.138808994654	0
6	2980	1787.059466435055	0
6	3007	1808.567334898971	0
6	3012	1809.486314153089	0
6	3021	1815.395308732953	0
6	3087	1847.391152781413	0
6	3094	1853.203138257231	0
6	3106	1857.225048866429	0
6	3117	1862.86089054653	0
6	3125	1866.271830798015	0
6	3132	1870.355323358361	0
6	3151	1878.578067492393	0
6	3154	1885.710264840645	0
6	3162	1886.757159903634	0
6	3173	1900.978728281571	0
6	3178	1903.265596083928	0
6	3179	1903.441254408654	0
6	3269	1956.425399870298	0
6	3274	1961.982000083119	0
6	3289	1969.834502793289	0
6	3296	1975.356687602784	0
6	3347	1999.57917616298	0
6	3348	2004.219504140091	0
6	3401	2031.530575653383	0
6	3412	2036.660479569864	0
6	3435	2049.403337861292	0
6	3436	2052.000976789656	0
6	3460	2069.148904070772	0
6	3465	2072.256564331564	0
6	3527	2112.867149498668	0
6	3530	2116.726990545543	0
6	3571	2134.440791909142	0
6	3600	2152.857281959254	0
6	3611	2157.212802221385	0
6	3627	2171.380613717592	1
6	3629	2171.740503012916	2
6	3630	2174.387393734638	2
6	3638	2187.341514577323	2
6	3639	2188.429738256359	2
6	3640	2188.711163870471	1
6	3641	2190.225511130255	0
6	3695	2219.535531233618	0
6	3705	2223.8424989331	1
6	3712	2231.712627492054	1
6	3713	2231.759903379622	0
6	3745	2245.658919910221	0
6	3760	2255.048206347078	0
6	3889	2315.1814443388	0
6	3895	2322.283976249027	1
6	3902	2326.042549266443	1
6	3912	2331.248097080117	1
6	3921	2341.330673848243	1
6	3927	2346.228359067299	1
6	3934	2351.170869371389	1
6	3935	2351.183785161464	0
6	3968	2370.716186367381	0
6	3974	2375.068077861533	1
6	3980	2375.806323096909	2
6	3990	2379.965256529779	3
6	3996	2385.250852286311	4
6	4001	2394.776725882371	4
6	4014	2407.270714130622	3
6	4019	2412.705584314831	2
6	4021	2413.808996696861	2
6	4036	2421.384673500943	2
6	4046	2423.704403934987	2
6	4049	2427.096140324554	2
6	4052	2431.105772520214	1
6	4063	2438.538683992036	0
6	4069	2439.323409864084	0
6	4074	2446.000063229011	0
7	575	390.19208526962	0
7	580	390.655141799278	0.102686199474
7	608	407.439532221909	0
7	788	518.507968548388	0
7	793	525.930471339742	3.756851014856
7	818	548.748816733117	0
7	831	554.479139238226	4.411520738174
7	862	575.666162275779	0
7	935	612.842100177508	0
7	952	626.42020587498	3.008613148153
7	984	647.071192511576	0
7	999	651.628792350656	0
7	1021	665.26574855193	0
7	1144	730.723164477223	0
7	1163	746.720203383419	0
7	1166	751.804402087226	0
7	1177	762.182614644149	0.649562630827
7	1186	768.238189187687	5.725895520593
7	1195	772.550509600502	5.608515258378
7	1274	809.99896328964	0
7	1327	836.11272726403	0
7	1394	880.101037723776	0
7	1417	893.1674807599	0
7	1548	958.986682587974	0
7	1561	964.713309390119	3.599521212344
7	1580	987.159298242339	7.153010396237
7	1581	998.211649306465	11.623943125755
7	1725	1071.697528192129	0
7	1772	1107.464074333445	0
7	1804	1117.78384952829	0
7	1821	1125.895438970328	4.87805775902
7	1834	1141.210836328482	16.779683591962
7	1835	1141.329280509048	10.503276874018
7	1846	1148.533918641737	0
7	1862	1164.363948844049	0
7	1883	1174.071106898272	0
7	1888	1179.600868290557	3.824777651465
7	1899	1182.736178667829	0
7	1916	1189.513041768776	3.730102717189
7	1919	1190.600079485763	4.462480215765
7	1959	1214.244314790628	0
7	1976	1231.196340198066	4.372597033654
7	2023	1250.476709292462	0
7	2123	1298.650389291879	0
7	2146	1308.125086076041	0
7	2153	1310.28837300475	0
7	2246	1359.796549003241	0
7	2262	1370.990339914893	0
7	2281	1378.159707347523	0
7	2284	1384.026729924573	3.061853444276
7	2295	1387.925016905754	1.192846014793
7	2300	1389.108069391996	0
7	2423	1465.193283170876	0
7	2523	1518.048533812449	0
7	2532	1522.115300919114	0
7	2575	1541.428895554315	0
7	2591	1550.738110740724	0
7	2602	1557.057458542175	0
7	2620	1568.331551592928	0
7	2651	1597.549387971297	2.66691589471
7	2689	1619.894738349259	0
7	2702	1628.914900387953	4.830858122961
7	2711	1633.526556289806	7.315940255555
7	2720	1644.926685491923	12.079927607187
7	2769	1664.490478429722	0
7	2778	1671.38165525371	0
7	2784	1675.267107061551	0
7	2797	1689.847971375368	0
7	2822	1702.746913519538	0
7	2843	1712.497602514756	0
7	2846	1717.061804028459	2.698255443535
7	2857	1724.888511205328	5.247514799728
7	2878	1736.936643689847	14.353578927497
7	2922	1755.40584379679	0
7	2935	1762.461127702236	0
7	2980	1787.059466435055	0
7	3012	1809.486314153089	0
7	3087	1847.391152781413	0
7	3106	1857.225048866429	0
7	3125	1866.271830798015	0
7	3151	1878.578067492393	0
7	3162	1886.757159903634	0
7	3178	1903.265596083928	0
7	3269	1956.425399870298	0
7	3289	1969.834502793289	0
7	3347	1999.57917616298	0
7	3401	2031.530575653383	0
7	3435	2049.403337861292	0
7	3460	2069.148904070772	0
7	3527	2112.867149498668	0
7	3571	2134.440791909142	0
7	3611	2157.212802221385	0
7	3630	2174.387393734638	3.006780017046
7	3639	2188.429738256359	16.689235243443
7	3640	2188.711163870471	1.369649293148
7	3695	2219.535531233618	0
7	3712	2231.712627492054	7.870128558954
7	3745	2245.658919910221	0
7	3889	2315.1814443388	0
7	3902	2326.042549266443	3.758573017416
7	3921	2341.330673848243	10.082576768126
7	3934	2351.170869371389	4.94251030409
7	3968	2370.716186367381	0
7	4001	2394.776725882371	19.708648020838
7	4014	2407.270714130622	31.464391033713
7	4019	2412.705584314831	32.740327785052
7	4036	2421.384673500943	36.133821214632
7	4049	2427.096140324554	13.287143627693
7	4052	2431.105772520214	7.401368585227
7	4069	2439.323409864084	0
8	580	390.655141799278	22
8	581	393.661352364086	23
8	615	410.442778319088	24
8	793	525.930471339742	25
8	804	537.256423771993	26
8	831	554.479139238226	27
8	836	558.279795088441	28
8	873	585.573793226432	29
8	952	626.42020587498	30
8	955	629.44446814148	31
8	989	648.677841417669	32
8	1008	655.84213481308	33
8	1042	675.413442380476	34
8	1145	730.749594956862	35
8	1164	746.830303923498	36
8	1177	762.182614644149	37
8	1186	768.238189187687	38
8	1195	772.550509600502	39
8	1208	782.225336173391	40
8	1297	824.521942834875	41
8	1334	844.232312406263	42
8	1411	891.219300784814	43
8	1418	896.846461774226	44
8	1561	964.713309390119	45
8	1580	987.159298242339	46
8	1581	998.211649306465	47
8	1582	998.318358786027	48
8	1726	1072.772546772091	49
8	1779	1111.238470723109	50
8	1821	1125.895438970328	51
8	1834	1141.210836328482	52
8	1835	1141.329280509048	53
8	1836	1143.318613398631	54
8	1851	1161.190141850179	55
8	1863	1165.655962457304	56
8	1888	1179.600868290557	57
8	1891	1180.153070159661	58
8	1916	1189.513041768776	59
8	1919	1190.600079485763	60
8	1946	1207.490534194196	61
8	1976	1231.196340198066	62
8	1983	1233.749026873435	63
8	2024	1250.672879714784	64
8	2124	1300.539472376964	65
8	2147	1308.254090360263	66
8	2160	1313.665861377632	67
8	2259	1367.708327800127	68
8	2267	1372.742632237328	69
8	2284	1384.026729924573	70
8	2295	1387.925016905754	71
8	2298	1388.894811422157	72
8	2303	1390.842347408579	73
8	2426	1466.88515629975	74
8	2526	1519.393569505264	75
8	2549	1530.04672733318	76
8	2582	1547.442022508609	77
8	2592	1551.264490072031	78
8	2605	1559.187420151523	79
8	2651	1597.549387971297	80
8	2656	1600.619811008342	81
8	2702	1628.914900387953	82
8	2711	1633.526556289806	83
8	2720	1644.926685491923	84
8	2723	1645.510670325042	85
8	2770	1667.093762577532	86
8	2781	1673.9496564095	87
8	2789	1685.061488107044	88
8	2800	1691.366129245423	89
8	2835	1710.135216786985	90
8	2846	1717.061804028459	91
8	2857	1724.888511205328	92
8	2878	1736.936643689847	93
8	2881	1738.357826509851	94
8	2927	1756.40468727708	95
8	2974	1785.138808994654	96
8	3007	1808.567334898971	97
8	3021	1815.395308732953	98
8	3094	1853.203138257231	99
8	3117	1862.86089054653	100
8	3132	1870.355323358361	101
8	3154	1885.710264840645	102
8	3173	1900.978728281571	103
8	3179	1903.441254408654	104
8	3274	1961.982000083119	105
8	3296	1975.356687602784	106
8	3348	2004.219504140091	107
8	3412	2036.660479569864	108
8	3436	2052.000976789656	109
8	3465	2072.256564331564	110
8	3530	2116.726990545543	111
8	3600	2152.857281959254	112
8	3630	2174.387393734638	113
8	3639	2188.429738256359	114
8	3640	2188.711163870471	115
8	3641	2190.225511130255	116
8	3712	2231.712627492054	117
8	3713	2231.759903379622	118
8	3760	2255.048206347078	119
8	3902	2326.042549266443	120
8	3921	2341.330673848243	121
8	3934	2351.170869371389	122
8	3935	2351.183785161464	123
8	4001	2394.776725882371	124
8	4014	2407.270714130622	125
8	4019	2412.705584314831	126
8	4036	2421.384673500943	127
8	4049	2427.096140324554	128
8	4052	2431.105772520214	129
8	4063	2438.538683992036	130
8	4074	2446.000063229011	131
9	580	390.655141799278	0.463056529658
9	581	393.661352364086	3.108896764282
9	615	410.442778319088	3.003246097179
9	793	525.930471339742	7.422502791354
9	804	537.256423771993	15.082803447107
9	831	554.479139238226	5.730322505109
9	836	558.279795088441	8.212176588389
9	873	585.573793226432	9.907630950653
9	952	626.42020587498	13.578105697472
9	955	629.44446814148	6.032875414653
9	989	648.677841417669	1.606648906093
9	1008	655.84213481308	4.213342462424
9	1042	675.413442380476	10.147693828546
9	1145	730.749594956862	0.026430479639
9	1164	746.830303923498	0.110100540079
9	1177	762.182614644149	10.378212556923
9	1186	768.238189187687	6.705137174365
9	1195	772.550509600502	10.038215933408
9	1208	782.225336173391	15.283341831267
9	1297	824.521942834875	14.522979545235
9	1334	844.232312406263	8.119585142233
9	1411	891.219300784814	11.118263061038
9	1418	896.846461774226	3.678981014326
9	1561	964.713309390119	5.726626802145
9	1580	987.159298242339	26.045510064564
9	1581	998.211649306465	18.205361460363
9	1582	998.318358786027	11.730652605317
9	1726	1072.772546772091	1.075018579962
9	1779	1111.238470723109	3.774396389664
9	1821	1125.895438970328	8.111589442038
9	1834	1141.210836328482	20.193455117174
9	1835	1141.329280509048	16.898127772528
9	1836	1143.318613398631	12.492609763601
9	1851	1161.190141850179	12.656223208442
9	1863	1165.655962457304	1.292013613255
9	1888	1179.600868290557	5.529761392285
9	1891	1180.153070159661	4.376979520569
9	1916	1189.513041768776	6.776863100947
9	1919	1190.600079485763	4.817140434176
9	1946	1207.490534194196	21.352934924198
9	1976	1231.196340198066	16.952025407438
9	1983	1233.749026873435	6.925283709023
9	2024	1250.672879714784	0.196170422322
9	2124	1300.539472376964	1.889083085085
9	2147	1308.254090360263	0.129004284222
9	2160	1313.665861377632	3.377488372882
9	2259	1367.708327800127	7.911778796886
9	2267	1372.742632237328	1.752292322435
9	2284	1384.026729924573	5.86702257705
9	2295	1387.925016905754	6.960140425457
9	2298	1388.894811422157	2.162640531196
9	2303	1390.842347408579	1.734278016583
9	2426	1466.88515629975	1.691873128874
9	2526	1519.393569505264	1.345035692815
9	2549	1530.04672733318	7.931426414066
9	2582	1547.442022508609	6.013126954294
9	2592	1551.264490072031	0.526379331307
9	2605	1559.187420151523	2.129961609348
9	2651	1597.549387971297	29.217836378369
9	2656	1600.619811008342	5.737338931755
9	2702	1628.914900387953	9.020162038694
9	2711	1633.526556289806	9.442514024814
9	2720	1644.926685491923	18.716069457672
9	2723	1645.510670325042	12.663912440306
9	2770	1667.093762577532	2.60328414781
9	2781	1673.9496564095	2.56800115579
9	2789	1685.061488107044	9.794381045493
9	2800	1691.366129245423	1.518157870055
9	2835	1710.135216786985	7.388303267447
9	2846	1717.061804028459	4.564201513703
9	2857	1724.888511205328	10.524962620404
9	2878	1736.936643689847	17.295647284247
9	2881	1738.357826509851	15.774761747501
9	2927	1756.40468727708	0.99884348029
9	2974	1785.138808994654	22.677681292418
9	3007	1808.567334898971	21.507868463916
9	3021	1815.395308732953	5.908994579864
9	3094	1853.203138257231	5.811985475818
9	3117	1862.86089054653	5.635841680101
9	3132	1870.355323358361	4.083492560346
9	3154	1885.710264840645	7.132197348252
9	3173	1900.978728281571	14.221568377937
9	3179	1903.441254408654	0.175658324726
9	3274	1961.982000083119	5.556600212821
9	3296	1975.356687602784	5.522184809495
9	3348	2004.219504140091	4.640327977111
9	3412	2036.660479569864	5.129903916481
9	3436	2052.000976789656	2.597638928364
9	3465	2072.256564331564	3.107660260792
9	3530	2116.726990545543	3.859841046875
9	3600	2152.857281959254	18.416490050112
9	3630	2174.387393734638	17.174591513253
9	3639	2188.429738256359	17.049124538767
9	3640	2188.711163870471	16.970660857555
9	3641	2190.225511130255	2.883996552932
9	3712	2231.712627492054	12.177096258436
9	3713	2231.759903379622	7.917404446522
9	3760	2255.048206347078	9.389286436857
9	3902	2326.042549266443	10.861104927643
9	3921	2341.330673848243	19.046697599216
9	3934	2351.170869371389	19.922772291272
9	3935	2351.183785161464	4.955426094165
9	4001	2394.776725882371	24.06053951499
9	4014	2407.270714130622	32.202636269089
9	4019	2412.705584314831	36.899261217922
9	4036	2421.384673500943	41.419416971164
9	4049	2427.096140324554	41.845288038243
9	4052	2431.105772520214	17.296775823353
9	4063	2438.538683992036	14.834280057049
9	4074	2446.000063229011	6.676653364927
10	862	575.666162275779	8
10	984	647.071192511576	9
10	999	651.628792350656	10
10	1021	665.26574855193	11
10	1144	730.723164477223	12
10	1274	809.99896328964	13
10	1327	836.11272726403	14
10	1394	880.101037723776	15
10	1417	893.1674807599	16
10	1548	958.986682587974	17
10	1725	1071.697528192129	18
10	1804	1117.78384952829	19
10	1846	1148.533918641737	20
10	1862	1164.363948844049	21
10	1883	1174.071106898272	22
10	1899	1182.736178667829	23
10	1959	1214.244314790628	24
10	2023	1250.476709292462	25
10	2146	1308.125086076041	26
10	2153	1310.28837300475	27
10	2262	1370.990339914893	28
10	2281	1378.159707347523	29
10	2300	1389.108069391996	30
10	2523	1518.048533812449	31
10	2532	1522.115300919114	32
10	2575	1541.428895554315	33
10	2591	1550.738110740724	34
10	2602	1557.057458542175	35
10	2620	1568.331551592928	36
10	2689	1619.894738349259	37
10	2769	1664.490478429722	38
10	2778	1671.38165525371	39
10	2784	1675.267107061551	40
10	2797	1689.847971375368	41
10	2822	1702.746913519538	42
10	2843	1712.497602514756	43
10	2922	1755.40584379679	44
10	2935	1762.461127702236	45
10	2980	1787.059466435055	46
10	3012	1809.486314153089	47
10	3087	1847.391152781413	48
10	3106	1857.225048866429	49
10	3125	1866.271830798015	50
10	3151	1878.578067492393	51
10	3162	1886.757159903634	52
10	3178	1903.265596083928	53
10	3289	1969.834502793289	54
10	3435	2049.403337861292	55
10	3460	2069.148904070772	56
10	3571	2134.440791909142	57
10	3611	2157.212802221385	58
10	3695	2219.535531233618	59
10	3745	2245.658919910221	60
10	3889	2315.1814443388	61
10	3968	2370.716186367381	62
10	4069	2439.323409864084	63
11	4203	2500	0.5036
12	4203	2500	0.0524

