version 2
run factors_calibration_bosses-70-20230303-16:36:34-7995
attr configname factors_calibration_bosses
attr datetime 20230303-16:36:34
attr experiment factors_calibration_bosses
attr inifile omnetpp.ini
attr iterationvars $0=5
attr iterationvarsf 5-
attr measurement $0=5
attr network Network
attr processid 7995
attr repetition 10
attr replication #10
attr resultdir results
attr runnumber 70
attr seedset 10
param *.minion.arrival_mean 2
param *.minion.service_mean 1
param *.boss.arrival_mean 20
param *.boss.service_mean 5
param *.player.recover_rate_x 100
param **.minion.arrival_distribution 0
param **.minion.service_distribution 0
param **.boss.arrival_distribution 0
param **.boss.service_distribution 0

vector 0 Network.player boss_defeated_stat:vector ETV
attr source signal_boss_defeated
vector 1 Network.player boss_jobs_queue_number_stat:vector ETV
attr source signal_boss_jobs_queue_number
vector 2 Network.player boss_response_time_stat:vector ETV
attr source signal_boss_response_time
vector 3 Network.player boss_waiting_time_stat:vector ETV
attr source signal_boss_waiting_time
vector 4 Network.player minion_waiting_time_stat:vector ETV
attr source signal_minion_waiting_time
vector 5 Network.player minion_defeated_stat:vector ETV
attr source signal_minion_defeated
vector 6 Network.player minion_jobs_queue_number_stat:vector ETV
attr source signal_minion_jobs_queue_number
vector 7 Network.player minion_response_time_stat:vector ETV
attr source signal_minion_response_time
vector 8 Network.player minion_jobs_number_stat:vector ETV
attr source signal_minion_jobs_number
vector 9 Network.player boss_jobs_number_stat:vector ETV
attr source signal_boss_jobs_number
vector 10 Network.player minion_recovered_stat:vector ETV
attr source signal_minion_recovered
vector 11 Network.player minion_throughput:vector ETV
attr source signal_minion_throughput
vector 12 Network.player boss_throughput:vector ETV
attr source signal_boss_throughput
0	609	352.130554891321	21
0	610	352.927689561948	22
0	737	427.922919793437	23
0	759	445.483634846768	24
0	832	482.623445529356	25
0	918	540.103626412954	26
0	928	542.013573484638	27
0	937	557.490400795264	28
0	942	567.564240005452	29
0	1091	646.909364677438	30
0	1092	648.158271931021	31
0	1125	671.369134696912	32
0	1136	675.974953750651	33
0	1177	696.644158598497	34
0	1204	709.074450502644	35
0	1205	709.99936697877	36
0	1230	719.026131063424	37
0	1233	721.782126274418	38
0	1247	735.243146366857	39
0	1261	746.149996156744	40
0	1292	769.235542157537	41
0	1307	774.842505725638	42
0	1340	792.625640676717	43
0	1343	795.211284919797	44
0	1344	797.645015244678	45
0	1486	864.02193246501	46
0	1503	879.470842626838	47
0	1510	883.519975797881	48
0	1513	886.470748365759	49
0	1514	889.271801544583	50
0	1562	918.474901203841	51
0	1599	932.95499797957	52
0	1610	937.087903064749	53
0	1637	947.606060377701	54
0	1676	972.108184800654	55
0	1806	1043.600519331667	56
0	1846	1062.221824855093	57
0	1882	1081.038108023486	58
0	1889	1082.559230913177	59
0	1970	1115.313296374902	60
0	2013	1132.025868897564	61
0	2060	1157.541163817664	62
0	2071	1162.464871918121	63
0	2099	1173.464526148622	64
0	2102	1176.691994143815	65
0	2103	1185.400207500366	66
0	2214	1236.666448394572	67
0	2301	1289.511834275859	68
0	2424	1375.167026068546	69
0	2429	1377.69368177718	70
0	2493	1417.619102109601	71
0	2516	1427.988499731937	72
0	2537	1440.036739162998	73
0	2556	1456.578615065705	74
0	2563	1460.303509453435	75
0	2570	1468.230073820141	76
0	2571	1468.779253897226	77
0	2572	1469.409634268323	78
0	2582	1471.453467039569	79
0	2650	1507.316685374657	80
0	2671	1522.609004646605	81
0	2672	1523.441984212979	82
0	2683	1531.210066004728	83
0	2754	1567.576103112115	84
0	2765	1577.589139781897	85
0	2770	1582.284351675076	86
0	2858	1622.46648597697	87
0	2871	1628.346919896378	88
0	2883	1637.754840745315	89
0	2888	1650.508499260933	90
0	2908	1660.160481604531	91
0	2965	1700.170177386142	92
0	2974	1711.523055494311	93
0	2977	1712.247154016955	94
0	3008	1721.093426455114	95
0	3021	1732.758106249994	96
0	3047	1743.012305475494	97
0	3094	1769.6307411483	98
0	3135	1794.866584043362	99
0	3138	1798.667656412332	100
0	3193	1838.428117013513	101
0	3247	1870.554069809943	102
0	3292	1901.502933920921	103
0	3306	1915.148518538969	104
0	3379	1970.720577979858	105
0	3401	1984.144565598209	106
0	3470	2024.355491593225	107
0	3561	2076.29129546134	108
0	3585	2098.671634418581	109
0	3614	2122.330683742636	110
0	3706	2171.702190838223	111
0	3729	2177.321565411803	112
0	3743	2184.459929526471	113
0	3755	2198.68276874378	114
0	3765	2206.276254096687	115
0	3787	2222.368884794303	116
0	3792	2227.071288079485	117
0	3864	2280.791082649515	118
0	3883	2292.542934325833	119
0	3956	2334.577343896308	120
0	3959	2336.882941233333	121
0	4016	2371.58812348353	122
0	4017	2372.698603190795	123
0	4062	2396.475871631733	124
0	4116	2428.323044603587	125
0	4129	2441.693118966685	126
0	4147	2448.594707483831	127
1	609	352.130554891321	1
1	610	352.927689561948	0
1	724	419.824288542282	0
1	737	427.922919793437	0
1	758	445.426883461239	0
1	759	445.483634846768	0
1	829	481.155473799364	0
1	832	482.623445529356	0
1	917	536.946986058516	0
1	918	540.103626412954	0
1	925	541.720738592907	0
1	927	541.736319955185	1
1	928	542.013573484638	1
1	930	545.749899725905	1
1	937	557.490400795264	1
1	942	567.564240005452	0
1	1088	642.852204457678	0
1	1090	646.904432915695	1
1	1091	646.909364677438	1
1	1092	648.158271931021	0
1	1114	666.123998518003	0
1	1125	671.369134696912	0
1	1131	673.379073049835	0
1	1136	675.974953750651	0
1	1172	692.296201596188	0
1	1177	696.644158598497	0
1	1199	707.174758416955	0
1	1201	707.316586279335	1
1	1204	709.074450502644	1
1	1205	709.99936697877	0
1	1229	718.627327699064	0
1	1230	719.026131063424	0
1	1232	719.093978241006	0
1	1233	721.782126274418	0
1	1240	725.978438086876	0
1	1247	735.243146366857	0
1	1256	740.857761909457	0
1	1261	746.149996156744	0
1	1283	759.785179545867	0
1	1292	769.235542157537	0
1	1294	769.99705848	0
1	1302	773.001749095169	1
1	1306	773.957541426202	2
1	1307	774.842505725638	2
1	1323	780.867851638882	2
1	1340	792.625640676717	2
1	1343	795.211284919797	1
1	1344	797.645015244678	0
1	1467	853.673845421965	0
1	1483	862.799389841877	1
1	1486	864.02193246501	1
1	1492	868.098797839271	1
1	1503	879.470842626838	1
1	1505	880.277491819915	1
1	1507	882.177038103687	2
1	1510	883.519975797881	2
1	1513	886.470748365759	1
1	1514	889.271801544583	0
1	1557	912.935758198835	0
1	1562	918.474901203841	0
1	1596	932.202672012874	0
1	1599	932.95499797957	0
1	1609	936.657389288969	0
1	1610	937.087903064749	0
1	1636	946.297682443241	0
1	1637	947.606060377701	0
1	1659	960.738265453186	0
1	1676	972.108184800654	0
1	1805	1042.502595974247	0
1	1806	1043.600519331667	0
1	1843	1060.452690583967	0
1	1846	1062.221824855093	0
1	1871	1073.028472791389	0
1	1873	1073.979749661901	1
1	1882	1081.038108023486	1
1	1889	1082.559230913177	0
1	1967	1113.293494763991	0
1	1970	1115.313296374902	0
1	2012	1132.000155132253	0
1	2013	1132.025868897564	0
1	2053	1154.808071207918	0
1	2060	1157.541163817664	0
1	2064	1158.547296278815	0
1	2071	1162.464871918121	0
1	2092	1170.522199205898	0
1	2094	1171.867477851254	1
1	2096	1172.13455232041	2
1	2099	1173.464526148622	2
1	2102	1176.691994143815	1
1	2103	1185.400207500366	0
1	2213	1231.608305717097	0
1	2214	1236.666448394572	0
1	2300	1288.624242739881	0
1	2301	1289.511834275859	0
1	2395	1356.036850805122	0
1	2423	1372.606487445524	1
1	2424	1375.167026068546	1
1	2429	1377.69368177718	0
1	2484	1405.653119015198	0
1	2490	1415.389328740932	1
1	2493	1417.619102109601	1
1	2501	1422.655085990457	1
1	2505	1422.976987813847	2
1	2507	1425.03253417898	3
1	2516	1427.988499731937	3
1	2520	1430.283059070374	3
1	2537	1440.036739162998	3
1	2555	1453.338074498799	3
1	2556	1456.578615065705	3
1	2562	1458.853815662555	3
1	2563	1460.303509453435	3
1	2570	1468.230073820141	2
1	2571	1468.779253897226	1
1	2572	1469.409634268323	0
1	2577	1470.455632448849	0
1	2582	1471.453467039569	0
1	2633	1493.449335598144	0
1	2635	1496.052380205525	1
1	2650	1507.316685374657	1
1	2658	1514.884379549808	1
1	2671	1522.609004646605	1
1	2672	1523.441984212979	0
1	2680	1528.555324124831	0
1	2683	1531.210066004728	0
1	2749	1564.373909976404	0
1	2751	1565.073784446035	1
1	2754	1567.576103112115	1
1	2756	1568.88161662372	1
1	2765	1577.589139781897	1
1	2770	1582.284351675076	0
1	2845	1616.890074396541	0
1	2858	1622.46648597697	0
1	2870	1626.810805176556	0
1	2871	1628.346919896378	0
1	2878	1632.799960695581	0
1	2882	1636.823592669957	1
1	2883	1637.754840745315	1
1	2888	1650.508499260933	0
1	2903	1658.548708404319	0
1	2908	1660.160481604531	0
1	2944	1686.708174305305	0
1	2954	1694.179105853179	1
1	2965	1700.170177386142	1
1	2971	1705.252233173425	1
1	2974	1711.523055494311	1
1	2977	1712.247154016955	0
1	3005	1719.93445107556	0
1	3008	1721.093426455114	0
1	3020	1724.59685573388	0
1	3021	1732.758106249994	0
1	3046	1740.42133159935	0
1	3047	1743.012305475494	0
1	3075	1757.194056480443	0
1	3083	1761.281828584842	1
1	3085	1761.918109262225	2
1	3094	1769.6307411483	2
1	3135	1794.866584043362	1
1	3138	1798.667656412332	0
1	3192	1831.77425238343	0
1	3193	1838.428117013513	0
1	3244	1868.713537013691	0
1	3247	1870.554069809943	0
1	3287	1898.558444776125	0
1	3292	1901.502933920921	0
1	3301	1910.506246022932	0
1	3306	1915.148518538969	0
1	3374	1966.608133512492	0
1	3379	1970.720577979858	0
1	3388	1976.663636876505	0
1	3401	1984.144565598209	0
1	3467	2021.706676798273	0
1	3470	2024.355491593225	0
1	3560	2073.959348802285	0
1	3561	2076.29129546134	0
1	3582	2092.180436930985	0
1	3585	2098.671634418581	0
1	3613	2118.166042985004	0
1	3614	2122.330683742636	0
1	3701	2169.154750841632	0
1	3706	2171.702190838223	0
1	3728	2177.061307273094	0
1	3729	2177.321565411803	0
1	3736	2178.914416394662	0
1	3743	2184.459929526471	0
1	3752	2195.814478513715	0
1	3755	2198.68276874378	0
1	3760	2200.177172437229	0
1	3765	2206.276254096687	0
1	3782	2214.891347264506	0
1	3786	2215.816986545285	1
1	3787	2222.368884794303	1
1	3792	2227.071288079485	0
1	3863	2280.78927417951	0
1	3864	2280.791082649515	0
1	3880	2288.659915777357	0
1	3883	2292.542934325833	0
1	3947	2325.886460952761	0
1	3956	2334.577343896308	0
1	3958	2335.729066720743	0
1	3959	2336.882941233333	0
1	4007	2363.241703758442	0
1	4013	2369.572912620892	1
1	4016	2371.58812348353	1
1	4017	2372.698603190795	0
1	4049	2385.090107213244	0
1	4062	2396.475871631733	0
1	4109	2420.381264551342	0
1	4116	2428.323044603587	0
1	4128	2438.055371942036	0
1	4129	2441.693118966685	0
1	4144	2446.879911890008	0
1	4147	2448.594707483831	0
2	609	352.130554891321	3.538716429871
2	610	352.927689561948	3.174547102125
2	737	427.922919793437	8.098631251155
2	759	445.483634846768	0.056751385529
2	832	482.623445529356	1.467971729992
2	918	540.103626412954	3.156640354438
2	928	542.013573484638	0.292834891731
2	937	557.490400795264	15.754080840079
2	942	567.564240005452	21.814340279547
2	1091	646.909364677438	4.05716021976
2	1092	648.158271931021	1.253839015326
2	1125	671.369134696912	5.245136178909
2	1136	675.974953750651	2.595880700816
2	1177	696.644158598497	4.347957002309
2	1204	709.074450502644	1.899692085689
2	1205	709.99936697877	2.682780699435
2	1230	719.026131063424	0.39880336436
2	1233	721.782126274418	2.688148033412
2	1247	735.243146366857	9.264708279981
2	1261	746.149996156744	5.292234247287
2	1292	769.235542157537	9.45036261167
2	1307	774.842505725638	4.845447245638
2	1340	792.625640676717	19.623891581548
2	1343	795.211284919797	21.253743493595
2	1344	797.645015244678	16.777163605796
2	1486	864.02193246501	10.348087043045
2	1503	879.470842626838	16.671452784961
2	1510	883.519975797881	15.42117795861
2	1513	886.470748365759	6.193256545844
2	1514	889.271801544583	7.094763440896
2	1562	918.474901203841	5.539143005006
2	1599	932.95499797957	0.752325966696
2	1610	937.087903064749	0.43051377578
2	1637	947.606060377701	1.30837793446
2	1676	972.108184800654	11.369919347468
2	1806	1043.600519331667	1.09792335742
2	1846	1062.221824855093	1.769134271126
2	1882	1081.038108023486	8.009635232097
2	1889	1082.559230913177	8.579481251276
2	1970	1115.313296374902	2.019801610911
2	2013	1132.025868897564	0.025713765311
2	2060	1157.541163817664	2.733092609746
2	2071	1162.464871918121	3.917575639306
2	2099	1173.464526148622	2.942326942724
2	2102	1176.691994143815	4.824516292561
2	2103	1185.400207500366	13.265655179956
2	2214	1236.666448394572	5.058142677475
2	2301	1289.511834275859	0.887591535978
2	2424	1375.167026068546	19.130175263424
2	2429	1377.69368177718	5.087194331656
2	2493	1417.619102109601	11.965983094403
2	2516	1427.988499731937	12.599170991005
2	2537	1440.036739162998	17.381653172541
2	2556	1456.578615065705	33.601627251858
2	2563	1460.303509453435	35.270975274455
2	2570	1468.230073820141	37.947014749767
2	2571	1468.779253897226	15.441179398427
2	2572	1469.409634268323	10.555818605768
2	2582	1471.453467039569	0.99783459072
2	2650	1507.316685374657	13.867349776513
2	2671	1522.609004646605	26.55662444108
2	2672	1523.441984212979	8.557604663171
2	2683	1531.210066004728	2.654741879897
2	2754	1567.576103112115	3.202193135711
2	2765	1577.589139781897	12.515355335862
2	2770	1582.284351675076	13.402735051356
2	2858	1622.46648597697	5.576411580429
2	2871	1628.346919896378	1.536114719822
2	2883	1637.754840745315	4.954880049734
2	2888	1650.508499260933	13.684906590976
2	2908	1660.160481604531	1.611773200212
2	2965	1700.170177386142	13.462003080837
2	2974	1711.523055494311	17.343949641132
2	2977	1712.247154016955	6.99492084353
2	3008	1721.093426455114	1.158975379554
2	3021	1732.758106249994	8.161250516114
2	3047	1743.012305475494	2.590973876144
2	3094	1769.6307411483	12.436684667857
2	3135	1794.866584043362	33.58475545852
2	3138	1798.667656412332	36.749547150107
2	3193	1838.428117013513	6.653864630083
2	3247	1870.554069809943	1.840532796252
2	3292	1901.502933920921	2.944489144796
2	3306	1915.148518538969	4.642272516037
2	3379	1970.720577979858	4.112444467366
2	3401	1984.144565598209	7.480928721704
2	3470	2024.355491593225	2.648814794952
2	3561	2076.29129546134	2.331946659055
2	3585	2098.671634418581	6.491197487596
2	3614	2122.330683742636	4.164640757632
2	3706	2171.702190838223	2.547439996591
2	3729	2177.321565411803	0.260258138709
2	3743	2184.459929526471	5.545513131809
2	3755	2198.68276874378	2.868290230065
2	3765	2206.276254096687	6.099081659458
2	3787	2222.368884794303	7.477537529797
2	3792	2227.071288079485	11.2543015342
2	3864	2280.791082649515	0.001808470005
2	3883	2292.542934325833	3.883018548476
2	3956	2334.577343896308	8.690882943547
2	3959	2336.882941233333	1.15387451259
2	4016	2371.58812348353	8.346419725088
2	4017	2372.698603190795	3.125690569903
2	4062	2396.475871631733	11.385764418489
2	4116	2428.323044603587	7.941780052245
2	4129	2441.693118966685	3.637747024649
2	4147	2448.594707483831	1.714795593823
3	609	352.130554891321	2.377412431498
3	724	419.824288542282	0
3	758	445.426883461239	0
3	829	481.155473799364	0
3	917	536.946986058516	0
3	925	541.720738592907	0
3	928	542.013573484638	0.277253529453
3	937	557.490400795264	11.740501069359
3	1088	642.852204457678	0
3	1091	646.909364677438	0.004931761743
3	1114	666.123998518003	0
3	1131	673.379073049835	0
3	1172	692.296201596188	0
3	1199	707.174758416955	0
3	1204	709.074450502644	1.757864223309
3	1229	718.627327699064	0
3	1232	719.093978241006	0
3	1240	725.978438086876	0
3	1256	740.857761909457	0
3	1283	759.785179545867	0
3	1294	769.99705848	0
3	1307	774.842505725638	1.840756630469
3	1340	792.625640676717	18.668099250515
3	1343	795.211284919797	14.343433280915
3	1467	853.673845421965	0
3	1486	864.02193246501	1.222542623133
3	1503	879.470842626838	11.372044787567
3	1510	883.519975797881	3.242483977966
3	1513	886.470748365759	4.293710262072
3	1557	912.935758198835	0
3	1596	932.202672012874	0
3	1609	936.657389288969	0
3	1636	946.297682443241	0
3	1659	960.738265453186	0
3	1805	1042.502595974247	0
3	1843	1060.452690583967	0
3	1871	1073.028472791389	0
3	1882	1081.038108023486	7.058358361585
3	1967	1113.293494763991	0
3	2012	1132.000155132253	0
3	2053	1154.808071207918	0
3	2064	1158.547296278815	0
3	2092	1170.522199205898	0
3	2099	1173.464526148622	1.597048297368
3	2102	1176.691994143815	4.557441823405
3	2213	1231.608305717097	0
3	2300	1288.624242739881	0
3	2395	1356.036850805122	0
3	2424	1375.167026068546	2.560538623022
3	2484	1405.653119015198	0
3	2493	1417.619102109601	2.229773368669
3	2516	1427.988499731937	5.33341374148
3	2537	1440.036739162998	17.059751349151
3	2556	1456.578615065705	31.546080886725
3	2563	1460.303509453435	30.020450383061
3	2570	1468.230073820141	14.891999321342
3	2571	1468.779253897226	9.925438234671
3	2577	1470.455632448849	0
3	2633	1493.449335598144	0
3	2650	1507.316685374657	11.264305169132
3	2671	1522.609004646605	7.724625096797
3	2680	1528.555324124831	0
3	2749	1564.373909976404	0
3	2754	1567.576103112115	2.50231866608
3	2765	1577.589139781897	8.707523158177
3	2845	1616.890074396541	0
3	2870	1626.810805176556	0
3	2878	1632.799960695581	0
3	2883	1637.754840745315	0.931248075358
3	2903	1658.548708404319	0
3	2944	1686.708174305305	0
3	2965	1700.170177386142	5.991071532963
3	2974	1711.523055494311	6.270822320886
3	3005	1719.93445107556	0
3	3020	1724.59685573388	0
3	3046	1740.42133159935	0
3	3075	1757.194056480443	0
3	3094	1769.6307411483	8.348912563458
3	3135	1794.866584043362	32.948474781137
3	3192	1831.77425238343	0
3	3244	1868.713537013691	0
3	3287	1898.558444776125	0
3	3301	1910.506246022932	0
3	3374	1966.608133512492	0
3	3388	1976.663636876505	0
3	3467	2021.706676798273	0
3	3560	2073.959348802285	0
3	3582	2092.180436930985	0
3	3613	2118.166042985004	0
3	3701	2169.154750841632	0
3	3728	2177.061307273094	0
3	3736	2178.914416394662	0
3	3752	2195.814478513715	0
3	3760	2200.177172437229	0
3	3782	2214.891347264506	0
3	3787	2222.368884794303	6.551898249018
3	3863	2280.78927417951	0
3	3880	2288.659915777357	0
3	3947	2325.886460952761	0
3	3958	2335.729066720743	0
3	4007	2363.241703758442	0
3	4016	2371.58812348353	2.015210862638
3	4049	2385.090107213244	0
3	4109	2420.381264551342	0
3	4128	2438.055371942036	0
3	4144	2446.879911890008	0
4	610	352.927689561948	7.780084975543
4	611	353.494627335739	6.98786685148
4	614	354.065421188467	6.921611703464
4	615	354.213921543642	6.784504830273
4	616	354.892037448185	6.716185237979
4	617	355.020638459746	1.23408809368
4	620	357.966507727057	0
4	623	360.040385009165	0
4	626	360.279564783872	0
4	629	362.683453579788	0
4	632	364.169190410019	0
4	637	364.996427897788	0.774627889375
4	638	365.483663653377	0.594015893872
4	641	370.352675197382	0
4	644	370.980293991205	0.227673780953
4	647	373.144151868252	0.821004995325
4	650	374.520564239603	0
4	653	375.871214717376	0
4	656	377.337672336664	0
4	659	380.488403810424	0
4	662	381.172262897344	0
4	665	381.955481599167	0
4	668	384.436539087268	0
4	671	386.031722777251	0
4	674	392.782428264611	0
4	677	394.66379532013	0
4	680	394.719511624022	0.04724967051
4	683	395.168365193538	0.145048769342
4	686	395.577000196712	0.06240678206
4	689	395.966283525601	0.150956487342
4	692	397.052388658177	0
4	695	397.860690972048	0
4	698	403.070936386709	0
4	701	404.109687844298	0
4	704	405.145162947428	0
4	707	406.403816897718	0
4	710	411.100524053322	0
4	713	412.308238470756	0.193137754018
4	716	416.941941275629	0
4	719	418.596737831873	0.008768922105
4	722	419.807417882989	0
4	737	427.922919793437	8.098631251155
4	738	428.342429701751	7.824202179547
4	741	430.335103141809	7.061347088924
4	742	431.763072531661	8.466552321907
4	743	431.857974814657	7.993162086314
4	744	432.260010067129	7.525155138077
4	747	433.92211975907	6.313983169993
4	748	434.209068745235	4.031941149625
4	749	434.956457978838	1.483035044397
4	752	437.206978799576	0
4	755	444.245415986065	0
4	761	447.777853920531	0
4	764	450.896613619568	0
4	767	454.21508198335	0
4	770	456.154365220673	0
4	775	457.0371565729	0.264339633702
4	776	457.491900223098	0.617950254841
4	779	457.823791433026	0.135292261651
4	782	459.516049204936	0
4	785	461.956361972481	0
4	796	465.654348416305	3.099785865333
4	797	465.86151562061	3.157250974961
4	798	465.99377983938	2.327266348643
4	803	470.075380883748	6.301670393315
4	804	472.995059208712	7.413712922113
4	805	473.09439315145	5.721213064705
4	806	473.856672390927	5.895907491083
4	811	474.38242372026	0.152870356261
4	812	474.600650495413	0.370243619422
4	815	476.177440756339	0
4	822	479.468681374132	2.830884522173
4	823	479.514136027049	2.234601275118
4	824	479.749476187535	1.52574974545
4	827	480.984180177828	0.865918998154
4	832	482.623445529356	1.467971729992
4	837	484.944449725214	3.441264054831
4	840	486.88856444795	3.262562704752
4	843	487.45278530398	2.677019876091
4	844	488.938429799959	2.931715925291
4	845	489.174254568247	2.065243020482
4	848	491.538291633917	0
4	851	492.227790798027	0
4	854	493.339077083555	0.880346167378
4	857	494.711505559487	0
4	860	494.882663790832	0
4	863	497.214744559291	0.551867904218
4	866	498.207921847919	0.628274153661
4	869	501.408541767379	0
4	872	504.875064532737	0
4	879	507.209099251515	2.322292896677
4	880	507.326469723744	1.421406573069
4	881	508.124672567566	2.04672466013
4	884	508.719064065936	0
4	887	510.17396573021	0
4	890	511.09182999861	0.060873593071
4	893	513.045442902219	1.377900686171
4	896	516.607183102734	0
4	899	518.139066631112	0
4	902	521.993516313959	0
4	905	522.492697329853	0.251049958463
4	908	531.69804220167	0
4	911	535.053892814768	0
4	914	535.952051333068	0
4	920	540.988036962556	0
4	923	541.660252573365	0
4	942	567.564240005452	25.843501412545
4	949	569.353626321731	17.966807911984
4	950	569.413939101384	16.228327363194
4	953	570.249300072203	16.510178525549
4	954	570.702078977718	8.866284000257
4	957	574.018472485379	9.535694479429
4	958	574.576869588708	6.90983167207
4	959	574.786291471849	7.015179709444
4	960	575.049698939029	6.190711018923
4	961	575.580442388174	6.044513144134
4	966	579.014693935311	5.666378184065
4	971	580.350705849411	3.595813243623
4	974	581.698918730853	3.738505813741
4	977	584.687898194664	5.501878649171
4	982	585.274462922806	5.242057509948
4	985	585.476366231992	4.375215443779
4	988	586.165210999494	1.908881892759
4	989	586.671931205561	1.79500142699
4	990	586.915136661775	1.873444765829
4	991	588.109815713156	2.762017190306
4	994	589.389927547297	3.577246470796
4	999	590.9889856806	2.7186474438
4	1000	592.829096172608	2.930072320463
4	1001	594.023431011957	3.054010835732
4	1004	594.857093048659	0
4	1007	596.117660201894	0
4	1010	597.099781389029	0.743726894604
4	1013	599.676458502185	2.326146432494
4	1018	601.893688099684	1.245592674488
4	1019	602.384345802963	0.980420458062
4	1022	603.946576283084	0
4	1025	604.764724004443	0
4	1028	607.393174607648	0
4	1031	607.543694226216	0
4	1034	613.147290843746	0
4	1037	615.492885270289	0
4	1044	616.244326092049	0.648993522523
4	1045	616.998350245821	1.140305858496
4	1048	617.938728284131	1.925794568539
4	1051	618.351526389301	0.47605190254
4	1052	619.524650734615	1.498001388742
4	1055	621.94873362046	0
4	1058	628.059057452386	0
4	1061	628.127412281445	0.042241003129
4	1064	629.109484335584	0.786738128367
4	1067	630.488858936827	0
4	1070	632.377954116113	0
4	1073	632.855644376033	0
4	1076	634.194648403806	0.645998646591
4	1079	635.645404741728	0.079792742932
4	1082	637.712804524553	0
4	1085	638.312790650718	0
4	1094	648.716193365166	0
4	1097	649.248343736893	0.411847560519
4	1100	654.731796764441	0
4	1103	656.260128999221	0.839313749249
4	1106	657.100800054958	0.314841580853
4	1109	664.425302316038	0
4	1112	666.109192853627	0.483890097487
4	1125	671.369134696912	5.245136178909
4	1126	671.834991916293	5.419434101905
4	1127	671.92700045191	5.088556679296
4	1136	675.974953750651	8.880645448052
4	1137	676.485340085578	7.596181581862
4	1138	678.060238410218	7.774306840515
4	1139	678.891866033661	5.546112306051
4	1140	679.292628064655	5.91355501482
4	1141	679.822959211541	4.9878660202
4	1146	683.413294737956	7.54371263142
4	1147	685.054400083717	4.715707311662
4	1148	685.539567703821	2.760482659917
4	1151	685.790869775586	0
4	1158	686.730926103613	0.686185986902
4	1159	686.762791855717	0.506183756049
4	1160	686.859153679895	0.15789309382
4	1167	690.17925310212	2.956307689698
4	1170	691.372278602198	4.072822161787
4	1177	696.644158598497	7.847247125978
4	1180	697.949145331899	7.483025542645
4	1181	698.319575719218	6.02337412303
4	1184	700.842452633786	7.571247647283
4	1185	702.745513448915	9.303307262106
4	1188	703.82651922884	7.132599785796
4	1195	705.176746224087	6.82088704713
4	1196	705.501467358006	2.652065195363
4	1197	706.710934819455	2.301695080124
4	1205	709.99936697877	5.306676699017
4	1208	710.156610416843	5.417157850725
4	1209	710.734988832913	3.560230415958
4	1210	711.417791260957	3.51243255903
4	1211	712.095975196957	2.064048795477
4	1214	712.70922565292	0
4	1217	713.128280526321	0.051553788494
4	1220	713.683544790898	0
4	1223	716.670303358338	2.4816606227
4	1226	717.2006357336	0.32207212965
4	1235	722.941946326492	0
4	1238	725.858195671726	0
4	1247	735.243146366857	9.264708279981
4	1250	736.725705203758	10.402183481995
4	1251	737.00890297886	8.426295796775
4	1252	737.296729563591	6.076959981209
4	1253	738.747188680343	2.652702848387
4	1261	746.149996156744	1.666208691229
4	1262	746.180274628162	0.516687397941
4	1265	748.493418076044	0
4	1270	751.570104416739	2.262984450553
4	1273	754.411448291761	4.96833327049
4	1274	754.522160981777	2.452544139737
4	1277	756.586900551649	0
4	1280	758.641483477047	1.871233275101
4	1292	769.235542157537	8.753558807345
4	1344	797.645015244678	34.705647249081
4	1347	797.791475766	33.5519358356
4	1356	801.992786886112	36.709950702016
4	1361	804.270332000012	34.273273520012
4	1364	805.387953058402	34.93734638124
4	1367	807.61373730188	35.443013551277
4	1370	807.952894253697	35.152535354001
4	1373	808.125896731153	34.765332841537
4	1374	808.35927218286	31.655100024924
4	1375	809.513544927111	32.217075888674
4	1376	810.838812325729	32.047068883895
4	1377	811.045449318824	31.534450499543
4	1378	813.223157396093	33.547047829166
4	1385	818.678420004219	38.982934728988
4	1386	818.786780643631	38.271508933596
4	1389	820.379354537673	39.357246769926
4	1390	820.652968051518	39.063144912498
4	1391	821.332879037654	38.738565106541
4	1392	821.582308809527	38.371445763658
4	1397	823.352612263351	39.972541802802
4	1398	824.148835585636	37.449098819946
4	1401	824.803565619561	38.041628978833
4	1404	825.983571867002	35.436183016162
4	1409	828.801622243212	34.967438364455
4	1412	829.16063397773	31.407151919576
4	1419	830.701404350902	32.091951988652
4	1420	830.724904868346	31.715829589866
4	1421	831.754960803668	32.740127217523
4	1426	834.255031807217	34.968630610467
4	1427	834.378038446395	30.788695672995
4	1428	835.13827490251	31.416131103523
4	1429	835.509325306649	30.943546475009
4	1432	836.431127901379	29.839743206515
4	1433	836.471187015449	28.821755200523
4	1436	838.231301228865	30.109286371059
4	1437	840.141044336886	23.43340129054
4	1446	843.40048716142	26.193710021211
4	1449	843.949573557195	26.00407211116
4	1454	845.808499618413	26.726538766846
4	1457	846.613960017636	24.063301058019
4	1458	847.259069921543	24.235490334539
4	1459	849.279721664515	24.588177122718
4	1460	850.379482909501	25.121124944379
4	1461	851.045853757304	24.102550837686
4	1462	851.166854202345	22.524950065962
4	1463	851.344890785956	22.225650196486
4	1464	852.088302747967	22.840136953787
4	1465	852.153084238707	21.871946951563
4	1514	889.271801544583	58.57295413368
4	1519	893.304446832534	60.267939727657
4	1520	894.733086257608	60.520129153457
4	1523	895.783913121576	59.648935823752
4	1524	897.646708043169	60.36829292352
4	1525	897.927593964303	55.86376177263
4	1530	898.98410274323	55.981580676068
4	1531	900.470039619881	57.40185996354
4	1532	900.935462037623	57.81303031342
4	1533	901.251533911403	57.676242410094
4	1534	901.272442950343	57.192315536564
4	1539	902.084836693005	56.82632741778
4	1542	904.872525120793	58.684803940673
4	1543	905.780752995964	52.106907573999
4	1544	905.827408207314	49.09677464886
4	1545	907.876874870222	49.408116545661
4	1546	908.059444941462	49.571759781093
4	1547	908.2988052345	48.91342680146
4	1552	911.176832285977	51.725785875541
4	1553	911.202586097776	51.44864629728
4	1562	918.474901203841	56.628744769788
4	1565	920.886566199352	57.432910058813
4	1566	921.246523234328	54.006571613472
4	1567	921.50007988373	53.575517881505
4	1568	921.72214735405	51.548754781331
4	1575	922.9567430273	51.551795248817
4	1576	923.113629261491	50.481006679595
4	1577	923.261587678513	47.538159706727
4	1580	924.707608649734	48.592747467876
4	1583	926.607894422601	43.736465850449
4	1588	927.943893668426	43.804883244924
4	1589	928.729387208653	37.378900811456
4	1592	930.438286698577	38.476613636636
4	1599	932.95499797957	37.587361149571
4	1600	933.504392561682	34.63423727731
4	1601	933.536124938071	34.643549197081
4	1602	933.844255152583	32.423723520397
4	1605	935.664801577083	34.152898250717
4	1610	937.087903064749	32.990641732801
4	1613	938.222029067336	29.40643774943
4	1614	939.054247096463	29.003704596677
4	1615	939.180147643147	27.466624730403
4	1618	939.349195498335	26.4134372995
4	1623	941.871321824542	27.487932703131
4	1626	942.269773665352	24.864299476588
4	1629	943.534778050391	23.267341474515
4	1630	943.930018890691	21.674569546009
4	1633	945.157461462626	22.531796648918
4	1634	945.525913766343	22.77843707058
4	1637	947.606060377701	23.886618061214
4	1640	948.251616602339	23.255569284108
4	1641	949.17518545599	22.402894917133
4	1642	949.895429491436	22.503577402301
4	1643	951.161702603674	21.636261983749
4	1644	951.944429352782	20.634616613613
4	1649	955.374000270175	23.171328257301
4	1650	957.291713004311	24.412405741756
4	1651	957.638262329488	22.606329111344
4	1654	957.786584712216	21.553962060396
4	1657	959.285253051578	22.627863762609
4	1676	972.108184800654	34.35802920347
4	1677	973.187673204395	33.931070905128
4	1680	975.481397010074	34.228964525924
4	1681	976.470262929371	34.956026748038
4	1684	977.724684598641	35.523884467416
4	1685	978.075875076882	35.111616754324
4	1686	979.014704611361	34.45047800596
4	1687	980.299098818855	34.001416375614
4	1690	981.693653876335	33.652992945752
4	1691	981.992002063765	28.662748015308
4	1696	983.313954391601	29.533548268739
4	1697	983.829897928051	26.085480249808
4	1698	984.281483566242	25.139470026026
4	1699	984.299307665134	23.561042211948
4	1702	986.98245744661	25.20273603369
4	1703	987.242643683862	24.542601163684
4	1704	987.442306115166	23.997909486259
4	1705	988.678231951547	21.449924335352
4	1710	992.616010370632	24.756158286349
4	1711	992.729410952528	24.702494353263
4	1714	993.85208949985	23.766089356184
4	1715	994.594615417741	24.468898299041
4	1716	994.649934494089	20.631301944488
4	1719	996.111275327091	18.524403547099
4	1722	997.266287699197	16.405966839667
4	1725	999.167693361094	16.547041528257
4	1726	1000.492356841445	17.226690017594
4	1729	1000.793148950921	13.819869946047
4	1734	1001.073570963666	12.099948484336
4	1735	1002.120289389431	10.75242279168
4	1740	1003.705009389059	10.939858033402
4	1743	1004.467324152924	9.695743238244
4	1744	1004.541958556728	7.746694031969
4	1745	1004.908873503003	6.306218063857
4	1746	1005.598089057971	4.992227693263
4	1749	1006.212504473352	5.249827822548
4	1750	1006.419719894546	5.352599807953
4	1753	1010.069732194881	7.837654910188
4	1756	1012.034388678	8.741796287451
4	1757	1013.850488682604	10.040842251228
4	1758	1014.011753340401	8.087944804205
4	1759	1014.155520547254	6.190748174278
4	1760	1014.729470797121	3.51641401716
4	1763	1017.753057947908	0
4	1766	1018.895484415905	0
4	1769	1020.388929303623	0
4	1772	1020.958985062213	0
4	1775	1023.622344753809	1.981264295424
4	1778	1024.109764175367	0.345842809612
4	1781	1030.278165066678	0
4	1784	1030.933717381472	0
4	1789	1033.921402278597	1.078632088195
4	1790	1034.009621241493	0.988165240003
4	1793	1035.16191360601	0.100562892076
4	1796	1038.274722524826	0
4	1799	1040.114634006632	0
4	1806	1043.600519331667	2.645608464063
4	1809	1043.704385146391	1.448271549441
4	1812	1045.783937955644	3.281341981397
4	1821	1049.863281739256	6.233201033424
4	1822	1049.89621733417	4.63079396793
4	1823	1052.64489686624	6.051903573171
4	1828	1054.968284461345	7.723693276124
4	1835	1056.94976404883	7.388735301539
4	1838	1057.872062950685	8.300009906669
4	1839	1058.113125451281	4.529749350452
4	1840	1058.508537784718	3.897742207636
4	1841	1059.20282019453	3.455063028424
4	1846	1062.221824855093	5.704265559541
4	1849	1063.550553295505	6.62559146515
4	1850	1063.906645643464	6.049315536317
4	1857	1065.092506853969	4.639816270002
4	1858	1065.596183371854	3.726954419071
4	1861	1066.344013237836	3.150745616565
4	1862	1067.495664409567	3.133657819719
4	1863	1067.819608909981	3.39084307585
4	1864	1068.106102531864	3.394582664745
4	1865	1068.37668779093	2.135450219099
4	1868	1072.17493748514	0
4	1889	1082.559230913177	8.08411329171
4	1890	1083.194024087824	4.948094298749
4	1893	1084.023462918406	3.787665752676
4	1898	1084.412507265626	3.484613697427
4	1899	1084.555912673909	3.323837445647
4	1906	1087.18103045418	5.734760231381
4	1907	1087.508890260664	5.232115054839
4	1910	1088.054292200449	4.041296135183
4	1911	1088.666433148173	4.47537506657
4	1912	1089.20723789759	4.863539946727
4	1915	1089.508669445486	4.582322832289
4	1916	1089.941897057921	3.880114345757
4	1917	1093.252134143213	6.941221820003
4	1924	1095.107670199727	7.117847844831
4	1925	1095.325088733019	5.96842305896
4	1930	1097.104970421398	3.261254414176
4	1933	1098.444796154519	4.143440863154
4	1934	1098.68700891044	4.284444211913
4	1937	1100.082840228418	4.324778479829
4	1940	1101.198428875312	4.131312119321
4	1943	1102.062474250926	3.825614733783
4	1946	1103.611404253372	3.530361031297
4	1947	1104.384558873546	3.557118228784
4	1948	1105.662367807436	4.007115901084
4	1949	1107.097243686688	3.793049772446
4	1952	1107.825579208093	0
4	1955	1109.26625079566	0
4	1960	1110.993287349074	1.505583065361
4	1965	1112.958294682346	2.294695800534
4	1970	1115.313296374902	3.324679414409
4	1973	1115.651975583325	3.547026141635
4	1976	1116.672547925858	3.379053161867
4	1979	1118.647198416206	3.547557625142
4	1982	1119.367397979115	3.830881972035
4	1983	1119.728820060351	3.712388766506
4	1984	1120.076216454489	1.961832315421
4	1989	1122.75176258102	3.604784937993
4	1990	1123.066556889105	0.962105013873
4	1991	1123.527205423898	0.809359740657
4	1994	1123.817885608685	0.038320941324
4	1997	1125.734856736379	0
4	2000	1126.337743301837	0.48878644124
4	2003	1126.893067322182	0
4	2006	1127.25673817262	0
4	2009	1128.37427823842	0
4	2015	1136.115112393622	0
4	2020	1137.202319546895	0.848018714354
4	2021	1137.560158572016	0.820049841576
4	2024	1137.786221979441	0
4	2027	1139.707275135478	0
4	2030	1139.777266323701	0
4	2033	1147.719378152737	0
4	2036	1148.704558095398	0.489860701927
4	2039	1149.881280281828	0.497099069348
4	2042	1151.005587842305	0
4	2045	1151.28372307296	0.265056418717
4	2060	1157.541163817664	5.771785254731
4	2061	1158.224519809165	4.549598230804
4	2062	1158.358319625021	4.042642887823
4	2071	1162.464871918121	7.656800710203
4	2072	1162.543891219543	6.8614588756
4	2075	1163.710393103591	7.693895072573
4	2084	1167.627886135365	10.599756627772
4	2085	1168.025566438153	9.478270159338
4	2086	1169.010197193467	10.258135444584
4	2087	1169.176954105994	10.029686257905
4	2088	1170.322240047349	10.305793359452
4	2103	1185.400207500366	21.914522059247
4	2106	1185.957749558792	19.721348694403
4	2107	1186.436696784003	19.985800275503
4	2108	1187.127771572858	20.571020533761
4	2111	1188.185342950891	20.687826740963
4	2112	1188.370080790817	17.868946563015
4	2117	1189.185343309262	18.663144103364
4	2118	1189.461651010384	16.863182582496
4	2119	1189.866320475489	14.459427084421
4	2122	1191.105416307322	5.547806179768
4	2125	1191.787179401997	3.803337824695
4	2126	1193.16944221735	4.164841917557
4	2127	1193.645824080541	4.473062425683
4	2128	1193.710049707375	3.786171647836
4	2129	1193.867634541026	2.479002072067
4	2132	1195.117236845054	0
4	2135	1196.388150858526	0.490842919542
4	2138	1197.795269058795	0
4	2141	1198.007263529266	0
4	2144	1201.804207339181	0
4	2147	1202.726257883979	0.662374238102
4	2158	1206.410607846329	1.974364889248
4	2161	1207.881205205465	3.206280301843
4	2162	1208.176541972279	3.134349024832
4	2163	1208.486699940848	2.970597642339
4	2164	1209.054386941246	2.721370845423
4	2165	1210.185990380589	3.404486705719
4	2168	1210.479258106534	0
4	2171	1213.252946900284	0
4	2174	1214.228515166334	0.763103982897
4	2177	1215.02282064852	0
4	2180	1217.368805847451	0
4	2183	1218.625946607399	0
4	2186	1219.954503851947	0
4	2189	1220.554281642925	0.063637662779
4	2192	1223.385496480168	0
4	2195	1224.697393130538	0
4	2198	1225.514486275991	0.488369045576
4	2201	1226.398020860967	0
4	2204	1227.402738965549	0
4	2207	1229.331654564646	0
4	2210	1230.372102971571	0
4	2216	1237.752077706218	0
4	2219	1238.039364546052	0.273721150865
4	2222	1238.885218956109	0
4	2225	1241.239451202368	0
4	2228	1243.416887395756	0
4	2231	1244.322417481822	0.130936323976
4	2234	1245.099614834086	0
4	2237	1248.810828604866	0
4	2240	1251.545121724325	0
4	2245	1254.67547610724	2.539907166939
4	2246	1255.664137474776	2.842266671261
4	2249	1256.113134620706	0.363850785145
4	2252	1256.467604626501	0.015448274738
4	2257	1257.371716234012	0.633892536068
4	2258	1257.594731613228	0.419770582891
4	2261	1260.187017839135	0
4	2264	1265.527148882549	0
4	2267	1266.275251403617	0
4	2270	1267.669306220147	0
4	2273	1269.659335896213	0
4	2276	1274.245591961561	0
4	2279	1275.477171496957	0
4	2282	1278.702375118646	0
4	2287	1281.035679905836	1.700071507183
4	2288	1281.857270383535	0.824690018028
4	2291	1282.939103381942	0
4	2294	1283.937830774371	0
4	2297	1284.657242336857	0
4	2303	1296.935655225023	0
4	2310	1298.15893498314	1.216999293852
4	2311	1298.731630643539	1.176087500071
4	2318	1300.625476571903	2.581627244673
4	2319	1301.669631033816	2.767927334301
4	2320	1302.416284904349	3.477050703765
4	2321	1302.474264101452	2.112393374115
4	2324	1309.774923016265	0
4	2331	1311.357992346544	0.516025358497
4	2332	1311.390127711485	0.305418649398
4	2337	1313.441758796596	2.262107254023
4	2342	1314.509250789369	1.945702005586
4	2343	1316.363598477213	3.402546253143
4	2346	1319.360748081206	5.637919603563
4	2347	1319.79649595089	5.372138465733
4	2348	1320.130130679741	1.07661261669
4	2351	1322.220880441525	0
4	2354	1323.735313042791	0
4	2357	1325.838226409206	0
4	2360	1328.984603248003	0
4	2363	1331.138095286272	0
4	2366	1333.487606434581	2.13787360182
4	2369	1334.277731602801	0
4	2374	1335.921980205883	1.229420833834
4	2375	1336.67182831658	1.195186909064
4	2378	1339.424873996122	0.857276978833
4	2381	1350.86629690113	0
4	2384	1352.241211647073	0
4	2387	1353.349011077761	0
4	2392	1354.74164678116	1.095614711284
4	2393	1355.765131260955	1.848195796675
4	2429	1377.69368177718	21.656830972058
4	2432	1378.746243097063	22.542818919858
4	2433	1382.314252247079	23.363717346186
4	2436	1383.201244312297	23.67150523872
4	2439	1383.211537432503	22.839131826456
4	2440	1384.597697116684	22.763662243805
4	2443	1385.080922140225	21.150190494845
4	2444	1386.063344251084	20.491130822056
4	2447	1389.005786137671	23.304424176273
4	2450	1392.719408922928	25.456274260819
4	2455	1393.700853624922	26.152286456359
4	2458	1396.972807814591	28.8070077796
4	2463	1398.148878711241	28.378959400721
4	2464	1398.411443972571	28.499997346392
4	2465	1398.723369284782	23.488510597663
4	2466	1398.955708285379	22.130938159682
4	2467	1399.460336110847	21.714134588627
4	2468	1400.554525290435	18.014444923008
4	2473	1402.601860351723	19.391972789738
4	2474	1402.673479018579	17.727007832447
4	2477	1402.837277107875	16.415660735114
4	2478	1403.78327584566	12.978108701238
4	2479	1405.027311594519	11.631586567697
4	2480	1405.329859124694	11.697814254232
4	2481	1405.357214867448	9.666004875261
4	2482	1405.40370943249	8.313725675082
4	2572	1469.409634268323	71.695743201865
4	2573	1469.465342021983	68.611499441878
4	2574	1469.907567384024	68.654223670636
4	2575	1470.066957183129	67.273974811217
4	2582	1471.453467039569	65.800348024371
4	2589	1472.879823455978	65.497060595345
4	2590	1473.127781104671	61.285815637151
4	2591	1473.703482466308	58.183476207436
4	2594	1475.0598276672	56.490133019203
4	2595	1476.596135175804	56.259794790581
4	2598	1478.961639488673	57.395365608463
4	2599	1479.829994446461	57.123303905036
4	2600	1480.514609900959	55.457837746781
4	2601	1481.914894645536	54.259420926626
4	2602	1482.465422550097	54.790429861253
4	2603	1482.519393683246	54.731130213106
4	2614	1484.711160007502	56.06167253697
4	2615	1484.813884270358	54.509619858722
4	2620	1485.444951765594	54.93449053151
4	2623	1487.19588294175	56.095928939927
4	2624	1488.31455361194	55.262532005845
4	2625	1490.414785203306	57.230629117015
4	2626	1490.656635795672	56.665415366515
4	2627	1491.032996810098	55.190428098669
4	2628	1492.077135206338	56.084445842686
4	2629	1492.259556539672	52.16419152757
4	2630	1492.28687122794	51.939626173673
4	2631	1493.289740346426	52.835815097943
4	2672	1523.441984212979	79.549406364347
4	2675	1525.490648092197	79.783017209996
4	2678	1527.587588867971	79.891003532595
4	2683	1531.210066004728	82.60747139197
4	2686	1531.460790024457	78.166908969882
4	2687	1531.839567757826	74.935814423355
4	2688	1533.110336513645	74.257294517957
4	2689	1533.384334978659	70.750617890813
4	2690	1533.821903205305	70.817606312644
4	2691	1533.92018352551	69.311812601521
4	2692	1533.929520285262	63.473887836413
4	2695	1535.509273083106	64.827246753125
4	2696	1535.947666269338	64.525129242096
4	2697	1536.12006851889	64.599353382633
4	2698	1537.235126663566	64.644708844025
4	2699	1538.258222509555	65.426690684366
4	2704	1540.840792289487	66.392628804446
4	2705	1541.877815140041	65.170127622628
4	2706	1542.615521199641	59.62265869685
4	2707	1542.877385075198	59.383939782234
4	2708	1542.936369129553	59.351426302351
4	2711	1544.428125936089	60.059560831841
4	2712	1544.647281220693	60.025715733648
4	2713	1544.803078984621	59.923104272448
4	2714	1545.940381981528	60.861855272255
4	2715	1546.805589951014	59.971353991864
4	2716	1546.926863231863	53.477527633719
4	2717	1547.404142773214	51.02565803334
4	2718	1547.985402205557	49.309758176132
4	2719	1548.578007552815	46.907430490248
4	2720	1549.719086751086	47.709357226595
4	2721	1549.922878475061	47.249126247216
4	2724	1551.396511232656	46.026283814196
4	2729	1553.488721437243	47.345606017144
4	2730	1553.649477179084	46.131295903767
4	2731	1553.886869005797	43.751360170424
4	2734	1556.306520279702	44.409343599971
4	2735	1556.427261522275	39.882266543329
4	2740	1558.664629651899	41.993684783131
4	2741	1559.300432642792	41.195360224659
4	2742	1559.4490651719	39.423619056573
4	2745	1563.098909573991	42.647186008808
4	2770	1582.284351675076	59.694500748711
4	2771	1582.435208415862	58.834072899695
4	2772	1583.04263424825	55.525138449586
4	2773	1583.117531518178	54.562207393347
4	2774	1583.201499214962	53.660425275978
4	2775	1583.813560783208	52.58772944975
4	2776	1584.720236406221	49.640411380345
4	2777	1584.752703936001	44.975253746705
4	2778	1587.467054576877	47.064066769632
4	2779	1587.715484287494	43.726946576971
4	2784	1588.423074800194	38.454911999705
4	2787	1588.905108000815	37.260391164883
4	2788	1589.222585081723	36.814882963178
4	2789	1590.954616537641	34.793303268937
4	2792	1592.878143273186	35.781943020751
4	2799	1594.938823952748	37.789808968946
4	2804	1597.882485021887	37.574565093386
4	2807	1598.579996557672	34.869123478348
4	2808	1599.406024488587	35.032114512183
4	2809	1600.320940871855	34.21990709183
4	2816	1601.572385763381	28.967158756398
4	2817	1602.325418408807	29.667352794337
4	2820	1603.306556423667	30.185762109619
4	2821	1604.342945223751	27.530287081418
4	2822	1604.768430554517	26.267665527278
4	2823	1605.253423158287	23.09429493653
4	2824	1606.149959332003	17.811765510016
4	2827	1606.72357080103	18.364396888106
4	2828	1607.750128003849	18.848779951131
4	2829	1608.553330393058	16.367579116573
4	2830	1608.592455864946	15.12325376017
4	2833	1609.381379120559	15.690948968573
4	2838	1611.952671963083	18.103478761539
4	2839	1614.262597658969	18.241449681696
4	2842	1614.786455618479	18.152147546355
4	2843	1615.891902016517	17.806832831198
4	2858	1622.46648597697	22.128740014532
4	2859	1623.312972493273	22.799767049425
4	2860	1624.006817934051	23.350886643987
4	2863	1625.269823851644	22.172799520688
4	2864	1625.365810795425	18.984173453683
4	2865	1626.038139182289	16.986253714482
4	2868	1626.342013231094	14.845386415029
4	2871	1628.346919896378	16.686072694286
4	2872	1628.595167523833	14.108056441233
4	2875	1629.276988168941	12.3869137724
4	2876	1632.577859351766	14.149497818241
4	2888	1650.508499260933	32.043694371057
4	2891	1652.500498722404	34.015916311624
4	2892	1653.282156420564	34.611089947684
4	2893	1653.500791330249	33.430561168953
4	2894	1653.752492447105	31.94959035368
4	2895	1655.407044911171	30.704071030867
4	2896	1656.024574262284	29.823044126381
4	2897	1657.455317230235	30.644512053679
4	2898	1658.066764318411	29.434194476216
4	2899	1658.186889253517	25.386928557936
4	2908	1660.160481604531	24.502191536124
4	2909	1660.360982153168	12.068622077098
4	2910	1660.437952062322	10.814802199362
4	2911	1661.429876577452	9.455184492683
4	2918	1663.840111936282	5.567379706251
4	2919	1664.692635138667	6.143926734348
4	2920	1666.777435139738	7.156671039162
4	2925	1669.03436609408	9.139522278703
4	2926	1671.602360264221	10.072544608262
4	2929	1672.200995601619	9.737763667153
4	2930	1672.31148578239	9.146479983255
4	2931	1674.46808990785	7.041815759173
4	2932	1675.344018939773	7.781281863203
4	2933	1675.724090404008	4.11446274487
4	2936	1676.509183149027	0
4	2939	1683.603122714464	0
4	2942	1684.827159943257	0
4	2977	1712.247154016955	25.53897971165
4	2982	1713.58851735118	24.60966687333
4	2983	1713.809269349566	24.466664022279
4	2984	1714.615002493717	25.055746025877
4	2987	1715.360382148203	21.54935307599
4	2992	1716.082041226973	19.747869208623
4	2997	1717.916164204815	19.820299568837
4	3002	1718.729407205576	20.011523312844
4	3003	1719.296672827914	20.302079120465
4	3008	1721.093426455114	21.546588571953
4	3009	1721.535263257878	21.093512142231
4	3012	1723.35601185657	21.779375431087
4	3013	1723.534281065357	14.646188959491
4	3014	1723.55050048493	11.386375784445
4	3015	1723.817525348355	11.199023512214
4	3016	1724.058032937754	11.371751341501
4	3021	1732.758106249994	17.71119204395
4	3022	1733.047908247043	17.396927227329
4	3023	1733.126186734027	17.381329025664
4	3026	1734.272455851698	17.886892661695
4	3029	1734.297517291944	17.121062289464
4	3030	1734.566327645039	16.475610443721
4	3031	1734.646302956081	16.534999106916
4	3034	1735.079163911787	15.144712836227
4	3037	1737.315115775209	16.919538612949
4	3038	1737.679843792959	15.738242320963
4	3043	1739.916488546628	15.62059914157
4	3044	1740.262248867564	15.665393133684
4	3047	1743.012305475494	8.777085043777
4	3048	1743.586105049999	9.299240768917
4	3051	1744.607102015342	9.951695739939
4	3054	1745.477617294391	9.039727514556
4	3057	1746.463246819082	7.067900724448
4	3058	1746.88934588911	7.408752834313
4	3059	1747.622667582211	7.201335982861
4	3060	1748.835146020973	4.656280695351
4	3061	1748.922673886696	4.224086779246
4	3062	1749.314986449157	3.251194063869
4	3065	1751.252044477546	0
4	3068	1753.40199681228	0
4	3071	1755.798680100314	0
4	3138	1798.667656412332	41.532475621355
4	3143	1799.027199565025	41.833143084582
4	3144	1799.82744441546	41.44111363029
4	3145	1801.365603540834	42.582979768992
4	3146	1801.56553447349	41.442283610375
4	3147	1802.039716084658	40.044712271291
4	3148	1803.353064621062	39.36587569081
4	3149	1804.595279223245	40.172906485829
4	3150	1805.390997319302	37.579906514589
4	3155	1811.686316690209	35.835651006227
4	3156	1811.877465292485	35.492720112473
4	3159	1813.298897755741	36.308909237899
4	3160	1813.733537355928	33.783624862396
4	3161	1814.042336073447	31.878513815855
4	3162	1814.763331620742	30.977279186742
4	3163	1815.72203741403	31.2576621687
4	3164	1816.41446955032	30.684047391034
4	3165	1817.12228073945	29.682790714056
4	3166	1817.606069497624	29.613914197504
4	3169	1820.518424273478	32.248456818037
4	3170	1820.674497265726	32.349892471998
4	3173	1822.710945503143	33.642377969847
4	3176	1822.958383957762	33.475637534284
4	3177	1823.497329566603	33.940960257005
4	3180	1824.213208689368	34.648657298543
4	3181	1826.547140602137	36.765219372581
4	3182	1828.00604703603	37.6499547142
4	3183	1829.453660756332	37.648947568093
4	3184	1830.017080975424	36.037445910237
4	3189	1831.166505114987	35.436240622445
4	3190	1831.215420852793	32.210668880109
4	3193	1838.428117013513	39.417098402975
4	3196	1841.995281794061	35.45469144394
4	3201	1843.910662972081	37.008330023462
4	3202	1843.986744505547	31.204390055472
4	3203	1844.561993729779	26.721422779489
4	3204	1845.313686992496	22.625785197735
4	3205	1845.709976554551	22.831248902099
4	3206	1846.112446349459	22.228051869093
4	3209	1847.338546138545	17.192345489457
4	3210	1848.262191338011	17.269834689733
4	3211	1849.663504841607	17.889252458177
4	3212	1850.405011071753	10.294930813001
4	3217	1851.752400642857	9.549571429485
4	3220	1854.33121772152	11.894373829447
4	3221	1854.988266555056	8.81062570201
4	3222	1856.815704675627	6.13493816502
4	3223	1857.091315050497	5.515486955817
4	3224	1857.143505081873	4.696081002045
4	3227	1859.054569936142	0
4	3232	1863.484647002089	1.892428937013
4	3235	1865.851155166657	3.015200011044
4	3236	1866.082358116821	1.255021241787
4	3239	1867.318081355456	0
4	3242	1868.320211592982	0
4	3247	1870.554069809943	1.840532796252
4	3248	1871.424204331177	1.046457711657
4	3251	1876.7850148344	0
4	3254	1877.668584983305	0.736975057245
4	3257	1877.852849124886	0
4	3260	1878.281191265832	0.393591389511
4	3263	1880.267232770348	0
4	3270	1884.287769585114	3.529379084536
4	3271	1884.3543717825	1.296213987877
4	3272	1885.710991022084	1.551897383759
4	3275	1890.701196202933	0
4	3278	1891.250809048825	0
4	3281	1894.107422282545	0
4	3284	1897.562053161619	0
4	3292	1901.502933920921	1.713773134882
4	3293	1902.64788641757	1.324740959103
4	3296	1906.486510416534	0
4	3299	1909.499362704093	0
4	3306	1915.148518538969	4.642272516037
4	3307	1915.903283039684	3.730282926308
4	3308	1916.298711670997	3.241865085795
4	3311	1918.983425040897	0.253688378271
4	3314	1926.683791945982	0
4	3317	1928.006717118119	0
4	3320	1933.873083052737	0
4	3323	1935.00248498755	0.02245473161
4	3326	1937.842140168594	0
4	3329	1939.885220337704	0
4	3332	1943.90321145502	0
4	3335	1944.742512784837	0
4	3338	1947.657059163938	0
4	3341	1948.771599467286	0
4	3344	1949.518334547194	0.626288681403
4	3347	1951.680727912306	0
4	3350	1955.125897495886	0
4	3353	1955.38390646614	0
4	3356	1956.892618372873	0
4	3359	1957.960103962803	0
4	3362	1958.323798316542	0
4	3365	1960.737433324036	0
4	3368	1963.685577747143	0
4	3371	1965.087788308147	0
4	3379	1970.720577979858	3.936602235518
4	3380	1970.733132527176	2.770191540896
4	3383	1974.105400761121	0
4	3386	1976.285388597051	1.595083997704
4	3401	1984.144565598209	7.480928721704
4	3402	1984.535694393231	7.709201010447
4	3403	1985.127880919987	8.284881610555
4	3406	1986.30361455607	8.283487498171
4	3407	1988.713415350031	8.366844067794
4	3412	1990.187595609114	9.148004765553
4	3413	1990.218166232537	6.761602713331
4	3416	1992.106846801744	6.570663649339
4	3417	1992.135847199299	3.212146992784
4	3418	1993.503614826382	3.927997260443
4	3419	1994.105410103473	2.089846753144
4	3422	1994.961316623893	0
4	3425	1996.489119760914	0
4	3432	1997.59048208353	0.813549146832
4	3437	1999.979347183667	2.838519871929
4	3438	1999.996102424968	2.489772811231
4	3441	2001.234367528527	2.110629186602
4	3442	2002.187390279608	2.346504664498
4	3443	2003.522815775834	2.766751875402
4	3446	2006.415997883191	0
4	3449	2011.906071793518	0
4	3452	2013.199043112243	0.40513902778
4	3455	2014.148165949164	0
4	3458	2018.335975358183	0
4	3461	2018.680165665671	0.198751398066
4	3464	2020.394807227831	0
4	3470	2024.355491593225	1.388019176502
4	3473	2024.793121080739	0.221073011593
4	3476	2025.311874444494	0
4	3479	2028.025911764626	2.312828513017
4	3482	2029.154596660735	0.84666677053
4	3485	2030.365389876157	0.916877320982
4	3488	2031.595638965425	0
4	3495	2033.432647354824	1.823622436354
4	3496	2033.472371262044	1.599030441492
4	3501	2035.463778887356	3.572856743562
4	3502	2037.292992299309	2.963949500316
4	3503	2038.979883884448	4.294099931301
4	3506	2041.083538964914	0
4	3509	2041.790150123141	0.517766468271
4	3512	2044.805071541647	0
4	3515	2048.41251557903	0
4	3518	2048.643015482541	0.052705437252
4	3521	2049.890640120005	0
4	3524	2051.329999477193	0
4	3527	2053.874602196218	0
4	3530	2054.300298270693	0.133958299732
4	3533	2055.758299888137	1.421307446789
4	3536	2057.501279228646	1.613440088377
4	3539	2059.805180751428	0
4	3542	2062.558345994179	0
4	3545	2064.215900897689	0
4	3548	2064.953281647422	0
4	3551	2069.385708054174	0
4	3554	2070.39693285115	0
4	3557	2072.768941558439	0
4	3563	2078.094919486278	0
4	3566	2081.825808513589	0
4	3569	2082.593377859071	0.629333526297
4	3572	2089.685789288936	0
4	3575	2090.415454149627	0
4	3578	2091.458458755856	0
4	3585	2098.671634418581	6.767541775151
4	3586	2099.787161813687	7.606724882702
4	3587	2100.975975155416	5.466663232648
4	3590	2102.40928502219	0.996936200692
4	3601	2110.003572639541	7.582226958535
4	3602	2110.850094947497	8.341762670194
4	3603	2112.505282768681	9.802477465842
4	3604	2112.987017475974	5.724556313793
4	3605	2113.087964042936	3.770064850648
4	3608	2115.149340504696	0
4	3611	2117.669214367714	0
4	3614	2122.330683742636	4.164640757632
4	3617	2126.312210343621	0
4	3620	2127.480101272737	0
4	3623	2129.367398298025	0
4	3626	2130.20894123368	0.527411540305
4	3629	2133.065582701425	0
4	3632	2133.947848172792	0.182634456364
4	3635	2134.913801197411	0
4	3638	2138.342373128112	2.008410332293
4	3641	2139.656265019985	1.273429451419
4	3644	2142.050467774643	2.322636392596
4	3653	2146.043970671835	3.861728606699
4	3654	2146.158167777898	1.552359450575
4	3657	2149.039675982718	3.573461649419
4	3658	2150.170017375827	4.505832983909
4	3661	2151.130815787644	2.847120497658
4	3666	2153.645895494544	2.622328375725
4	3667	2153.741825154418	2.44148313074
4	3668	2154.998847997165	2.582349277883
4	3671	2156.458829267053	0
4	3676	2157.43949143799	0.548413647181
4	3677	2159.600417798583	2.42967995819
4	3680	2160.125261884928	0
4	3685	2162.434983992114	2.119836455786
4	3686	2162.548399144663	0.893098704277
4	3689	2164.172560625881	0
4	3692	2168.141993958905	0
4	3699	2169.148412270301	0.801091797372
4	3706	2171.702190838223	2.625946641501
4	3707	2172.203173731721	3.107007565273
4	3708	2172.506469923461	3.351719081829
4	3715	2173.689677143836	3.836628146629
4	3716	2173.758203316831	2.348340120296
4	3717	2175.194250100485	2.523704002144
4	3718	2175.25254587385	1.8368187357
4	3719	2175.652181207647	2.066039122738
4	3722	2175.754413093709	0.083448258206
4	3725	2176.475091729538	0.067992826453
4	3731	2177.985747929146	0
4	3734	2178.769175254164	0
4	3743	2184.459929526471	5.545513131809
4	3744	2185.886144107747	5.456133056462
4	3745	2186.258145128096	5.689439697544
4	3746	2186.311994416728	4.004475737872
4	3749	2191.750875196225	0
4	3755	2198.68276874378	1.636487547495
4	3758	2198.934472329165	0.212222568792
4	3765	2206.276254096687	6.099081659458
4	3768	2207.85798072294	7.480760543952
4	3769	2208.051455261005	6.396509274103
4	3770	2208.126530578993	0.856751873304
4	3773	2209.21901643843	0
4	3776	2209.353295124652	0
4	3779	2214.042058068324	0
4	3792	2227.071288079485	12.063308639606
4	3793	2227.247037641218	2.825978341873
4	3802	2230.726915833893	5.775103899711
4	3803	2230.8295891255	1.870979358511
4	3804	2231.293745084487	2.044947336425
4	3805	2231.964457298599	2.476817357502
4	3806	2232.508417378877	2.056576897194
4	3811	2233.891625079279	1.06997511403
4	3814	2234.965027843763	1.110470969936
4	3817	2236.547994829379	1.761769825277
4	3818	2236.880828869593	1.151245175092
4	3823	2237.994235730376	1.106226320221
4	3824	2240.435343206478	3.101066638567
4	3827	2246.417880056849	0
4	3830	2249.578483750904	0
4	3833	2250.30595036586	0
4	3836	2252.481133993293	0
4	3839	2256.460435827423	0
4	3842	2260.841757879475	0
4	3845	2264.174442185776	0
4	3848	2264.472764549304	0
4	3851	2268.351806120704	1.554919227123
4	3854	2270.185573209357	0
4	3857	2271.320892791125	0.991097666113
4	3860	2278.68576017162	0
4	3866	2281.76107366901	0
4	3869	2281.941167442549	0
4	3874	2283.435855384617	0.905849813252
4	3875	2284.770003964088	1.929598417949
4	3878	2286.938312821668	0
4	3883	2292.542934325833	3.883018548476
4	3890	2297.212027498668	6.139719344692
4	3891	2297.63122875033	1.761910365799
4	3892	2297.826069434783	1.937810383909
4	3893	2298.656009361428	2.25911274356
4	3898	2300.012213317782	1.351482778458
4	3907	2301.399930303972	2.070966891214
4	3910	2304.833210903187	4.469508012393
4	3911	2305.463123543213	4.740920338092
4	3912	2306.170916958379	5.178757503094
4	3915	2308.546067202674	7.445161318739
4	3916	2308.865576327456	7.128174570702
4	3921	2310.500464914308	4.0843917136
4	3922	2311.075214598725	1.163031833852
4	3923	2311.543457704742	1.384859906861
4	3926	2314.386044338566	0
4	3929	2315.80187880783	0
4	3932	2316.442515462693	0
4	3935	2319.894720745297	0
4	3942	2323.618227752367	2.679474372126
4	3943	2324.332323078729	2.757202314875
4	3944	2324.487434273463	1.786516033213
4	3956	2334.577343896308	7.208565136285
4	3959	2336.882941233333	7.319520824471
4	3962	2338.337136449132	4.206895638161
4	3963	2338.689543437193	4.37906433674
4	3968	2341.370373653718	5.641306932975
4	3969	2341.479553645013	3.82959736699
4	3970	2341.664552384275	2.669793057368
4	3971	2343.002590087696	1.995141738655
4	3974	2344.908395293166	0
4	3977	2349.073053504342	0
4	3982	2351.318111084511	2.110306312363
4	3987	2353.937359599471	3.763162453396
4	3990	2354.143164349149	1.455000526282
4	3993	2354.636565509495	1.555836998827
4	3996	2356.104332938775	1.970770486559
4	3997	2356.928839826949	2.377925899144
4	3998	2358.338448429929	2.672342669061
4	4003	2359.715324303099	1.005140236665
4	4004	2359.763938758749	0.678872092046
4	4017	2372.698603190795	9.315766424691
4	4022	2373.953743325738	9.005431266297
4	4025	2374.632741452777	4.147064488419
4	4026	2374.839032548807	1.279240189633
4	4027	2375.035541979175	1.420361006212
4	4028	2377.247858449726	3.219663200673
4	4031	2377.84908616576	0
4	4034	2378.852616910196	0
4	4039	2379.576822546468	0.183976293959
4	4040	2379.832434142864	0.309948432962
4	4043	2380.363643208454	0.05884047171
4	4046	2382.709349636256	0
4	4062	2396.475871631733	8.449539896831
4	4063	2396.938535184918	8.121443307155
4	4066	2397.323141519814	7.417233260436
4	4069	2398.455196221457	8.292488582934
4	4070	2399.640287724717	5.387179333532
4	4071	2400.098731273623	4.22950374516
4	4078	2401.25015465235	4.195545558723
4	4079	2401.519517477531	4.079752324978
4	4084	2404.293479315491	3.988366380178
4	4087	2405.54458268544	4.726409661252
4	4088	2406.996044140221	5.982394523785
4	4093	2408.417204075948	6.880783981707
4	4094	2408.945238768297	4.76494460239
4	4095	2409.051045384873	4.151720541038
4	4096	2409.278957548815	2.152046829477
4	4097	2410.802233874805	2.821500864086
4	4100	2414.671466733823	1.687834870321
4	4105	2417.64525405106	2.177075721006
4	4106	2419.182714326386	2.932462620991
4	4116	2428.323044603587	5.593903269075
4	4119	2429.21426650092	6.298829792476
4	4124	2434.51111427216	11.426050895771
4	4129	2441.693118966685	12.611953329501
4	4132	2443.295298653561	10.21210365259
4	4135	2443.780062582571	9.577859246658
4	4140	2445.448310174321	8.729724394409
4	4141	2445.540554867474	7.485182925438
4	4142	2446.31530906353	3.216878417101
4	4147	2448.594707483831	5.031038953784
4	4148	2448.732903424958	4.426942158009
4	4149	2448.811041536561	3.923175502372
4	4150	2449.213707813677	2.333795923669
4	4151	2450.152769221954	2.016037956762
4	4154	2454.463154492804	0
4	4157	2456.264497185827	0
4	4160	2460.244304236631	0
4	4163	2460.444928034158	0
4	4166	2461.665539601117	0
4	4169	2468.133653294601	0
4	4174	2469.076093731715	0.367793470119
4	4175	2469.128106648132	0.295824265699
4	4178	2473.382153414736	0
4	4181	2480.089667184608	0
4	4184	2482.256762738289	0
4	4187	2482.682605727301	0
4	4190	2485.719935083661	0
4	4193	2487.532070076359	0.255323273113
4	4196	2488.002490433361	0.44942618412
4	4199	2491.376428641068	1.257752154622
4	4202	2492.246131129541	0
4	4205	2492.599314657572	0.126166430706
4	4210	2494.213782734461	1.410347239236
4	4211	2494.903068589201	1.189915132848
4	4214	2495.20227014481	0.234797420924
4	4217	2497.479640731705	0
5	611	353.494627335739	179
5	614	354.065421188467	180
5	615	354.213921543642	181
5	616	354.892037448185	182
5	617	355.020638459746	183
5	618	355.733600191666	184
5	621	358.627540071193	185
5	624	360.129211094717	186
5	627	360.439922628013	187
5	630	362.956207893792	188
5	637	364.996427897788	189
5	638	365.483663653377	190
5	639	366.241246482749	191
5	644	370.980293991205	192
5	647	373.144151868252	193
5	648	373.723995757651	194
5	651	374.653030002704	195
5	654	376.1361082049	196
5	657	377.39834680482	197
5	660	380.999307411669	198
5	663	381.580222998829	199
5	666	383.163061693665	200
5	669	385.472374935414	201
5	672	386.436327234834	202
5	675	393.21764018817	203
5	680	394.719511624022	204
5	683	395.168365193538	205
5	686	395.577000196712	206
5	689	395.966283525601	207
5	690	396.09450241791	208
5	693	397.238849799015	209
5	696	398.938149171245	210
5	699	403.485817172919	211
5	702	404.618444341637	212
5	705	405.973017370976	213
5	708	406.735766374648	214
5	713	412.308238470756	215
5	714	412.498433517014	216
5	719	418.596737831873	217
5	720	418.856204292512	218
5	738	428.342429701751	219
5	741	430.335103141809	220
5	742	431.763072531661	221
5	743	431.857974814657	222
5	744	432.260010067129	223
5	747	433.92211975907	224
5	748	434.209068745235	225
5	749	434.956457978838	226
5	750	436.00339686294	227
5	753	437.62178273639	228
5	756	444.773671004017	229
5	762	448.250688302485	230
5	765	450.985473849697	231
5	768	454.802233550836	232
5	775	457.0371565729	233
5	776	457.491900223098	234
5	779	457.823791433026	235
5	780	458.444423456448	236
5	783	459.768311782783	237
5	796	465.654348416305	238
5	797	465.86151562061	239
5	798	465.99377983938	240
5	803	470.075380883748	241
5	804	472.995059208712	242
5	805	473.09439315145	243
5	806	473.856672390927	244
5	811	474.38242372026	245
5	812	474.600650495413	246
5	813	474.74327830296	247
5	822	479.468681374132	248
5	823	479.514136027049	249
5	824	479.749476187535	250
5	827	480.984180177828	251
5	837	484.944449725214	252
5	840	486.88856444795	253
5	843	487.45278530398	254
5	844	488.938429799959	255
5	845	489.174254568247	256
5	846	490.606459640975	257
5	849	491.954173804823	258
5	854	493.339077083555	259
5	855	494.204164685397	260
5	858	494.808029354812	261
5	863	497.214744559291	262
5	866	498.207921847919	263
5	867	500.091835881667	264
5	870	504.294077785686	265
5	879	507.209099251515	266
5	880	507.326469723744	267
5	881	508.124672567566	268
5	882	508.28693207619	269
5	885	509.358600406682	270
5	890	511.09182999861	271
5	893	513.045442902219	272
5	894	513.060149006488	273
5	897	517.472965021599	274
5	900	518.960425915432	275
5	905	522.492697329853	276
5	906	522.525387951036	277
5	909	532.300813237023	278
5	912	535.342499146784	279
5	915	536.730405662224	280
5	921	541.330505467695	281
5	949	569.353626321731	282
5	950	569.413939101384	283
5	953	570.249300072203	284
5	954	570.702078977718	285
5	957	574.018472485379	286
5	958	574.576869588708	287
5	959	574.786291471849	288
5	960	575.049698939029	289
5	961	575.580442388174	290
5	966	579.014693935311	291
5	971	580.350705849411	292
5	974	581.698918730853	293
5	977	584.687898194664	294
5	982	585.274462922806	295
5	985	585.476366231992	296
5	988	586.165210999494	297
5	989	586.671931205561	298
5	990	586.915136661775	299
5	991	588.109815713156	300
5	994	589.389927547297	301
5	999	590.9889856806	302
5	1000	592.829096172608	303
5	1001	594.023431011957	304
5	1002	594.055214501243	305
5	1005	595.53263126535	306
5	1010	597.099781389029	307
5	1013	599.676458502185	308
5	1018	601.893688099684	309
5	1019	602.384345802963	310
5	1020	602.587951365043	311
5	1023	604.720895371661	312
5	1026	604.839951577267	313
5	1029	607.433538224693	314
5	1032	609.755394204912	315
5	1035	613.587577425272	316
5	1044	616.244326092049	317
5	1045	616.998350245821	318
5	1048	617.938728284131	319
5	1051	618.351526389301	320
5	1052	619.524650734615	321
5	1053	620.249540878001	322
5	1056	623.247643122333	323
5	1061	628.127412281445	324
5	1064	629.109484335584	325
5	1065	629.880308616982	326
5	1068	630.617192504022	327
5	1071	632.814838999856	328
5	1076	634.194648403806	329
5	1079	635.645404741728	330
5	1080	635.662077181338	331
5	1083	638.190075432028	332
5	1086	638.316114899727	333
5	1097	649.248343736893	334
5	1098	652.098260671483	335
5	1103	656.260128999221	336
5	1106	657.100800054958	337
5	1107	658.422874991873	338
5	1112	666.109192853627	339
5	1126	671.834991916293	340
5	1127	671.92700045191	341
5	1137	676.485340085578	342
5	1138	678.060238410218	343
5	1139	678.891866033661	344
5	1140	679.292628064655	345
5	1141	679.822959211541	346
5	1146	683.413294737956	347
5	1147	685.054400083717	348
5	1148	685.539567703821	349
5	1149	685.682920274764	350
5	1158	686.730926103613	351
5	1159	686.762791855717	352
5	1160	686.859153679895	353
5	1167	690.17925310212	354
5	1170	691.372278602198	355
5	1180	697.949145331899	356
5	1181	698.319575719218	357
5	1184	700.842452633786	358
5	1185	702.745513448915	359
5	1188	703.82651922884	360
5	1195	705.176746224087	361
5	1196	705.501467358006	362
5	1197	706.710934819455	363
5	1208	710.156610416843	364
5	1209	710.734988832913	365
5	1210	711.417791260957	366
5	1211	712.095975196957	367
5	1212	712.172631985935	368
5	1217	713.128280526321	369
5	1218	713.211180632238	370
5	1223	716.670303358338	371
5	1226	717.2006357336	372
5	1227	717.426465714932	373
5	1236	723.641799304316	374
5	1250	736.725705203758	375
5	1251	737.00890297886	376
5	1252	737.296729563591	377
5	1253	738.747188680343	378
5	1254	740.566934074411	379
5	1262	746.180274628162	380
5	1263	746.75656462159	381
5	1270	751.570104416739	382
5	1273	754.411448291761	383
5	1274	754.522160981777	384
5	1275	755.601886137629	385
5	1280	758.641483477047	386
5	1281	758.668452271517	387
5	1347	797.791475766	388
5	1356	801.992786886112	389
5	1361	804.270332000012	390
5	1364	805.387953058402	391
5	1367	807.61373730188	392
5	1370	807.952894253697	393
5	1373	808.125896731153	394
5	1374	808.35927218286	395
5	1375	809.513544927111	396
5	1376	810.838812325729	397
5	1377	811.045449318824	398
5	1378	813.223157396093	399
5	1385	818.678420004219	400
5	1386	818.786780643631	401
5	1389	820.379354537673	402
5	1390	820.652968051518	403
5	1391	821.332879037654	404
5	1392	821.582308809527	405
5	1397	823.352612263351	406
5	1398	824.148835585636	407
5	1401	824.803565619561	408
5	1404	825.983571867002	409
5	1409	828.801622243212	410
5	1412	829.16063397773	411
5	1419	830.701404350902	412
5	1420	830.724904868346	413
5	1421	831.754960803668	414
5	1426	834.255031807217	415
5	1427	834.378038446395	416
5	1428	835.13827490251	417
5	1429	835.509325306649	418
5	1432	836.431127901379	419
5	1433	836.471187015449	420
5	1436	838.231301228865	421
5	1437	840.141044336886	422
5	1446	843.40048716142	423
5	1449	843.949573557195	424
5	1454	845.808499618413	425
5	1457	846.613960017636	426
5	1458	847.259069921543	427
5	1459	849.279721664515	428
5	1460	850.379482909501	429
5	1461	851.045853757304	430
5	1462	851.166854202345	431
5	1463	851.344890785956	432
5	1464	852.088302747967	433
5	1465	852.153084238707	434
5	1519	893.304446832534	435
5	1520	894.733086257608	436
5	1523	895.783913121576	437
5	1524	897.646708043169	438
5	1525	897.927593964303	439
5	1530	898.98410274323	440
5	1531	900.470039619881	441
5	1532	900.935462037623	442
5	1533	901.251533911403	443
5	1534	901.272442950343	444
5	1539	902.084836693005	445
5	1542	904.872525120793	446
5	1543	905.780752995964	447
5	1544	905.827408207314	448
5	1545	907.876874870222	449
5	1546	908.059444941462	450
5	1547	908.2988052345	451
5	1552	911.176832285977	452
5	1553	911.202586097776	453
5	1565	920.886566199352	454
5	1566	921.246523234328	455
5	1567	921.50007988373	456
5	1568	921.72214735405	457
5	1575	922.9567430273	458
5	1576	923.113629261491	459
5	1577	923.261587678513	460
5	1580	924.707608649734	461
5	1583	926.607894422601	462
5	1588	927.943893668426	463
5	1589	928.729387208653	464
5	1592	930.438286698577	465
5	1600	933.504392561682	466
5	1601	933.536124938071	467
5	1602	933.844255152583	468
5	1605	935.664801577083	469
5	1613	938.222029067336	470
5	1614	939.054247096463	471
5	1615	939.180147643147	472
5	1618	939.349195498335	473
5	1623	941.871321824542	474
5	1626	942.269773665352	475
5	1629	943.534778050391	476
5	1630	943.930018890691	477
5	1633	945.157461462626	478
5	1634	945.525913766343	479
5	1640	948.251616602339	480
5	1641	949.17518545599	481
5	1642	949.895429491436	482
5	1643	951.161702603674	483
5	1644	951.944429352782	484
5	1649	955.374000270175	485
5	1650	957.291713004311	486
5	1651	957.638262329488	487
5	1654	957.786584712216	488
5	1657	959.285253051578	489
5	1677	973.187673204395	490
5	1680	975.481397010074	491
5	1681	976.470262929371	492
5	1684	977.724684598641	493
5	1685	978.075875076882	494
5	1686	979.014704611361	495
5	1687	980.299098818855	496
5	1690	981.693653876335	497
5	1691	981.992002063765	498
5	1696	983.313954391601	499
5	1697	983.829897928051	500
5	1698	984.281483566242	501
5	1699	984.299307665134	502
5	1702	986.98245744661	503
5	1703	987.242643683862	504
5	1704	987.442306115166	505
5	1705	988.678231951547	506
5	1710	992.616010370632	507
5	1711	992.729410952528	508
5	1714	993.85208949985	509
5	1715	994.594615417741	510
5	1716	994.649934494089	511
5	1719	996.111275327091	512
5	1722	997.266287699197	513
5	1725	999.167693361094	514
5	1726	1000.492356841445	515
5	1729	1000.793148950921	516
5	1734	1001.073570963666	517
5	1735	1002.120289389431	518
5	1740	1003.705009389059	519
5	1743	1004.467324152924	520
5	1744	1004.541958556728	521
5	1745	1004.908873503003	522
5	1746	1005.598089057971	523
5	1749	1006.212504473352	524
5	1750	1006.419719894546	525
5	1753	1010.069732194881	526
5	1756	1012.034388678	527
5	1757	1013.850488682604	528
5	1758	1014.011753340401	529
5	1759	1014.155520547254	530
5	1760	1014.729470797121	531
5	1761	1015.204885217066	532
5	1764	1018.498534218555	533
5	1767	1019.200757714074	534
5	1770	1020.873540627495	535
5	1775	1023.622344753809	536
5	1778	1024.109764175367	537
5	1779	1024.669651760512	538
5	1782	1030.324001767564	539
5	1789	1033.921402278597	540
5	1790	1034.009621241493	541
5	1793	1035.16191360601	542
5	1794	1037.321894794552	543
5	1797	1039.01988949503	544
5	1809	1043.704385146391	545
5	1812	1045.783937955644	546
5	1821	1049.863281739256	547
5	1822	1049.89621733417	548
5	1823	1052.64489686624	549
5	1828	1054.968284461345	550
5	1835	1056.94976404883	551
5	1838	1057.872062950685	552
5	1839	1058.113125451281	553
5	1840	1058.508537784718	554
5	1841	1059.20282019453	555
5	1849	1063.550553295505	556
5	1850	1063.906645643464	557
5	1857	1065.092506853969	558
5	1858	1065.596183371854	559
5	1861	1066.344013237836	560
5	1862	1067.495664409567	561
5	1863	1067.819608909981	562
5	1864	1068.106102531864	563
5	1865	1068.37668779093	564
5	1866	1069.287239003344	565
5	1869	1072.25368671784	566
5	1890	1083.194024087824	567
5	1893	1084.023462918406	568
5	1898	1084.412507265626	569
5	1899	1084.555912673909	570
5	1906	1087.18103045418	571
5	1907	1087.508890260664	572
5	1910	1088.054292200449	573
5	1911	1088.666433148173	574
5	1912	1089.20723789759	575
5	1915	1089.508669445486	576
5	1916	1089.941897057921	577
5	1917	1093.252134143213	578
5	1924	1095.107670199727	579
5	1925	1095.325088733019	580
5	1930	1097.104970421398	581
5	1933	1098.444796154519	582
5	1934	1098.68700891044	583
5	1937	1100.082840228418	584
5	1940	1101.198428875312	585
5	1943	1102.062474250926	586
5	1946	1103.611404253372	587
5	1947	1104.384558873546	588
5	1948	1105.662367807436	589
5	1949	1107.097243686688	590
5	1950	1107.18955247376	591
5	1953	1107.954982185914	592
5	1960	1110.993287349074	593
5	1965	1112.958294682346	594
5	1973	1115.651975583325	595
5	1976	1116.672547925858	596
5	1979	1118.647198416206	597
5	1982	1119.367397979115	598
5	1983	1119.728820060351	599
5	1984	1120.076216454489	600
5	1989	1122.75176258102	601
5	1990	1123.066556889105	602
5	1991	1123.527205423898	603
5	1994	1123.817885608685	604
5	1995	1123.906394134506	605
5	2000	1126.337743301837	606
5	2001	1126.356994991506	607
5	2004	1127.125539718043	608
5	2007	1128.285289419694	609
5	2010	1128.846818140856	610
5	2020	1137.202319546895	611
5	2021	1137.560158572016	612
5	2022	1137.571710809994	613
5	2025	1137.828368974576	614
5	2028	1139.768879237211	615
5	2031	1140.072260697555	616
5	2036	1148.704558095398	617
5	2039	1149.881280281828	618
5	2040	1150.243378638672	619
5	2045	1151.28372307296	620
5	2061	1158.224519809165	621
5	2062	1158.358319625021	622
5	2072	1162.543891219543	623
5	2075	1163.710393103591	624
5	2084	1167.627886135365	625
5	2085	1168.025566438153	626
5	2086	1169.010197193467	627
5	2087	1169.176954105994	628
5	2088	1170.322240047349	629
5	2106	1185.957749558792	630
5	2107	1186.436696784003	631
5	2108	1187.127771572858	632
5	2111	1188.185342950891	633
5	2112	1188.370080790817	634
5	2117	1189.185343309262	635
5	2118	1189.461651010384	636
5	2119	1189.866320475489	637
5	2122	1191.105416307322	638
5	2125	1191.787179401997	639
5	2126	1193.16944221735	640
5	2127	1193.645824080541	641
5	2128	1193.710049707375	642
5	2129	1193.867634541026	643
5	2130	1194.548593671526	644
5	2135	1196.388150858526	645
5	2136	1196.402677578588	646
5	2139	1197.875724214529	647
5	2142	1199.244581187905	648
5	2147	1202.726257883979	649
5	2158	1206.410607846329	650
5	2161	1207.881205205465	651
5	2162	1208.176541972279	652
5	2163	1208.486699940848	653
5	2164	1209.054386941246	654
5	2165	1210.185990380589	655
5	2166	1210.324708470562	656
5	2169	1212.606950813355	657
5	2174	1214.228515166334	658
5	2175	1214.399629136871	659
5	2178	1215.696381877804	660
5	2181	1217.512891621334	661
5	2184	1219.156902845171	662
5	2189	1220.554281642925	663
5	2190	1221.230151095792	664
5	2193	1223.91560911532	665
5	2198	1225.514486275991	666
5	2199	1225.715410643068	667
5	2202	1226.665563613745	668
5	2205	1228.428497740928	669
5	2208	1230.136208821125	670
5	2211	1230.432078878564	671
5	2219	1238.039364546052	672
5	2220	1238.341783891266	673
5	2223	1238.978422647396	674
5	2226	1241.434604357849	675
5	2231	1244.322417481822	676
5	2232	1245.06090753633	677
5	2235	1246.225374401267	678
5	2238	1249.051875796922	679
5	2245	1254.67547610724	680
5	2246	1255.664137474776	681
5	2249	1256.113134620706	682
5	2252	1256.467604626501	683
5	2257	1257.371716234012	684
5	2258	1257.594731613228	685
5	2259	1259.135833798138	686
5	2262	1262.396765215687	687
5	2265	1266.196358663518	688
5	2268	1266.72833591765	689
5	2271	1268.399073239369	690
5	2274	1269.785833613386	691
5	2277	1274.622263501914	692
5	2280	1275.901424580938	693
5	2287	1281.035679905836	694
5	2288	1281.857270383535	695
5	2289	1281.912094204526	696
5	2292	1283.109412134477	697
5	2295	1284.580592512418	698
5	2298	1285.273653476288	699
5	2310	1298.15893498314	700
5	2311	1298.731630643539	701
5	2318	1300.625476571903	702
5	2319	1301.669631033816	703
5	2320	1302.416284904349	704
5	2321	1302.474264101452	705
5	2322	1303.59195627079	706
5	2331	1311.357992346544	707
5	2332	1311.390127711485	708
5	2337	1313.441758796596	709
5	2342	1314.509250789369	710
5	2343	1316.363598477213	711
5	2346	1319.360748081206	712
5	2347	1319.79649595089	713
5	2348	1320.130130679741	714
5	2349	1320.22596338621	715
5	2352	1322.426799158262	716
5	2355	1324.150744042065	717
5	2358	1326.468054334967	718
5	2361	1329.733799477983	719
5	2366	1333.487606434581	720
5	2367	1333.629559194701	721
5	2374	1335.921980205883	722
5	2375	1336.67182831658	723
5	2378	1339.424873996122	724
5	2379	1340.713175849212	725
5	2382	1350.951826559232	726
5	2385	1352.576828321365	727
5	2392	1354.74164678116	728
5	2393	1355.765131260955	729
5	2432	1378.746243097063	730
5	2433	1382.314252247079	731
5	2436	1383.201244312297	732
5	2439	1383.211537432503	733
5	2440	1384.597697116684	734
5	2443	1385.080922140225	735
5	2444	1386.063344251084	736
5	2447	1389.005786137671	737
5	2450	1392.719408922928	738
5	2455	1393.700853624922	739
5	2458	1396.972807814591	740
5	2463	1398.148878711241	741
5	2464	1398.411443972571	742
5	2465	1398.723369284782	743
5	2466	1398.955708285379	744
5	2467	1399.460336110847	745
5	2468	1400.554525290435	746
5	2473	1402.601860351723	747
5	2474	1402.673479018579	748
5	2477	1402.837277107875	749
5	2478	1403.78327584566	750
5	2479	1405.027311594519	751
5	2480	1405.329859124694	752
5	2481	1405.357214867448	753
5	2482	1405.40370943249	754
5	2573	1469.465342021983	755
5	2574	1469.907567384024	756
5	2575	1470.066957183129	757
5	2589	1472.879823455978	758
5	2590	1473.127781104671	759
5	2591	1473.703482466308	760
5	2594	1475.0598276672	761
5	2595	1476.596135175804	762
5	2598	1478.961639488673	763
5	2599	1479.829994446461	764
5	2600	1480.514609900959	765
5	2601	1481.914894645536	766
5	2602	1482.465422550097	767
5	2603	1482.519393683246	768
5	2614	1484.711160007502	769
5	2615	1484.813884270358	770
5	2620	1485.444951765594	771
5	2623	1487.19588294175	772
5	2624	1488.31455361194	773
5	2625	1490.414785203306	774
5	2626	1490.656635795672	775
5	2627	1491.032996810098	776
5	2628	1492.077135206338	777
5	2629	1492.259556539672	778
5	2630	1492.28687122794	779
5	2631	1493.289740346426	780
5	2675	1525.490648092197	781
5	2678	1527.587588867971	782
5	2686	1531.460790024457	783
5	2687	1531.839567757826	784
5	2688	1533.110336513645	785
5	2689	1533.384334978659	786
5	2690	1533.821903205305	787
5	2691	1533.92018352551	788
5	2692	1533.929520285262	789
5	2695	1535.509273083106	790
5	2696	1535.947666269338	791
5	2697	1536.12006851889	792
5	2698	1537.235126663566	793
5	2699	1538.258222509555	794
5	2704	1540.840792289487	795
5	2705	1541.877815140041	796
5	2706	1542.615521199641	797
5	2707	1542.877385075198	798
5	2708	1542.936369129553	799
5	2711	1544.428125936089	800
5	2712	1544.647281220693	801
5	2713	1544.803078984621	802
5	2714	1545.940381981528	803
5	2715	1546.805589951014	804
5	2716	1546.926863231863	805
5	2717	1547.404142773214	806
5	2718	1547.985402205557	807
5	2719	1548.578007552815	808
5	2720	1549.719086751086	809
5	2721	1549.922878475061	810
5	2724	1551.396511232656	811
5	2729	1553.488721437243	812
5	2730	1553.649477179084	813
5	2731	1553.886869005797	814
5	2734	1556.306520279702	815
5	2735	1556.427261522275	816
5	2740	1558.664629651899	817
5	2741	1559.300432642792	818
5	2742	1559.4490651719	819
5	2745	1563.098909573991	820
5	2771	1582.435208415862	821
5	2772	1583.04263424825	822
5	2773	1583.117531518178	823
5	2774	1583.201499214962	824
5	2775	1583.813560783208	825
5	2776	1584.720236406221	826
5	2777	1584.752703936001	827
5	2778	1587.467054576877	828
5	2779	1587.715484287494	829
5	2784	1588.423074800194	830
5	2787	1588.905108000815	831
5	2788	1589.222585081723	832
5	2789	1590.954616537641	833
5	2792	1592.878143273186	834
5	2799	1594.938823952748	835
5	2804	1597.882485021887	836
5	2807	1598.579996557672	837
5	2808	1599.406024488587	838
5	2809	1600.320940871855	839
5	2816	1601.572385763381	840
5	2817	1602.325418408807	841
5	2820	1603.306556423667	842
5	2821	1604.342945223751	843
5	2822	1604.768430554517	844
5	2823	1605.253423158287	845
5	2824	1606.149959332003	846
5	2827	1606.72357080103	847
5	2828	1607.750128003849	848
5	2829	1608.553330393058	849
5	2830	1608.592455864946	850
5	2833	1609.381379120559	851
5	2838	1611.952671963083	852
5	2839	1614.262597658969	853
5	2842	1614.786455618479	854
5	2843	1615.891902016517	855
5	2859	1623.312972493273	856
5	2860	1624.006817934051	857
5	2863	1625.269823851644	858
5	2864	1625.365810795425	859
5	2865	1626.038139182289	860
5	2868	1626.342013231094	861
5	2872	1628.595167523833	862
5	2875	1629.276988168941	863
5	2876	1632.577859351766	864
5	2891	1652.500498722404	865
5	2892	1653.282156420564	866
5	2893	1653.500791330249	867
5	2894	1653.752492447105	868
5	2895	1655.407044911171	869
5	2896	1656.024574262284	870
5	2897	1657.455317230235	871
5	2898	1658.066764318411	872
5	2899	1658.186889253517	873
[...]
8	2305	1296.941935689288	2
8	2307	1297.555543143468	3
8	2309	1298.04384932723	4
8	2313	1298.901703699515	3
8	2315	1298.939234200584	4
8	2317	1300.361870727337	5
8	2324	1309.774923016265	1
8	2326	1310.841966988047	2
8	2328	1311.084709062087	3
8	2330	1311.179651542573	4
8	2334	1312.563548783783	3
8	2336	1312.96105222407	4
8	2339	1313.722828477643	4
8	2341	1314.424357485157	5
8	2345	1319.053518063051	4
8	2351	1322.220880441525	1
8	2354	1323.735313042791	1
8	2357	1325.838226409206	1
8	2360	1328.984603248003	1
8	2363	1331.138095286272	1
8	2365	1331.349732832761	2
8	2369	1334.277731602801	1
8	2371	1334.692559372049	2
8	2373	1335.476641407516	3
8	2377	1338.567597017289	2
8	2381	1350.86629690113	1
8	2384	1352.241211647073	1
8	2387	1353.349011077761	1
8	2389	1353.646032069876	2
8	2391	1353.91693546428	3
8	2397	1356.203424177205	2
8	2399	1358.950534900893	3
8	2401	1359.529739073577	4
8	2403	1360.372405606047	5
8	2405	1361.834034872879	6
8	2407	1363.93073164538	7
8	2409	1365.572213429028	8
8	2411	1365.701361961398	9
8	2413	1367.263134662109	10
8	2415	1367.548567168563	11
8	2417	1368.165800034991	12
8	2419	1369.76991931052	13
8	2421	1369.911446626179	14
8	2426	1375.234858687119	15
8	2428	1376.824770125697	16
8	2431	1377.74620152222	17
8	2435	1382.540080367427	16
8	2438	1383.209887561985	16
8	2442	1384.946471186132	15
8	2446	1386.421616372761	14
8	2449	1390.805167144422	14
8	2452	1393.395725026822	14
8	2454	1393.632044870462	15
8	2457	1395.691209992187	15
8	2460	1397.089983757408	15
8	2462	1397.713891066458	16
8	2470	1400.853842580105	11
8	2472	1401.253343713388	12
8	2476	1402.792982371912	11
8	2486	1407.382762860633	6
8	2488	1411.84196546752	7
8	2492	1415.520006258872	8
8	2495	1418.569694647997	9
8	2497	1420.336340385223	10
8	2499	1421.56627388021	11
8	2503	1422.706690541425	12
8	2509	1425.056772154178	13
8	2511	1427.65547371891	14
8	2513	1427.674992688844	15
8	2515	1427.78826347014	16
8	2518	1428.649487470532	17
8	2522	1430.304264411636	18
8	2524	1430.510461234084	19
8	2526	1431.099954001823	20
8	2528	1433.052021606095	21
8	2530	1433.184156086291	22
8	2532	1433.991220429157	23
8	2534	1435.842568711429	24
8	2536	1435.992689363652	25
8	2539	1440.095365012102	26
8	2541	1440.347245054267	27
8	2543	1440.453925248483	28
8	2545	1443.892577848632	29
8	2547	1445.707630882201	30
8	2549	1447.696585335376	31
8	2551	1448.602594612758	32
8	2553	1453.293881054575	33
8	2558	1456.903753334471	34
8	2560	1458.853041995688	35
8	2565	1462.633717087846	36
8	2567	1463.004296892661	37
8	2569	1464.608370923989	38
8	2579	1470.682026329981	36
8	2581	1471.422537027242	37
8	2584	1471.520715136257	38
8	2586	1472.590417819541	39
8	2588	1472.831531825189	40
8	2593	1474.448163485041	38
8	2597	1476.707687517413	37
8	2605	1482.992862502791	32
8	2607	1483.493445292964	33
8	2609	1483.584942827202	34
8	2611	1484.368565104248	35
8	2613	1484.621565487045	36
8	2617	1484.879974712173	35
8	2619	1485.078526709273	36
8	2622	1486.83423595915	36
8	2637	1496.378484739874	28
8	2639	1498.675644029425	29
8	2641	1501.670577062567	30
8	2643	1502.009729524491	31
8	2645	1502.673752227845	32
8	2647	1505.37022741846	33
8	2649	1506.143115420099	34
8	2652	1507.518181275317	35
8	2654	1510.135508835373	36
8	2656	1511.897176679731	37
8	2660	1516.544994978946	38
8	2662	1516.670944868768	39
8	2664	1518.105072418133	40
8	2666	1520.025446115327	41
8	2668	1520.451723565183	42
8	2670	1522.589850926365	43
8	2674	1523.601135516167	44
8	2677	1527.517495798664	44
8	2682	1529.541073938984	44
8	2685	1531.225831333458	45
8	2694	1535.079825025876	39
8	2701	1539.777450189296	35
8	2703	1540.402987807245	36
8	2710	1543.988537710523	32
8	2723	1549.968162800489	22
8	2726	1551.644716835932	22
8	2728	1552.407702118545	23
8	2733	1556.161313268704	21
8	2737	1557.096200252435	20
8	2739	1557.149014983802	21
8	2744	1560.307919928501	19
8	2747	1563.710873079324	19
8	2753	1566.101033780025	20
8	2758	1572.605227006983	21
8	2760	1572.65806561447	22
8	2762	1573.120794314048	23
8	2764	1576.812658142333	24
8	2767	1578.500765027239	25
8	2769	1582.159128221757	26
8	2781	1588.338193821987	18
8	2783	1588.359173912924	19
8	2786	1588.901348052718	19
8	2791	1592.185751276485	17
8	2794	1593.469202104776	17
8	2796	1593.690430151986	18
8	2798	1593.849193201544	19
8	2801	1596.021147977273	19
8	2803	1596.634308072124	20
8	2806	1598.085069185319	20
8	2811	1600.337745962438	18
8	2813	1600.513205443848	19
8	2815	1600.655931290064	20
8	2819	1603.097024330956	19
8	2826	1606.381637341742	15
8	2832	1609.051885467807	12
8	2835	1611.496626816065	12
8	2837	1611.660847202092	13
8	2841	1614.4871110826	12
8	2847	1618.428361533525	11
8	2849	1618.464804889876	12
8	2851	1618.48458241078	13
8	2853	1618.67106647288	14
8	2855	1620.070230161296	15
8	2857	1621.802902093425	16
8	2862	1624.702973880304	15
8	2867	1626.201530135903	13
8	2874	1628.632569842195	12
8	2880	1635.658290068407	11
8	2885	1648.29236007607	12
8	2887	1649.62314986296	13
8	2890	1651.974692084769	14
8	2901	1658.272732230031	6
8	2905	1659.620764100576	7
8	2907	1659.894843815377	8
8	2913	1661.529815655959	6
8	2915	1662.463231934466	7
8	2917	1663.165005799135	8
8	2922	1667.426274148677	6
8	2924	1667.56273707657	7
8	2928	1671.609627659138	6
8	2936	1676.509183149027	1
8	2939	1683.603122714464	1
8	2942	1684.827159943257	1
8	2946	1688.97885047785	2
8	2948	1689.342605327287	3
8	2950	1689.55925646784	4
8	2952	1693.811029072213	5
8	2956	1696.33417201835	6
8	2958	1698.095864635978	7
8	2960	1698.717883892732	8
8	2962	1698.994593707449	9
8	2964	1699.546837883161	10
8	2967	1700.441751115647	11
8	2969	1701.576636425483	12
8	2973	1708.888092105866	13
8	2976	1712.164124700485	14
8	2979	1712.618501836141	15
8	2981	1712.686281596253	16
8	2986	1715.046914206044	14
8	2989	1715.650981019714	14
8	2991	1715.744857708363	15
8	2994	1716.385563190003	15
8	2996	1717.17645500248	16
8	2999	1718.090717201318	16
8	3001	1718.111303849165	17
8	3007	1720.39557716226	16
8	3011	1721.941601471996	16
8	3018	1724.295889405058	12
8	3025	1734.235220431717	11
8	3028	1734.286864281082	11
8	3033	1734.655406275403	9
8	3036	1736.437889779835	9
8	3040	1739.395346094634	8
8	3042	1739.480593054797	9
8	3050	1744.178865325622	7
8	3053	1744.69858710745	7
8	3056	1746.063792385288	7
8	3065	1751.252044477546	1
8	3068	1753.40199681228	1
8	3071	1755.798680100314	1
8	3073	1757.135180790977	2
8	3077	1758.38633078517	3
8	3079	1758.782623771842	4
8	3081	1760.123250863115	5
8	3087	1761.995003813367	6
8	3089	1763.987188930252	7
8	3091	1764.422372737416	8
8	3093	1767.811090804713	9
8	3096	1775.850665683982	10
8	3098	1776.384745180012	11
8	3100	1776.989988517842	12
8	3102	1779.949912493532	13
8	3104	1782.163822257592	14
8	3106	1783.786052434	15
8	3108	1784.46437524533	16
8	3110	1785.730422159286	17
8	3112	1787.439490025394	18
8	3114	1787.99215530012	19
8	3116	1788.269967455441	20
8	3118	1788.324604793728	21
8	3120	1789.068567533296	22
8	3122	1789.482746423478	23
8	3124	1789.556369309598	24
8	3126	1789.564551390825	25
8	3128	1789.781921229556	26
8	3130	1790.35609232183	27
8	3132	1791.804713188239	28
8	3134	1793.979635065187	29
8	3137	1795.730264492542	30
8	3140	1799.004751972684	31
8	3142	1799.011018610538	32
8	3152	1806.540590350121	25
8	3154	1806.902332948619	26
8	3158	1812.782354450075	25
8	3168	1817.84057095029	18
8	3172	1822.687901794761	17
8	3175	1822.878727652452	17
8	3179	1823.884394480366	16
8	3186	1830.146200649088	12
8	3188	1830.992356648278	13
8	3195	1840.110080258752	12
8	3198	1842.202829213372	12
8	3200	1842.436843892073	13
8	3208	1846.177640853046	8
8	3214	1850.680766510607	5
8	3216	1851.57582809468	6
8	3219	1852.447424079828	6
8	3227	1859.054569936142	1
8	3229	1861.592218065076	2
8	3231	1862.835955155613	3
8	3234	1864.827336875034	3
8	3239	1867.318081355456	1
8	3242	1868.320211592982	1
8	3246	1870.37774661952	2
8	3251	1876.7850148344	1
8	3253	1876.93160992606	2
8	3257	1877.852849124886	1
8	3259	1877.887599876321	2
8	3263	1880.267232770348	1
8	3265	1880.758390500578	2
8	3267	1883.058157794623	3
8	3269	1884.159093638325	4
8	3275	1890.701196202933	1
8	3278	1891.250809048825	1
8	3281	1894.107422282545	1
8	3284	1897.562053161619	1
8	3289	1899.789160786039	1
8	3291	1901.323145458467	2
8	3296	1906.486510416534	1
8	3299	1909.499362704093	1
8	3303	1912.173000113376	2
8	3305	1913.056846585202	3
8	3310	1918.729736662626	2
8	3314	1926.683791945982	1
8	3317	1928.006717118119	1
8	3320	1933.873083052737	1
8	3322	1934.98003025594	2
8	3326	1937.842140168594	1
8	3329	1939.885220337704	1
8	3332	1943.90321145502	1
8	3335	1944.742512784837	1
8	3338	1947.657059163938	1
8	3341	1948.771599467286	1
8	3343	1948.892045865791	2
8	3347	1951.680727912306	1
8	3350	1955.125897495886	1
8	3353	1955.38390646614	1
8	3356	1956.892618372873	1
8	3359	1957.960103962803	1
8	3362	1958.323798316542	1
8	3365	1960.737433324036	1
8	3368	1963.685577747143	1
8	3371	1965.087788308147	1
8	3376	1966.78397574434	1
8	3378	1967.96294098628	2
8	3383	1974.105400761121	1
8	3385	1974.690304599347	2
8	3390	1976.826493382784	2
8	3392	1976.842999309432	3
8	3394	1978.020127057899	4
8	3396	1980.346571282237	5
8	3398	1981.039590843561	6
8	3400	1983.456563519206	7
8	3405	1985.536183152405	6
8	3409	1988.923700206515	5
8	3411	1989.575617565939	6
8	3415	1992.015563350329	5
8	3422	1994.961316623893	1
8	3425	1996.489119760914	1
8	3427	1996.776932936698	2
8	3429	1997.140827311738	3
8	3431	1997.506329613737	4
8	3434	1999.123738341925	4
8	3436	1999.84088561511	5
8	3440	2000.756063900432	4
8	3446	2006.415997883191	1
8	3449	2011.906071793518	1
8	3451	2012.793904084463	2
8	3455	2014.148165949164	1
8	3458	2018.335975358183	1
8	3460	2018.481414267605	2
8	3464	2020.394807227831	1
8	3469	2022.967472416723	1
8	3472	2024.572048069146	2
8	3476	2025.311874444494	1
8	3478	2025.713083251609	2
8	3481	2028.307929890205	2
8	3484	2029.448512555175	2
8	3488	2031.595638965425	1
8	3490	2031.60902491847	2
8	3492	2031.873340820552	3
8	3494	2031.890922143794	4
8	3498	2034.329042798993	3
8	3500	2034.685783953147	4
8	3506	2041.083538964914	1
8	3508	2041.27238365487	2
8	3512	2044.805071541647	1
8	3515	2048.41251557903	1
8	3517	2048.590310045289	2
8	3521	2049.890640120005	1
8	3524	2051.329999477193	1
8	3527	2053.874602196218	1
8	3529	2054.166339970961	2
8	3532	2054.336992441348	2
8	3535	2055.887839140269	2
8	3539	2059.805180751428	1
8	3542	2062.558345994179	1
8	3545	2064.215900897689	1
8	3548	2064.953281647422	1
8	3551	2069.385708054174	1
8	3554	2070.39693285115	1
8	3557	2072.768941558439	1
8	3563	2078.094919486278	1
8	3566	2081.825808513589	1
8	3568	2081.964044332774	2
8	3572	2089.685789288936	1
8	3575	2090.415454149627	1
8	3578	2091.458458755856	1
8	3580	2091.90409264343	2
8	3584	2095.509311922768	3
8	3589	2101.412348821498	2
8	3592	2102.421345681006	2
8	3594	2102.508332277303	3
8	3596	2102.702805302839	4
8	3598	2107.262461162181	5
8	3600	2109.317899192288	6
8	3608	2115.149340504696	1
8	3611	2117.669214367714	1
8	3617	2126.312210343621	1
8	3620	2127.480101272737	1
8	3623	2129.367398298025	1
8	3625	2129.681529693375	2
8	3629	2133.065582701425	1
8	3631	2133.765213716428	2
8	3635	2134.913801197411	1
8	3637	2136.333962795819	2
8	3640	2138.382835568566	2
8	3643	2139.727831382047	2
8	3646	2142.182242065136	2
8	3648	2144.605808327323	3
8	3650	2145.466214333299	4
8	3652	2145.664184391918	5
8	3656	2148.283695289986	4
8	3660	2151.023567118819	3
8	3663	2151.300342023678	3
8	3665	2152.416498719282	4
8	3671	2156.458829267053	1
8	3673	2156.891077790809	2
8	3675	2157.170737840393	3
8	3680	2160.125261884928	1
8	3682	2160.315147536328	2
8	3684	2161.655300440386	3
8	3689	2164.172560625881	1
8	3692	2168.141993958905	1
8	3694	2168.347320472929	2
8	3696	2169.076244196722	3
8	3698	2169.096166166448	4
8	3703	2169.853048997207	4
8	3705	2171.409863196535	5
8	3710	2172.670546098341	4
8	3712	2173.41572713815	5
8	3714	2173.586142084909	6
8	3721	2175.670964835503	2
8	3724	2176.407098903085	2
8	3731	2177.985747929146	1
8	3734	2178.769175254164	1
8	3738	2180.430011051285	2
8	3740	2180.568705430552	3
8	3742	2182.307518678856	4
8	3749	2191.750875196225	1
8	3754	2197.046281196285	1
8	3757	2198.722249760373	2
8	3762	2200.377220178988	2
8	3764	2201.654945986902	3
8	3767	2207.269778705689	4
8	3773	2209.21901643843	1
8	3776	2209.353295124652	1
8	3779	2214.042058068324	1
8	3784	2215.007979439879	1
8	3789	2224.421059299345	2
8	3791	2224.951811934182	3
8	3795	2228.958609766989	3
8	3797	2229.248797748062	4
8	3799	2229.487639941097	5
8	3801	2230.451840481683	6
8	3808	2232.821649965249	2
8	3810	2233.854556873827	3
8	3813	2234.786225004102	3
8	3816	2235.729583694501	3
8	3820	2236.888009410155	2
8	3822	2237.334276567911	3
8	3827	2246.417880056849	1
8	3830	2249.578483750904	1
8	3833	2250.30595036586	1
8	3836	2252.481133993293	1
8	3839	2256.460435827423	1
8	3842	2260.841757879475	1
8	3845	2264.174442185776	1
8	3848	2264.472764549304	1
8	3850	2266.796886893581	2
8	3854	2270.185573209357	1
8	3856	2270.329795125012	2
8	3860	2278.68576017162	1
8	3866	2281.76107366901	1
8	3869	2281.941167442549	1
8	3871	2282.530005571365	2
8	3873	2282.840405546139	3
8	3878	2286.938312821668	1
8	3882	2291.072308153976	2
8	3885	2295.869318384531	3
8	3887	2295.888259050874	4
8	3889	2296.396896617868	5
8	3895	2298.660730539324	2
8	3897	2299.328963412758	3
8	3900	2300.363702890794	3
8	3902	2300.722203205121	4
8	3904	2300.992159455285	5
8	3906	2301.100905883935	6
8	3909	2301.737401756754	6
8	3914	2306.416073200708	4
8	3918	2309.912182764873	3
8	3920	2310.158597797881	4
8	3926	2314.386044338566	1
8	3929	2315.80187880783	1
8	3932	2316.442515462693	1
8	3935	2319.894720745297	1
8	3937	2320.938753380241	2
8	3939	2321.575120763854	3
8	3941	2322.70091824025	4
8	3949	2327.368778760023	1
8	3951	2329.563420408862	2
8	3953	2334.130240810971	3
8	3955	2334.310479100453	4
8	3961	2337.649956278023	5
8	3965	2338.994759326907	4
8	3967	2341.007448349041	5
8	3974	2344.908395293166	1
8	3977	2349.073053504342	1
8	3979	2349.207804772148	2
8	3981	2350.174197146075	3
8	3984	2352.688163822867	3
8	3986	2353.080728510668	4
8	3989	2354.133562452216	4
8	3992	2354.550913927805	4
8	3995	2355.666105760868	4
8	4000	2358.710184066434	2
8	4002	2359.085066666703	3
8	4009	2363.382836766104	1
8	4011	2364.948312059441	2
8	4015	2370.485676964358	3
8	4019	2373.559792359174	4
8	4021	2373.615180972963	5
8	4024	2374.028195249053	5
8	4031	2377.84908616576	1
8	4034	2378.852616910196	1
8	4036	2379.392846252509	2
8	4038	2379.522485709902	3
8	4042	2380.304802736744	2
8	4046	2382.709349636256	1
8	4051	2388.026331734902	1
8	4053	2388.817091877763	2
8	4055	2389.905908259378	3
8	4057	2390.162707638523	4
8	4059	2394.253108391185	5
8	4061	2395.869227528463	6
8	4065	2397.054609093627	6
8	4068	2397.439765152553	6
8	4073	2400.305112935313	4
8	4075	2400.818173024188	5
8	4077	2401.013649616436	6
8	4081	2401.536420094241	5
8	4083	2404.180294165907	6
8	4086	2404.899324843835	6
8	4090	2407.126910719338	5
8	4092	2407.980733010719	6
8	4099	2412.983631863502	2
8	4102	2415.468178330054	2
8	4104	2416.250251705395	3
8	4111	2422.729141334512	1
8	4113	2422.915436708444	2
8	4115	2423.085063376389	3
8	4118	2429.081165637184	4
8	4121	2433.083195000971	4
8	4123	2434.202203335913	5
8	4126	2436.718585779912	5
8	4131	2443.098430646429	6
8	4134	2443.563668530047	6
8	4137	2444.305961266949	6
8	4139	2444.887866034189	7
8	4146	2448.136731265192	5
8	4154	2454.463154492804	1
8	4157	2456.264497185827	1
8	4160	2460.244304236631	1
8	4163	2460.444928034158	1
8	4166	2461.665539601117	1
8	4169	2468.133653294601	1
8	4171	2468.708300261596	2
8	4173	2468.832282382433	3
8	4178	2473.382153414736	1
8	4181	2480.089667184608	1
8	4184	2482.256762738289	1
8	4187	2482.682605727301	1
8	4190	2485.719935083661	1
8	4192	2487.276746803246	2
8	4195	2487.553064249241	2
8	4198	2490.118676486446	2
8	4202	2492.246131129541	1
8	4204	2492.473148226866	2
8	4207	2492.803435495225	2
8	4209	2493.713153456353	3
8	4213	2494.967472723886	2
8	4217	2497.479640731705	1
9	724	419.824288542282	1
9	758	445.426883461239	1
9	829	481.155473799364	1
9	917	536.946986058516	1
9	925	541.720738592907	1
9	927	541.736319955185	2
9	930	545.749899725905	2
9	1088	642.852204457678	1
9	1090	646.904432915695	2
9	1114	666.123998518003	1
9	1131	673.379073049835	1
9	1172	692.296201596188	1
9	1199	707.174758416955	1
9	1201	707.316586279335	2
9	1229	718.627327699064	1
9	1232	719.093978241006	1
9	1240	725.978438086876	1
9	1256	740.857761909457	1
9	1283	759.785179545867	1
9	1294	769.99705848	1
9	1302	773.001749095169	2
9	1306	773.957541426202	3
9	1323	780.867851638882	3
9	1467	853.673845421965	1
9	1483	862.799389841877	2
9	1492	868.098797839271	2
9	1505	880.277491819915	2
9	1507	882.177038103687	3
9	1557	912.935758198835	1
9	1596	932.202672012874	1
9	1609	936.657389288969	1
9	1636	946.297682443241	1
9	1659	960.738265453186	1
9	1805	1042.502595974247	1
9	1843	1060.452690583967	1
9	1871	1073.028472791389	1
9	1873	1073.979749661901	2
9	1967	1113.293494763991	1
9	2012	1132.000155132253	1
9	2053	1154.808071207918	1
9	2064	1158.547296278815	1
9	2092	1170.522199205898	1
9	2094	1171.867477851254	2
9	2096	1172.13455232041	3
9	2213	1231.608305717097	1
9	2300	1288.624242739881	1
9	2395	1356.036850805122	1
9	2423	1372.606487445524	2
9	2484	1405.653119015198	1
9	2490	1415.389328740932	2
9	2501	1422.655085990457	2
9	2505	1422.976987813847	3
9	2507	1425.03253417898	4
9	2520	1430.283059070374	4
9	2555	1453.338074498799	4
9	2562	1458.853815662555	4
9	2577	1470.455632448849	1
9	2633	1493.449335598144	1
9	2635	1496.052380205525	2
9	2658	1514.884379549808	2
9	2680	1528.555324124831	1
9	2749	1564.373909976404	1
9	2751	1565.073784446035	2
9	2756	1568.88161662372	2
9	2845	1616.890074396541	1
9	2870	1626.810805176556	1
9	2878	1632.799960695581	1
9	2882	1636.823592669957	2
9	2903	1658.548708404319	1
9	2944	1686.708174305305	1
9	2954	1694.179105853179	2
9	2971	1705.252233173425	2
9	3005	1719.93445107556	1
9	3020	1724.59685573388	1
9	3046	1740.42133159935	1
9	3075	1757.194056480443	1
9	3083	1761.281828584842	2
9	3085	1761.918109262225	3
9	3192	1831.77425238343	1
9	3244	1868.713537013691	1
9	3287	1898.558444776125	1
9	3301	1910.506246022932	1
9	3374	1966.608133512492	1
9	3388	1976.663636876505	1
9	3467	2021.706676798273	1
9	3560	2073.959348802285	1
9	3582	2092.180436930985	1
9	3613	2118.166042985004	1
9	3701	2169.154750841632	1
9	3728	2177.061307273094	1
9	3736	2178.914416394662	1
9	3752	2195.814478513715	1
9	3760	2200.177172437229	1
9	3782	2214.891347264506	1
9	3786	2215.816986545285	2
9	3863	2280.78927417951	1
9	3880	2288.659915777357	1
9	3947	2325.886460952761	1
9	3958	2335.729066720743	1
9	4007	2363.241703758442	1
9	4013	2369.572912620892	2
9	4049	2385.090107213244	1
9	4109	2420.381264551342	1
9	4128	2438.055371942036	1
9	4144	2446.879911890008	1
10	724	419.824288542282	9
10	829	481.155473799364	10
10	925	541.720738592907	11
10	1114	666.123998518003	12
10	1131	673.379073049835	13
10	1172	692.296201596188	14
10	1199	707.174758416955	15
10	1240	725.978438086876	16
10	1294	769.99705848	17
10	1467	853.673845421965	18
10	1557	912.935758198835	19
10	1596	932.202672012874	20
10	1609	936.657389288969	21
10	1636	946.297682443241	22
10	1659	960.738265453186	23
10	1805	1042.502595974247	24
10	1843	1060.452690583967	25
10	1967	1113.293494763991	26
10	2053	1154.808071207918	27
10	2064	1158.547296278815	28
10	2092	1170.522199205898	29
10	2395	1356.036850805122	30
10	2484	1405.653119015198	31
10	2577	1470.455632448849	32
10	2633	1493.449335598144	33
10	2680	1528.555324124831	34
10	2749	1564.373909976404	35
10	2845	1616.890074396541	36
10	2870	1626.810805176556	37
10	2878	1632.799960695581	38
10	2903	1658.548708404319	39
10	2944	1686.708174305305	40
10	3005	1719.93445107556	41
10	3020	1724.59685573388	42
10	3046	1740.42133159935	43
10	3075	1757.194056480443	44
10	3192	1831.77425238343	45
10	3244	1868.713537013691	46
10	3301	1910.506246022932	47
10	3388	1976.663636876505	48
10	3582	2092.180436930985	49
10	3613	2118.166042985004	50
10	3701	2169.154750841632	51
10	3736	2178.914416394662	52
10	3760	2200.177172437229	53
10	3880	2288.659915777357	54
10	3958	2335.729066720743	55
10	4128	2438.055371942036	56
10	4144	2446.879911890008	57
11	4219	2500	0.5116
12	4219	2500	0.0508

