version 2
run factors_calibration_bosses-186-20230303-16:36:46-8580
attr configname factors_calibration_bosses
attr datetime 20230303-16:36:46
attr experiment factors_calibration_bosses
attr inifile omnetpp.ini
attr iterationvars $0=15
attr iterationvarsf 15-
attr measurement $0=15
attr network Network
attr processid 8580
attr repetition 6
attr replication #6
attr resultdir results
attr runnumber 186
attr seedset 6
param *.minion.arrival_mean 2
param *.minion.service_mean 1
param *.boss.arrival_mean 20
param *.boss.service_mean 15
param *.player.recover_rate_x 100
param **.minion.arrival_distribution 0
param **.minion.service_distribution 0
param **.boss.arrival_distribution 0
param **.boss.service_distribution 0

vector 0 Network.player boss_jobs_number_stat:vector ETV
attr source signal_boss_jobs_number
vector 1 Network.player boss_jobs_queue_number_stat:vector ETV
attr source signal_boss_jobs_queue_number
vector 2 Network.player minion_jobs_number_stat:vector ETV
attr source signal_minion_jobs_number
vector 3 Network.player minion_jobs_queue_number_stat:vector ETV
attr source signal_minion_jobs_queue_number
vector 4 Network.player boss_defeated_stat:vector ETV
attr source signal_boss_defeated
vector 5 Network.player boss_response_time_stat:vector ETV
attr source signal_boss_response_time
vector 6 Network.player boss_waiting_time_stat:vector ETV
attr source signal_boss_waiting_time
vector 7 Network.player minion_waiting_time_stat:vector ETV
attr source signal_minion_waiting_time
vector 8 Network.player minion_defeated_stat:vector ETV
attr source signal_minion_defeated
vector 9 Network.player minion_response_time_stat:vector ETV
attr source signal_minion_response_time
vector 10 Network.player minion_recovered_stat:vector ETV
attr source signal_minion_recovered
vector 11 Network.player minion_throughput:vector ETV
attr source signal_minion_throughput
vector 12 Network.player boss_throughput:vector ETV
attr source signal_boss_throughput
0	359	350.911095348185	7
0	372	366.390704133182	7
0	376	371.17356131204	8
0	382	377.820612985913	9
0	385	377.96980287222	9
0	415	406.590606385774	8
0	436	417.617291548579	8
0	440	423.903095571506	9
0	498	467.221505335374	8
0	508	474.170699178983	9
0	539	495.971717000857	9
0	606	561.58967462765	7
0	611	565.640426342516	7
0	695	614.526701304873	1
0	697	615.254532494379	2
0	713	632.049222519165	3
0	758	670.963454837439	3
0	775	684.254351994662	1
0	824	709.410644553138	1
0	846	730.619893590699	2
0	862	741.244643729957	3
0	871	756.629205910943	3
0	901	777.546901299853	1
0	1143	886.711462365343	1
0	1159	900.190491588623	2
0	1165	903.253106306936	3
0	1190	928.570672954617	1
0	1333	1002.623456215123	1
0	1353	1015.88463527209	1
0	1402	1035.213038508457	1
0	1408	1050.146256507234	2
0	1427	1075.64032921121	2
0	1475	1114.054621743973	3
0	1483	1121.047574796594	4
0	1485	1124.668304703187	5
0	1502	1143.000718365382	3
0	1567	1193.264556883255	1
0	1604	1221.041346223951	1
0	1647	1240.173927918977	1
0	1698	1260.682995869076	1
0	1751	1290.63175437432	1
0	1877	1341.98868381818	1
0	1903	1367.457978445056	1
0	1977	1411.373933569448	1
0	2019	1444.167991827933	1
0	2039	1464.862235097741	2
0	2043	1470.389925185423	3
0	2050	1477.399307372857	3
0	2072	1494.698843858274	4
0	2089	1517.650297185485	4
0	2103	1524.315619169701	5
0	2105	1530.802464609031	6
0	2182	1601.102500740114	2
0	2186	1603.805840100172	3
0	2194	1606.701715929049	4
0	2211	1623.577270089592	2
0	2227	1630.026208879448	1
0	2237	1640.547007515322	2
0	2334	1695.493984958524	1
0	2363	1711.932020289475	1
0	2387	1731.714786339412	2
0	2438	1770.244858721005	2
0	2483	1802.854931859741	2
0	2485	1804.889361326234	3
0	2507	1824.889836964607	1
0	2518	1833.639570527449	1
0	2544	1842.732282835428	1
0	2677	1915.436609589533	1
0	2679	1916.889482352561	2
0	2745	1967.901726318689	1
0	2817	2021.635944979653	1
0	2935	2090.897286542311	1
0	2947	2097.051712636309	2
0	2951	2098.097723051968	3
0	2959	2102.875204944668	4
0	3032	2145.88207974733	1
0	3091	2177.459450486187	1
0	3142	2206.85076913286	1
0	3146	2208.249520480578	2
0	3154	2213.728139743341	3
0	3176	2230.463349804384	4
0	3180	2232.655512392498	5
0	3243	2282.496471010907	3
0	3253	2286.619675817699	4
0	3255	2291.06034277556	5
0	3289	2319.005043865611	4
0	3352	2358.742124793107	2
0	3409	2419.850593049055	2
0	3432	2442.607790362262	2
0	3473	2473.876253655396	1
0	3477	2475.158360869859	2
0	3487	2479.289234085361	3
0	3498	2485.053898812339	3
0	3512	2499.404620087199	2
1	359	350.911095348185	6
1	366	357.512946629044	6
1	372	366.390704133182	6
1	376	371.17356131204	7
1	382	377.820612985913	8
1	383	377.824864901011	8
1	385	377.96980287222	8
1	392	385.570558830514	8
1	409	401.892024573148	7
1	415	406.590606385774	7
1	434	416.886010368876	7
1	436	417.617291548579	7
1	440	423.903095571506	8
1	479	449.565191310396	8
1	482	455.992987995336	7
1	498	467.221505335374	7
1	508	474.170699178983	8
1	515	485.273254326073	8
1	539	495.971717000857	8
1	560	510.825448821715	8
1	579	531.575662461069	7
1	580	531.649425741403	6
1	606	561.58967462765	6
1	607	562.269446142493	6
1	611	565.640426342516	6
1	614	568.89389210457	6
1	615	571.99475058917	5
1	616	572.016616984968	4
1	617	577.924854894497	3
1	622	578.971330700757	2
1	627	585.971965204093	1
1	634	589.427055556672	0
1	695	614.526701304873	0
1	697	615.254532494379	1
1	713	632.049222519165	2
1	720	638.204006214348	2
1	758	670.963454837439	2
1	761	674.446710594698	2
1	766	676.903216882574	1
1	769	679.694766191661	0
1	775	684.254351994662	0
1	778	687.048260044587	0
1	824	709.410644553138	0
1	846	730.619893590699	1
1	862	741.244643729957	2
1	867	755.941250552255	2
1	871	756.629205910943	2
1	874	757.211048084274	2
1	875	761.318704253577	1
1	886	766.780140720506	0
1	901	777.546901299853	0
1	902	777.555055112019	0
1	1143	886.711462365343	0
1	1159	900.190491588623	1
1	1165	903.253106306936	2
1	1168	909.649377065927	2
1	1177	922.159658486914	1
1	1180	924.826945303064	0
1	1190	928.570672954617	0
1	1211	943.178230011458	0
1	1333	1002.623456215123	0
1	1334	1003.722363685466	0
1	1353	1015.88463527209	0
1	1362	1019.936281312238	0
1	1402	1035.213038508457	0
1	1408	1050.146256507234	1
1	1409	1053.326284728007	1
1	1427	1075.64032921121	1
1	1475	1114.054621743973	2
1	1483	1121.047574796594	3
1	1485	1124.668304703187	4
1	1486	1125.375899792913	4
1	1489	1128.370599205594	3
1	1490	1131.467960442616	2
1	1502	1143.000718365382	2
1	1507	1145.171773161348	2
1	1518	1159.136905461069	1
1	1525	1167.1858185983	0
1	1567	1193.264556883255	0
1	1576	1204.149456622548	0
1	1604	1221.041346223951	0
1	1623	1231.851349732915	0
1	1647	1240.173927918977	0
1	1662	1248.688095179249	0
1	1698	1260.682995869076	0
1	1701	1264.422540326977	0
1	1751	1290.63175437432	0
1	1758	1294.016623143164	0
1	1877	1341.98868381818	0
1	1894	1361.384734162873	0
1	1903	1367.457978445056	0
1	1908	1380.574910994984	0
1	1977	1411.373933569448	0
1	2008	1439.774333869458	0
1	2019	1444.167991827933	0
1	2039	1464.862235097741	1
1	2043	1470.389925185423	2
1	2046	1472.220452080385	2
1	2050	1477.399307372857	2
1	2072	1494.698843858274	3
1	2085	1511.87395714091	3
1	2089	1517.650297185485	3
1	2103	1524.315619169701	4
1	2105	1530.802464609031	5
1	2128	1552.083847886171	5
1	2135	1572.057534428065	4
1	2136	1572.901964684989	3
1	2147	1582.61273832689	2
1	2176	1598.187697570975	1
1	2182	1601.102500740114	1
1	2186	1603.805840100172	2
1	2194	1606.701715929049	3
1	2197	1608.373195746369	3
1	2198	1608.646650784676	2
1	2209	1622.186916790651	1
1	2211	1623.577270089592	1
1	2214	1624.218519342555	1
1	2215	1625.404767557317	0
1	2227	1630.026208879448	0
1	2237	1640.547007515322	1
1	2248	1650.014843841452	1
1	2249	1651.889398982011	0
1	2334	1695.493984958524	0
1	2335	1698.97288849917	0
1	2363	1711.932020289475	0
1	2387	1731.714786339412	1
1	2428	1762.859801271732	1
1	2438	1770.244858721005	1
1	2473	1795.140921433585	1
1	2483	1802.854931859741	1
1	2485	1804.889361326234	2
1	2488	1808.2725549427	2
1	2495	1819.085834383067	1
1	2496	1820.540469476397	0
1	2507	1824.889836964607	0
1	2512	1830.199083162923	0
1	2518	1833.639570527449	0
1	2519	1833.845418986306	0
1	2544	1842.732282835428	0
1	2567	1863.094129945757	0
1	2677	1915.436609589533	0
1	2679	1916.889482352561	1
1	2702	1942.640255149575	1
1	2723	1958.531981584055	0
1	2745	1967.901726318689	0
1	2778	2004.840904018066	0
1	2817	2021.635944979653	0
1	2824	2030.843566302541	0
1	2935	2090.897286542311	0
1	2947	2097.051712636309	1
1	2951	2098.097723051968	2
1	2959	2102.875204944668	3
1	2968	2109.187962837671	3
1	2971	2110.629954856458	2
1	2978	2117.970971416456	1
1	2981	2122.559102292125	0
1	3032	2145.88207974733	0
1	3051	2164.229103537816	0
1	3091	2177.459450486187	0
1	3104	2190.793161966353	0
1	3142	2206.85076913286	0
1	3146	2208.249520480578	1
1	3154	2213.728139743341	2
1	3176	2230.463349804384	3
1	3180	2232.655512392498	4
1	3191	2245.370754868621	4
1	3216	2261.918846894263	3
1	3223	2267.017228820562	2
1	3243	2282.496471010907	2
1	3253	2286.619675817699	3
1	3255	2291.06034277556	4
1	3258	2292.980508292456	4
1	3277	2310.261646211989	3
1	3289	2319.005043865611	3
1	3298	2324.243268954415	3
1	3315	2335.261949956445	2
1	3322	2338.884549632674	1
1	3352	2358.742124793107	1
1	3365	2370.362786672425	1
1	3409	2419.850593049055	1
1	3414	2428.18331269747	1
1	3432	2442.607790362262	1
1	3453	2466.816811393769	1
1	3464	2471.301229756067	0
1	3473	2473.876253655396	0
1	3477	2475.158360869859	1
1	3487	2479.289234085361	2
1	3496	2483.953796581699	2
1	3498	2485.053898812339	2
1	3499	2485.182390467398	2
1	3508	2498.785442770853	1
1	3512	2499.404620087199	1
2	361	353.620728237707	133
2	363	356.364561135163	134
2	365	357.035676095856	135
2	368	361.196545193339	136
2	370	363.351580402831	137
2	374	368.714930868996	138
2	378	375.87464093203	139
2	380	377.493939190434	140
2	387	380.681797903291	141
2	389	385.08418926854	142
2	391	385.479785241869	143
2	394	385.8835951887	144
2	396	388.954789930943	145
2	398	389.711681568742	146
2	400	396.733341876947	147
2	402	396.887254613773	148
2	404	397.788634962716	149
2	406	398.574496008917	150
2	408	398.758476729592	151
2	411	404.224008174323	152
2	413	405.066689357153	153
2	417	410.810614290909	154
2	419	412.503722244344	155
2	421	412.678206930427	156
2	423	413.040082409354	157
2	425	413.473932061435	158
2	427	415.471190538856	159
2	429	416.132234841155	160
2	431	416.267862417249	161
2	433	416.671886572685	162
2	438	421.552690791051	163
2	442	426.029479430182	164
2	444	426.215144685665	165
2	446	428.432313598118	166
2	448	428.877070490458	167
2	450	429.256647994673	168
2	452	430.533786797694	169
2	454	434.229655311791	170
2	456	435.392856823422	171
2	458	437.130464283199	172
2	460	440.031502368246	173
2	462	440.373807755125	174
2	464	440.399458619085	175
2	466	440.690570520283	176
2	468	442.973586912745	177
2	470	444.731420183276	178
2	472	445.376250593781	179
2	474	445.728148948378	180
2	476	447.580729183296	181
2	478	448.495531437584	182
2	481	450.07472797054	183
2	484	456.776780246305	184
2	486	457.247692858141	185
2	488	459.863964639396	186
2	490	460.156613822653	187
2	492	462.760844868554	188
2	494	465.69292841582	189
2	496	467.109083640741	190
2	500	468.396214524506	191
2	502	468.666949497023	192
2	504	470.131196146895	193
2	506	470.30713631375	194
2	510	476.078849962232	195
2	512	477.102449060355	196
2	514	479.165433391795	197
2	517	487.671916622536	198
2	519	488.825314681808	199
2	521	489.608149131294	200
2	523	490.854599401647	201
2	525	491.840475468528	202
2	527	492.412725908892	203
2	529	493.394303792136	204
2	531	493.987774650685	205
2	533	494.481145752871	206
2	535	494.527670867751	207
2	537	494.790801493163	208
2	541	500.17924672944	209
2	543	501.057164861903	210
2	545	502.053177822198	211
2	547	503.976606639746	212
2	549	506.066488311287	213
2	551	506.83468895462	214
2	553	507.71710002991	215
2	555	509.734358984655	216
2	557	509.968416529656	217
2	559	510.767083141211	218
2	562	511.957521099282	219
2	564	513.626486333227	220
2	566	514.892185995772	221
2	568	520.357879621587	222
2	570	520.477689359094	223
2	572	523.887234755727	224
2	574	527.279446552831	225
2	576	529.279611111778	226
2	578	529.96273696199	227
2	582	532.777920950043	228
2	584	534.883811225214	229
2	586	536.400081835658	230
2	588	536.733857845088	231
2	590	539.316223014881	232
2	592	540.818924568782	233
2	594	541.494557088231	234
2	596	543.786899066143	235
2	598	546.18104595624	236
2	600	548.669244422435	237
2	602	553.237849153949	238
2	604	555.952226705883	239
2	609	564.479574607539	240
2	613	566.208557966847	241
2	619	577.979117437701	242
2	621	578.936801733517	243
2	624	580.693720324387	244
2	626	583.590482159429	245
2	629	588.285401492548	246
2	631	588.390592372889	247
2	633	588.429759415075	248
2	641	593.298254425647	244
2	645	594.763821141639	243
2	649	595.912925216373	242
2	651	596.521675667204	243
2	653	598.542611885548	244
2	660	600.688646269472	240
2	667	604.134092329705	236
2	672	606.243443397095	234
2	674	606.631123182073	235
2	679	608.084918131598	233
2	681	609.689911625526	234
2	684	610.511795731653	234
2	688	612.101741877464	233
2	693	614.009381457619	231
2	699	619.069057550999	232
2	701	622.62925887232	233
2	703	626.212220669707	234
2	705	626.560379591279	235
2	707	628.718110827395	236
2	709	629.381804195652	237
2	711	631.722227238349	238
2	715	632.122678194533	239
2	717	632.797111356976	240
2	719	635.461467167717	241
2	722	640.104368482486	242
2	724	643.060450291625	243
2	726	643.174064798114	244
2	728	645.547421514426	245
2	730	646.640659227572	246
2	732	647.50956273849	247
2	734	650.601508745709	248
2	736	653.82444067486	249
2	738	659.066824151939	250
2	740	659.807700046323	251
2	742	660.150322603052	252
2	744	660.291351246394	253
2	746	661.926887630516	254
2	748	663.884473360815	255
2	750	665.08441283951	256
2	752	665.421011221056	257
2	754	668.185499233366	258
2	756	669.026194380327	259
2	760	672.682049683223	260
2	763	674.528529670956	261
2	765	674.62182131041	262
2	768	678.668853538064	263
2	771	680.077848476473	264
2	777	685.32498376096	263
2	780	687.102406912159	264
2	784	689.564442611144	263
2	786	689.691959330825	264
2	795	694.805792197843	258
2	797	694.856268459692	259
2	805	701.013408124683	254
2	810	702.809276316265	252
2	817	706.715902977378	248
2	822	709.40526970961	246
2	826	715.936455690835	247
2	828	715.955917968516	248
2	830	718.508880913156	249
2	832	726.576471148829	250
2	834	727.07147664118	251
2	836	727.165436815163	252
2	838	727.329642062726	253
2	840	729.002777074251	254
2	842	730.043974275628	255
2	844	730.253478557743	256
2	848	733.338992465921	257
2	850	734.201595400783	258
2	852	736.102714781227	259
2	854	737.105995526153	260
2	856	739.663102143969	261
2	858	740.642805946093	262
2	860	740.922176633286	263
2	864	741.952845408489	264
2	866	750.65593396326	265
2	869	755.972059754748	266
2	873	756.675860019858	267
2	877	762.375238077051	268
2	879	762.905600476433	269
2	881	763.303088769712	270
2	883	763.653697669897	271
2	885	766.276168744699	272
2	889	768.585370451651	272
2	892	770.865372138212	272
2	908	780.857568110627	262
2	912	785.164147104375	261
2	914	785.281582525404	262
2	916	787.020754985924	263
2	920	788.418056663761	262
2	927	790.817848846655	258
2	929	791.582845301456	259
2	931	792.161638296866	260
2	935	795.116922950606	259
2	940	798.469345248031	257
2	943	798.785222621849	257
2	949	800.440446917348	254
2	954	803.440454625695	252
2	957	804.183369284595	252
2	960	805.068168520793	252
2	963	806.007006614627	252
2	965	806.069340811636	253
2	972	809.519221317629	249
2	980	813.596715553983	244
2	989	818.312268277479	238
2	993	821.357373125426	237
2	999	826.365275622245	234
2	1001	826.733245822775	235
2	1003	827.254548766502	236
2	1012	833.206717237232	230
2	1014	833.531002074481	231
2	1022	839.634939749019	226
2	1029	842.528557695517	222
2	1031	842.646769343853	223
2	1035	843.447557488373	222
2	1038	844.152254193144	222
2	1048	849.25161233715	215
2	1053	851.363871225307	213
2	1055	852.384715733498	214
2	1062	857.447625391526	210
2	1065	857.839690342784	210
2	1067	857.902758158637	211
2	1069	858.10912500014	212
2	1074	860.055569901367	210
2	1077	860.319637799385	210
2	1079	860.439483065943	211
2	1084	862.420741358511	209
2	1090	865.303081399471	206
2	1092	866.594305234927	207
2	1095	867.270371447061	207
2	1100	869.693635993797	205
2	1104	870.920286906979	204
2	1107	871.136042689979	204
2	1114	876.070733653777	200
2	1116	876.265247554233	201
2	1118	876.291509195164	202
2	1121	878.873747258888	202
2	1124	880.274499023216	202
2	1129	881.202213383961	200
2	1131	881.358953306322	201
2	1135	882.033803057806	200
2	1138	882.827764552909	200
2	1145	887.058759772355	198
2	1147	887.128174010565	199
2	1149	887.198592352217	200
2	1151	887.394271175119	201
2	1153	887.431017052479	202
2	1155	889.661479848296	203
2	1157	890.426097370749	204
2	1161	901.061629700842	205
2	1163	902.002047599258	206
2	1167	905.143950669742	207
2	1170	916.704607446869	208
2	1172	916.889886153567	209
2	1174	920.265249078765	210
2	1176	921.715261818522	211
2	1179	923.766934698208	212
2	1187	928.348638560449	208
2	1192	928.682143031095	208
2	1194	929.405090079715	209
2	1196	932.046546403997	210
2	1198	935.343864178761	211
2	1200	936.021515010105	212
2	1202	936.993003219721	213
2	1204	937.914323205865	214
2	1206	938.682140246036	215
2	1208	938.715886859905	216
2	1210	939.648506857872	217
2	1214	943.482964502516	217
2	1217	945.339336300127	217
2	1219	946.079988723509	218
2	1221	946.819003703115	219
2	1223	948.474314232002	220
2	1230	954.512834975762	216
2	1232	954.703507106167	217
2	1235	955.649486929978	217
2	1240	958.795714148704	215
2	1243	959.955706537502	215
2	1245	960.014995693331	216
2	1248	960.706389631658	216
2	1250	960.821068880689	217
2	1257	962.551728766791	213
2	1264	965.100160495507	209
2	1269	965.707899424462	207
2	1271	965.771230755986	208
2	1276	968.113273218355	206
2	1279	969.431154935784	206
2	1281	971.523355216358	207
2	1285	974.009681159103	206
2	1292	978.175200680845	202
2	1294	979.484995939746	203
2	1299	981.30990832871	201
2	1304	984.538970795232	199
2	1306	988.645633133681	200
2	1308	990.237650930406	201
2	1314	995.566607263745	198
2	1316	997.413761381275	199
2	1318	997.809558082374	200
2	1323	1000.657792886142	198
2	1325	1001.569513836067	199
2	1327	1001.592772614752	200
2	1330	1002.162189019053	200
2	1340	1007.446658954156	196
2	1342	1008.172282883317	197
2	1345	1010.099621959163	197
2	1347	1010.498877866462	198
2	1351	1013.727095700785	197
2	1355	1017.604682941381	198
2	1357	1017.628732397874	199
2	1359	1017.631252432433	200
2	1361	1019.288616223327	201
2	1372	1026.82207071731	194
2	1375	1027.282839071138	194
2	1380	1028.911593116989	192
2	1382	1029.543046631838	193
2	1384	1030.207489184279	194
2	1387	1031.167189214512	194
2	1391	1031.710378557374	193
2	1404	1045.85406865594	185
2	1406	1047.281168629719	186
2	1411	1056.51682214066	187
2	1413	1058.349452220503	188
2	1415	1061.236064213234	189
2	1417	1061.600330998759	190
2	1419	1061.749419428983	191
2	1421	1062.824126131604	192
2	1423	1070.125592266331	193
2	1425	1070.558592065629	194
2	1429	1079.030181312564	195
2	1431	1081.057069188891	196
2	1433	1081.606454168799	197
2	1435	1082.803707012397	198
2	1437	1084.194072332277	199
2	1439	1085.011202045368	200
2	1441	1087.390273868578	201
2	1443	1088.063826635362	202
2	1445	1088.680106398286	203
2	1447	1088.876415304188	204
2	1449	1095.606513969732	205
2	1451	1095.863381695958	206
2	1453	1100.440658937967	207
2	1455	1101.15201950813	208
2	1457	1102.642940780738	209
2	1459	1103.037239379615	210
2	1461	1104.453842491513	211
2	1463	1105.399751706979	212
2	1465	1106.554513507534	213
2	1467	1108.933715831091	214
2	1469	1108.953946010706	215
2	1471	1109.948715610904	216
2	1473	1113.771877583781	217
2	1477	1114.846719214886	218
2	1479	1117.133276256855	219
2	1481	1119.249396391813	220
2	1488	1125.457919751875	221
2	1492	1131.613971689948	222
2	1494	1132.179816311795	223
2	1496	1139.471172768484	224
2	1498	1139.769641638765	225
2	1500	1140.886002564965	226
2	1504	1143.148592265246	227
2	1506	1143.388603339692	228
2	1509	1145.407079246774	229
2	1511	1150.813947578495	230
2	1513	1152.715263171149	231
2	1515	1153.176337025137	232
2	1517	1158.350021804211	233
2	1520	1159.163451899635	234
2	1522	1159.286771308134	235
2	1524	1166.316798307954	236
2	1528	1168.875655846336	236
2	1530	1170.127698168792	237
2	1536	1177.407351791488	234
2	1538	1178.274226972434	235
2	1540	1178.408521469187	236
2	1546	1183.533876227491	233
2	1548	1185.336498060565	234
2	1550	1185.772801044384	235
2	1552	1186.117500719399	236
2	1558	1187.321438466772	233
2	1569	1197.790902223739	227
2	1571	1197.882701710282	228
2	1573	1201.83187454852	229
2	1575	1203.862072197182	230
2	1579	1204.770405671685	230
2	1585	1208.598159718149	227
2	1599	1219.219092933596	216
2	1606	1222.673222359841	214
2	1608	1223.45507324811	215
2	1610	1224.602928128434	216
2	1612	1225.693271517245	217
2	1614	1228.197869596309	218
2	1616	1228.296853229393	219
2	1618	1228.575630360736	220
2	1620	1229.49134779261	221
2	1622	1231.598725723892	222
2	1625	1231.962408803206	223
2	1633	1237.372459053468	218
2	1635	1237.721272877083	219
2	1640	1239.082578817934	217
2	1645	1240.026512559067	215
2	1649	1243.407040501597	216
2	1651	1243.920084335492	217
2	1653	1244.023156013044	218
2	1655	1244.715342539413	219
2	1657	1244.821305359619	220
2	1659	1245.905957947004	221
2	1661	1246.106372344778	222
2	1665	1249.38464229875	222
2	1668	1249.528279341337	222
2	1670	1249.550390603913	223
2	1674	1250.983655323266	222
2	1676	1251.307776778319	223
2	1678	1251.456581729891	224
2	1687	1259.114838559283	218
2	1690	1260.124570754936	218
2	1692	1260.208196175912	219
2	1694	1260.302936903011	220
2	1696	1260.303374362796	221
2	1700	1260.72945137047	222
2	1704	1264.784010073092	222
2	1708	1267.15422225313	221
2	1710	1267.379951325059	222
2	1712	1269.373950191095	223
2	1717	1273.700545301955	221
2	1720	1277.403973015465	221
2	1723	1279.518970617922	221
2	1725	1279.74505507975	222
2	1727	1280.119187852184	223
2	1735	1284.799750808519	218
2	1737	1284.832468184087	219
2	1740	1285.63580723043	219
2	1742	1285.9473303647	220
2	1753	1291.184412917899	214
2	1755	1291.558542890377	215
2	1757	1293.919802509845	216
2	1765	1298.38703378962	212
2	1768	1298.667693076086	212
2	1770	1299.114038687466	213
2	1772	1300.48318526038	214
2	1776	1301.742255257509	213
2	1778	1301.941719115747	214
2	1780	1302.278371858181	215
2	1784	1305.179433924727	214
2	1787	1305.603664142221	214
2	1790	1305.985216524233	214
2	1792	1306.85635436943	215
2	1795	1307.34885919114	215
2	1799	1307.623061183118	214
2	1802	1309.002312189484	214
2	1806	1310.033167459047	213
2	1808	1310.133923662447	214
2	1813	1313.939610213013	212
2	1817	1315.750004862055	211
2	1821	1316.403162910834	210
2	1827	1319.915458759101	207
2	1829	1321.02189335927	208
2	1834	1322.818510929456	206
2	1837	1325.38213689727	206
2	1854	1334.978283619763	192
2	1859	1337.114301693333	190
2	1863	1339.432574370208	189
2	1865	1340.201778723055	190
2	1867	1340.677920705188	191
2	1869	1340.874813254785	192
2	1871	1341.492782071405	193
2	1873	1341.559970384146	194
2	1875	1341.628901379295	195
2	1879	1343.41847128384	196
2	1881	1343.608426026918	197
2	1883	1343.9296120877	198
2	1885	1349.234005297823	199
2	1887	1349.867028966785	200
2	1889	1351.96954440864	201
2	1891	1360.057924048833	202
2	1893	1360.775920691884	203
2	1897	1364.303145127693	203
2	1899	1364.473225084814	204
2	1905	1373.509904568025	203
2	1907	1373.699541739638	204
2	1912	1383.64162908748	203
2	1918	1387.103144659272	200
2	1922	1388.758089432697	199
2	1927	1389.914310435117	197
2	1931	1390.363123288984	196
2	1933	1391.108785886284	197
2	1935	1392.219965623883	198
2	1946	1401.660935465129	190
2	1949	1402.488055872316	190
2	1955	1403.426480774544	187
2	1961	1408.232373710447	184
2	1965	1409.60718646325	183
2	1967	1410.657751084714	184
2	1969	1410.896396616297	185
2	1971	1410.910784352389	186
2	1974	1410.978477956142	186
2	1979	1412.56466141368	186
2	1981	1414.536929822541	187
2	1983	1414.787447380798	188
2	1985	1415.619133126988	189
2	1987	1418.029577677698	190
2	1989	1418.656621083888	191
2	1991	1418.669852956341	192
2	1993	1419.102235814161	193
2	1995	1421.026609435624	194
2	1997	1422.410710745824	195
2	1999	1423.634048404294	196
2	2001	1433.233140821778	197
2	2003	1433.607888295286	198
2	2005	1435.77934270714	199
2	2007	1438.053609510536	200
2	2013	1442.672266157984	198
2	2015	1442.828660173963	199
2	2021	1450.051994166053	198
2	2023	1451.034619467814	199
2	2025	1451.466434338202	200
2	2027	1452.110944983877	201
2	2029	1452.14190984486	202
2	2031	1452.770541254533	203
2	2033	1453.971193022981	204
2	2035	1459.554244825805	205
2	2037	1464.446213778427	206
2	2041	1467.461177333349	207
2	2045	1471.419802513578	208
2	2048	1474.443398538893	209
2	2052	1479.819376520978	210
2	2054	1480.057710593352	211
2	2056	1480.125171556194	212
2	2058	1480.181348648857	213
2	2060	1485.141365387288	214
2	2062	1486.19996394047	215
2	2064	1486.425273783154	216
2	2066	1490.426646435468	217
2	2068	1490.798185540011	218
2	2070	1492.718717870901	219
2	2074	1498.748226732401	220
2	2076	1501.735422436668	221
2	2078	1505.257031720557	222
2	2080	1506.233670162893	223
2	2082	1510.293061323062	224
2	2084	1511.215399199233	225
2	2087	1516.197606700747	226
2	2091	1518.554023144237	227
2	2093	1519.828304681181	228
2	2095	1519.917683233011	229
2	2097	1521.23876036368	230
2	2099	1523.555222350332	231
2	2101	1523.603410451774	232
2	2107	1532.241159469111	233
2	2109	1534.971164779589	234
2	2111	1535.128617507234	235
2	2113	1536.290645586103	236
2	2115	1539.011377936458	237
2	2117	1540.947671663802	238
2	2119	1542.672837259084	239
2	2121	1543.852716760591	240
2	2123	1544.505143401218	241
2	2125	1546.917308038827	242
2	2127	1549.849399298131	243
2	2130	1563.221919042211	244
2	2132	1565.12759875764	245
2	2134	1568.553406911598	246
2	2138	1574.305875759429	247
2	2140	1576.554011944433	248
2	2142	1577.993388652045	249
2	2144	1578.820652154357	250
2	2146	1581.25951450315	251
2	2149	1583.546903048406	252
2	2151	1586.166641280793	253
2	2153	1587.442799384679	254
2	2155	1587.601154214409	255
2	2157	1587.769499481697	256
2	2159	1588.068119686093	257
2	2161	1590.840334763093	258
2	2163	1592.196827125024	259
2	2165	1594.412317454635	260
2	2167	1594.801820982741	261
2	2169	1594.847880017328	262
2	2171	1595.478379417434	263
2	2173	1595.61142819505	264
2	2175	1596.317291624148	265
2	2178	1599.593539845705	266
2	2180	1600.357705072535	267
2	2184	1602.271198447773	268
2	2188	1604.704848079948	269
2	2190	1606.099467232157	270
2	2192	1606.114450712302	271
2	2196	1607.471065811948	272
2	2200	1610.024241076207	273
2	2202	1610.561828848945	274
2	2204	1616.282463118151	275
2	2206	1618.694435630279	276
2	2208	1619.572989504947	277
2	2213	1623.624688158435	278
2	2217	1626.122854855117	279
2	2220	1628.288323902058	279
2	2224	1629.124510306192	278
2	2229	1630.91176400795	278
2	2231	1639.394962768978	279
2	2233	1639.67257907744	280
2	2235	1640.177851091767	281
2	2239	1642.94856987932	282
2	2241	1643.317867363019	283
2	2243	1645.306771652561	284
2	2245	1646.563073447178	285
2	2247	1649.750316527751	286
2	2252	1652.522969426596	286
2	2256	1653.413557522618	285
2	2258	1654.649102698392	286
2	2260	1655.172066498803	287
2	2263	1656.636496506188	287
2	2267	1658.098663277239	286
2	2270	1659.970999705303	286
2	2272	1660.013114371395	287
2	2274	1661.231199189104	288
2	2282	1666.826415196423	283
2	2287	1670.197515794754	281
2	2289	1670.767545733848	282
2	2292	1671.498796972757	282
2	2294	1671.754154175241	283
2	2296	1672.401187613175	284
2	2298	1673.124460201784	285
2	2301	1674.022921940882	285
2	2303	1674.159433684216	286
2	2308	1677.571656168191	284
2	2310	1677.866333237998	285
2	2315	1683.195590587381	283
2	2321	1687.579433231882	280
2	2325	1689.847230863025	279
2	2327	1690.093379184153	280
2	2332	1695.471055420293	278
2	2338	1699.478201980333	278
2	2342	1701.572938904947	277
2	2344	1701.849388461554	278
2	2348	1703.272031722909	277
2	2353	1708.116104946093	275
2	2355	1709.278180767954	276
2	2357	1710.190538257367	277
2	2359	1710.329801507923	278
2	2361	1711.761070393895	279
2	2365	1714.968896906222	280
2	2367	1717.564647290784	281
2	2369	1717.62048641923	282
2	2371	1717.715597604191	283
2	2373	1719.880511503802	284
2	2375	1721.360009184282	285
2	2377	1723.440951991016	286
2	2379	1726.121154361687	287
2	2381	1729.330370048562	288
2	2383	1730.706031081898	289
2	2385	1731.218614605441	290
2	2389	1733.179531485322	291
2	2391	1733.508371770253	292
2	2393	1734.172170331411	293
2	2395	1735.863947750993	294
2	2397	1739.688249350692	295
2	2399	1740.742749466242	296
2	2401	1742.442196626285	297
2	2403	1746.922083421773	298
2	2405	1748.731690234793	299
2	2407	1749.14779163521	300
2	2409	1751.920303454035	301
2	2411	1752.203119991366	302
2	2413	1752.724787623912	303
2	2415	1753.501170641165	304
2	2417	1753.6653066522	305
2	2419	1755.35201972759	306
2	2421	1756.586484470732	307
2	2423	1761.810987944943	308
2	2425	1762.417088442269	309
2	2427	1762.650631150941	310
2	2430	1765.167011585913	311
2	2432	1765.317848392568	312
2	2434	1766.058207316239	313
2	2436	1768.091283580011	314
2	2440	1773.133657926307	315
2	2442	1774.113878198813	316
2	2444	1775.591431734325	317
2	2446	1776.115280245723	318
2	2448	1777.412551358666	319
2	2450	1778.527406056797	320
2	2452	1780.738537828256	321
2	2454	1780.759644627489	322
2	2456	1785.65259431768	323
2	2458	1787.293937108888	324
2	2460	1788.756287569269	325
2	2462	1789.049942415486	326
2	2464	1792.601080995014	327
2	2466	1793.06584050414	328
2	2468	1793.347837329278	329
2	2470	1794.512412865867	330
2	2472	1794.51868630971	331
2	2475	1798.2132829803	332
2	2477	1799.507195739503	333
2	2479	1799.759078044834	334
2	2481	1802.56562712752	335
2	2487	1807.59450872091	336
2	2490	1809.176923351147	337
2	2492	1813.375335992409	338
2	2494	1815.238891997269	339
2	2499	1821.76123498296	339
2	2509	1827.549815870625	334
2	2511	1828.34905495988	335
2	2514	1832.361533894176	336
2	2522	1834.681054401348	334
2	2525	1834.947556001924	334
2	2528	1835.796228382139	334
2	2537	1840.14206067149	328
2	2539	1841.35546195763	329
2	2546	1843.922575538947	327
2	2548	1845.436633818269	328
2	2550	1848.623251336389	329
2	2552	1849.057709162512	330
2	2554	1849.140823808658	331
2	2556	1849.284929900367	332
2	2558	1849.8840880912	333
2	2560	1850.230442956211	334
2	2562	1854.704901209769	335
2	2564	1855.960267627814	336
2	2566	1861.556004216965	337
2	2570	1863.488118525169	337
2	2575	1865.166608253462	335
2	2577	1865.856946809527	336
2	2585	1868.525986733914	331
2	2587	1868.752735021857	332
2	2590	1872.479243121029	332
2	2593	1873.036825035524	332
2	2599	1876.15432607431	329
2	2615	1887.604956824018	316
2	2620	1891.174281537957	314
2	2622	1891.692661254172	315
2	2625	1893.127401143235	315
2	2627	1893.642508444389	316
2	2630	1894.75664819446	316
2	2637	1898.829570926651	312
2	2639	1898.940490789404	313
2	2642	1900.030517375092	313
2	2644	1900.389345830269	314
2	2647	1900.964690791261	314
2	2652	1902.060246989061	312
2	2655	1903.407314505797	312
2	2657	1905.364948532234	313
2	2663	1909.044518118304	310
2	2665	1909.405759981275	311
2	2669	1910.327472875134	310
2	2681	1917.536557198189	305
2	2683	1922.696387267778	306
2	2685	1923.064555632697	307
2	2687	1933.541747235895	308
2	2689	1934.745031384904	309
2	2691	1937.018193435989	310
2	2693	1938.329327115848	311
2	2695	1939.355333478322	312
2	2697	1939.518484190065	313
2	2699	1940.489578639148	314
2	2701	1941.702188491978	315
2	2704	1944.700149342086	316
2	2706	1944.737740688336	317
2	2708	1948.356381372474	318
2	2710	1951.15889897536	319
2	2712	1951.175062257623	320
2	2714	1954.276526735338	321
2	2716	1955.156744931911	322
2	2718	1955.269702744663	323
2	2720	1957.011692036786	324
2	2722	1957.488493311476	325
2	2725	1959.550004592552	326
2	2729	1961.022061631006	325
2	2737	1964.854924139137	320
2	2739	1965.218149235399	321
2	2743	1966.487962548597	320
2	2747	1970.689742980642	321
2	2749	1971.924187383401	322
2	2751	1972.3942737598	323
2	2753	1973.375404202241	324
2	2755	1974.163067722791	325
2	2757	1975.143868524284	326
2	2759	1977.153636153251	327
2	2761	1978.420994755717	328
2	2763	1980.325472125163	329
2	2765	1980.630857989439	330
2	2767	1985.470386186166	331
2	2769	1986.905218576232	332
2	2771	1994.342606364886	333
2	2773	1999.186228831518	334
2	2775	1999.874167181772	335
2	2777	2001.047034440393	336
2	2782	2006.627289913697	335
2	2784	2006.666352210751	336
2	2789	2009.591508362985	334
2	2791	2009.996852205215	335
2	2794	2012.424930875028	335
2	2797	2013.231202354586	335
2	2799	2013.532182422079	336
2	2802	2013.919768049902	336
2	2804	2016.835763534485	337
2	2806	2017.376884528266	338
2	2809	2017.772345962803	338
2	2813	2019.820503821721	337
2	2815	2020.976203408892	338
2	2819	2022.303681643298	339
2	2821	2024.49368186331	340
2	2823	2028.072813072659	341
2	2830	2036.256120948479	338
2	2833	2037.461155085195	338
2	2835	2038.226408172378	339
2	2837	2038.843546066026	340
2	2849	2049.7135180689	331
2	2853	2050.486944254879	330
2	2855	2050.816210216346	331
2	2860	2053.258266275529	329
2	2862	2053.615680702008	330
2	2864	2054.232538849713	331
2	2874	2058.634222125106	324
2	2880	2061.710770327315	321
2	2884	2063.078057888069	320
2	2887	2067.302843827024	320
2	2893	2070.578577277376	317
2	2895	2070.632869151111	318
2	2900	2072.583085848939	316
2	2902	2072.638451474355	317
2	2908	2075.544906479664	314
2	2910	2075.56564035106	315
2	2917	2079.470799554697	311
2	2923	2084.719434565171	308
2	2927	2088.069448504984	307
2	2929	2088.162560280999	308
2	2933	2090.223244408594	307
2	2937	2091.734370963672	308
2	2939	2093.639380284837	309
2	2941	2093.885364554948	310
2	2943	2094.718634393805	311
2	2945	2095.45621167513	312
2	2949	2097.12403976338	313
2	2953	2099.6984021421	314
2	2955	2100.249330827674	315
2	2957	2101.879719120353	316
2	2961	2104.49954042292	317
2	2963	2105.151843629415	318
2	2965	2106.186263925385	319
2	2967	2108.484496712542	320
2	2970	2109.941519159378	321
2	2973	2114.412420873667	322
2	2975	2116.488259128397	323
2	2977	2117.568422444824	324
2	2980	2119.255121592542	325
2	2986	2124.436819783171	323
2	2992	2127.789614853031	320
2	2994	2128.490919987167	321
2	2996	2129.555229328882	322
2	2998	2129.812576597119	323
2	3008	2132.65505641706	316
2	3011	2133.864990936488	316
2	3013	2134.255523356305	317
2	3016	2137.185671118455	317
2	3019	2137.29815559835	317
2	3025	2142.864661950594	314
2	3027	2144.370338568451	315
2	3034	2146.388598185885	313
2	3036	2146.514269284158	314
2	3038	2155.034418890242	315
2	3040	2159.056828899348	316
2	3042	2159.512197310892	317
2	3044	2160.438749274617	318
2	3046	2161.12286225348	319
2	3048	2161.457353473642	320
2	3050	2164.170544324029	321
2	3055	2165.541865534969	320
2	3058	2165.813287950282	320
2	3060	2166.165224329461	321
2	3062	2166.975946420347	322
2	3064	2167.100393292193	323
2	3068	2168.417189187517	322
2	3072	2169.280177514898	321
2	3077	2172.221432913	319
2	3080	2173.895606680543	319
2	3083	2174.252014433838	319
2	3085	2175.515794771741	320
2	3093	2181.155344219667	317
2	3095	2181.735604446789	318
2	3097	2185.111310297774	319
2	3099	2186.242441485105	320
2	3101	2187.140658344024	321
2	3103	2187.640114139852	322
2	3107	2191.750692321555	322
2	3109	2191.903934298548	323
2	3111	2192.376879964721	324
2	3115	2194.177960320944	323
2	3118	2196.036868565382	323
2	3121	2197.177910230124	323
2	3128	2199.196238342072	319
2	3131	2199.996054856096	319
2	3134	2204.972314366801	319
2	3136	2205.41832479717	320
2	3138	2205.741953536584	321
2	3140	2206.027621699782	322
2	3144	2207.124110841128	323
2	3148	2210.920668969003	324
2	3150	2213.300026957345	325
2	3152	2213.629095925623	326
2	3156	2214.418244937757	327
2	3158	2219.082766212458	328
2	3160	2219.145106583137	329
2	3162	2220.857871883299	330
2	3164	2223.028384735576	331
2	3166	2223.724603002628	332
2	3168	2223.868081906713	333
2	3170	2226.635804826728	334
2	3172	2227.125536906365	335
2	3174	2229.236425981337	336
2	3178	2231.009993605459	337
2	3182	2233.309913429084	338
2	3184	2233.51818898075	339
2	3186	2238.523817451354	340
2	3188	2242.434756572234	341
2	3190	2242.707458190898	342
2	3193	2245.672513641018	343
2	3195	2250.352803482734	344
2	3197	2251.661407766064	345
2	3199	2252.257225634183	346
2	3201	2252.393338569602	347
2	3203	2253.25651586161	348
2	3205	2254.996823940482	349
2	3207	2255.666312993929	350
2	3209	2256.133421649784	351
2	3211	2256.713214782757	352
2	3213	2257.794309049155	353
2	3215	2258.303082690068	354
2	3218	2263.88900244172	355
2	3220	2265.271989241723	356
2	3222	2265.769467761829	357
2	3225	2267.293228674883	358
2	3227	2267.336247840097	359
2	3229	2267.777227559884	360
2	3231	2267.789380749265	361
2	3233	2271.791863843011	362
2	3235	2274.033015344227	363
2	3237	2278.672668347937	364
2	3239	2281.474314129464	365
2	3241	2282.395448427967	366
2	3245	2284.122358938148	367
2	3247	2284.53230574518	368
2	3249	2285.285982422436	369
2	3251	2285.92852341745	370
2	3257	2292.591692509182	371
2	3260	2294.166629885866	372
2	3262	2298.738276090254	373
2	3264	2298.864298216465	374
2	3266	2301.533970229563	375
2	3268	2303.517414341461	376
2	3270	2305.732654678265	377
2	3272	2305.820007711839	378
2	3274	2307.624815801367	379
2	3276	2309.7767837505	380
2	3279	2310.743712185289	381
2	3281	2311.326705689651	382
2	3283	2312.795307995847	383
2	3285	2312.882324737046	384
2	3287	2316.53442938621	385
2	3291	2319.835815675019	386
2	3293	2320.077499009783	387
2	3295	2321.877865137109	388
2	3297	2322.818641277146	389
2	3300	2325.995174814149	390
2	3302	2327.664577727401	391
2	3304	2329.185744855135	392
2	3306	2330.074636736306	393
2	3308	2331.314510264313	394
2	3310	2332.688857106059	395
2	3312	2333.292201222655	396
2	3314	2334.422417521226	397
2	3317	2337.021595133179	398
2	3319	2338.499766709273	399
2	3321	2338.873084347111	400
2	3324	2344.534155370648	401
2	3326	2344.873245526517	402
2	3328	2346.047686175341	403
2	3330	2346.165647496146	404
2	3332	2351.348070479566	405
2	3334	2351.533489281054	406
2	3336	2352.15202761586	407
2	3338	2354.72248926637	408
2	3340	2355.181339265004	409
2	3342	2355.999272429835	410
2	3344	2357.073133676982	411
2	3346	2357.210095873319	412
2	3348	2357.575730019924	413
2	3350	2358.22181341578	414
2	3354	2360.849186443372	415
2	3356	2361.867133146613	416
2	3358	2362.561070355285	417
2	3360	2363.764793303659	418
2	3362	2364.613122166732	419
2	3364	2367.148383502986	420
2	3367	2376.343712296984	421
2	3369	2378.680017032907	422
2	3371	2379.900946166642	423
2	3373	2387.184788508785	424
2	3375	2387.541278310949	425
2	3377	2387.652515662726	426
2	3379	2390.547199022879	427
2	3381	2397.238009876024	428
2	3383	2401.712937026186	429
2	3385	2402.107730784502	430
2	3387	2402.892711099123	431
2	3389	2405.80543775721	432
2	3391	2407.711002789818	433
2	3393	2408.304268525376	434
2	3395	2409.080166618729	435
2	3397	2410.663670035534	436
2	3399	2411.353910664461	437
2	3401	2413.232270811775	438
2	3403	2414.479153583878	439
2	3405	2414.939583865014	440
2	3407	2419.571749190037	441
2	3411	2422.548810565209	442
2	3413	2426.6878124253	443
2	3416	2428.44405086483	444
2	3418	2429.252312704429	445
2	3420	2429.327020540377	446
2	3422	2429.907323031012	447
2	3424	2430.466429227747	448
2	3426	2432.079073116988	449
2	3428	2433.722936547841	450
2	3430	2441.063441164334	451
2	3434	2447.606154315469	452
2	3436	2448.52856741862	453
2	3438	2449.588253622167	454
2	3440	2451.337970509611	455
2	3442	2451.686167023941	456
2	3444	2454.36651100329	457
2	3446	2454.967709562796	458
2	3448	2458.181702041621	459
2	3450	2462.666777171712	460
2	3452	2466.791653431243	461
2	3455	2467.714092867681	462
2	3457	2468.524038092212	463
2	3459	2468.946582297444	464
2	3461	2469.933279760845	465
2	3463	2470.136675536756	466
2	3468	2472.496927859213	465
2	3471	2473.655502830919	465
2	3475	2474.541135649003	466
2	3479	2476.614875662707	467
2	3481	2476.756994543536	468
2	3483	2477.938709714399	469
2	3485	2478.532987738717	470
2	3489	2480.529677884923	471
2	3491	2481.877874867845	472
2	3493	2482.774080808101	473
2	3495	2483.88744072494	474
2	3501	2490.584543479955	475
2	3503	2491.025255424879	476
2	3505	2496.134262052955	477
2	3507	2497.118520840456	478
2	3510	2498.892267154484	479
3	361	353.620728237707	132
3	363	356.364561135163	133
3	365	357.035676095856	134
3	368	361.196545193339	135
3	370	363.351580402831	136
3	374	368.714930868996	137
3	378	375.87464093203	138
3	380	377.493939190434	139
3	387	380.681797903291	140
3	389	385.08418926854	141
3	391	385.479785241869	142
3	394	385.8835951887	143
3	396	388.954789930943	144
3	398	389.711681568742	145
3	400	396.733341876947	146
3	402	396.887254613773	147
3	404	397.788634962716	148
3	406	398.574496008917	149
3	408	398.758476729592	150
3	411	404.224008174323	151
3	413	405.066689357153	152
3	417	410.810614290909	153
3	419	412.503722244344	154
3	421	412.678206930427	155
3	423	413.040082409354	156
3	425	413.473932061435	157
3	427	415.471190538856	158
3	429	416.132234841155	159
3	431	416.267862417249	160
3	433	416.671886572685	161
3	438	421.552690791051	162
3	442	426.029479430182	163
3	444	426.215144685665	164
3	446	428.432313598118	165
3	448	428.877070490458	166
3	450	429.256647994673	167
3	452	430.533786797694	168
3	454	434.229655311791	169
3	456	435.392856823422	170
3	458	437.130464283199	171
3	460	440.031502368246	172
3	462	440.373807755125	173
3	464	440.399458619085	174
3	466	440.690570520283	175
3	468	442.973586912745	176
3	470	444.731420183276	177
3	472	445.376250593781	178
3	474	445.728148948378	179
3	476	447.580729183296	180
3	478	448.495531437584	181
3	481	450.07472797054	182
3	484	456.776780246305	183
3	486	457.247692858141	184
3	488	459.863964639396	185
3	490	460.156613822653	186
3	492	462.760844868554	187
3	494	465.69292841582	188
3	496	467.109083640741	189
3	500	468.396214524506	190
3	502	468.666949497023	191
3	504	470.131196146895	192
3	506	470.30713631375	193
3	510	476.078849962232	194
3	512	477.102449060355	195
3	514	479.165433391795	196
3	517	487.671916622536	197
3	519	488.825314681808	198
3	521	489.608149131294	199
3	523	490.854599401647	200
3	525	491.840475468528	201
3	527	492.412725908892	202
3	529	493.394303792136	203
3	531	493.987774650685	204
3	533	494.481145752871	205
3	535	494.527670867751	206
3	537	494.790801493163	207
3	541	500.17924672944	208
3	543	501.057164861903	209
3	545	502.053177822198	210
3	547	503.976606639746	211
3	549	506.066488311287	212
3	551	506.83468895462	213
3	553	507.71710002991	214
3	555	509.734358984655	215
3	557	509.968416529656	216
3	559	510.767083141211	217
3	562	511.957521099282	218
3	564	513.626486333227	219
3	566	514.892185995772	220
3	568	520.357879621587	221
3	570	520.477689359094	222
3	572	523.887234755727	223
3	574	527.279446552831	224
3	576	529.279611111778	225
3	578	529.96273696199	226
3	582	532.777920950043	227
3	584	534.883811225214	228
3	586	536.400081835658	229
3	588	536.733857845088	230
3	590	539.316223014881	231
3	592	540.818924568782	232
3	594	541.494557088231	233
3	596	543.786899066143	234
3	598	546.18104595624	235
3	600	548.669244422435	236
3	602	553.237849153949	237
3	604	555.952226705883	238
3	609	564.479574607539	239
3	613	566.208557966847	240
3	619	577.979117437701	241
3	621	578.936801733517	242
3	624	580.693720324387	243
3	626	583.590482159429	244
3	629	588.285401492548	245
3	631	588.390592372889	246
3	633	588.429759415075	247
3	635	590.582138983551	247
3	636	591.552118469133	246
3	637	592.127680080954	245
3	638	592.320283207711	244
3	639	593.132730567532	243
3	641	593.298254425647	243
3	642	593.449573808244	243
3	643	593.906985556405	242
3	645	594.763821141639	242
3	646	595.339344533474	242
3	647	595.854120823174	241
3	649	595.912925216373	241
3	651	596.521675667204	242
3	653	598.542611885548	243
3	654	598.782314854344	243
3	655	598.902271044001	242
3	656	598.921178578335	241
3	657	599.513631631315	240
3	658	600.272789787	239
3	660	600.688646269472	239
3	661	601.153339691262	239
3	662	601.675574316656	238
3	663	601.852293714346	237
3	664	602.788561876085	236
3	665	603.524029653421	235
3	667	604.134092329705	235
3	668	604.600913945792	235
3	669	604.995514972722	234
3	670	605.445026573548	233
3	672	606.243443397095	233
3	674	606.631123182073	234
3	675	606.646290514797	234
3	676	607.011242869776	233
3	677	607.467571699053	232
3	679	608.084918131598	232
3	681	609.689911625526	233
3	682	609.844109782786	233
3	684	610.511795731653	233
3	685	611.654284850492	233
3	686	611.950788594513	232
3	688	612.101741877464	232
3	689	612.607300986423	232
3	690	612.870634869246	231
3	691	613.597343576453	230
3	693	614.009381457619	230
3	699	619.069057550999	231
3	701	622.62925887232	232
3	703	626.212220669707	233
3	705	626.560379591279	234
3	707	628.718110827395	235
3	709	629.381804195652	236
3	711	631.722227238349	237
3	715	632.122678194533	238
3	717	632.797111356976	239
3	719	635.461467167717	240
3	722	640.104368482486	241
3	724	643.060450291625	242
3	726	643.174064798114	243
3	728	645.547421514426	244
3	730	646.640659227572	245
3	732	647.50956273849	246
3	734	650.601508745709	247
3	736	653.82444067486	248
3	738	659.066824151939	249
3	740	659.807700046323	250
3	742	660.150322603052	251
3	744	660.291351246394	252
3	746	661.926887630516	253
3	748	663.884473360815	254
3	750	665.08441283951	255
3	752	665.421011221056	256
3	754	668.185499233366	257
3	756	669.026194380327	258
3	760	672.682049683223	259
3	763	674.528529670956	260
3	765	674.62182131041	261
3	768	678.668853538064	262
3	771	680.077848476473	263
3	772	680.17773045319	263
3	773	680.826947880324	262
3	777	685.32498376096	262
3	780	687.102406912159	263
3	781	688.047316982553	263
3	782	688.769366826368	262
3	784	689.564442611144	262
3	786	689.691959330825	263
3	787	690.66433227684	263
3	788	691.483163495383	262
3	789	691.856153777703	261
3	790	691.891210925644	260
3	791	692.821751021374	259
3	792	694.094466835333	258
3	793	694.706963037434	257
3	795	694.805792197843	257
3	797	694.856268459692	258
3	798	695.253421960974	258
3	799	696.2744731496	257
3	800	696.848833572723	256
3	801	698.458876610184	255
3	802	698.789745634426	254
3	803	698.951611097394	253
3	805	701.013408124683	253
3	806	701.25694333536	253
3	807	701.519186340901	252
3	808	702.626674732889	251
3	810	702.809276316265	251
3	811	703.564323947023	251
3	812	704.173256366678	250
3	813	704.871151348052	249
3	814	705.213366117322	248
3	815	706.485825526201	247
3	817	706.715902977378	247
3	818	707.231991625882	247
3	819	708.187933152453	246
3	820	709.007192594384	245
3	822	709.40526970961	245
3	826	715.936455690835	246
3	828	715.955917968516	247
3	830	718.508880913156	248
3	832	726.576471148829	249
3	834	727.07147664118	250
3	836	727.165436815163	251
3	838	727.329642062726	252
3	840	729.002777074251	253
3	842	730.043974275628	254
3	844	730.253478557743	255
3	848	733.338992465921	256
3	850	734.201595400783	257
3	852	736.102714781227	258
3	854	737.105995526153	259
3	856	739.663102143969	260
3	858	740.642805946093	261
3	860	740.922176633286	262
3	864	741.952845408489	263
3	866	750.65593396326	264
3	869	755.972059754748	265
3	873	756.675860019858	266
3	877	762.375238077051	267
3	879	762.905600476433	268
3	881	763.303088769712	269
3	883	763.653697669897	270
3	885	766.276168744699	271
3	887	768.147746131155	271
3	889	768.585370451651	271
3	890	769.106712277796	271
3	892	770.865372138212	271
3	893	770.868988223544	271
3	894	771.033769316575	270
3	895	772.769306005555	269
3	896	775.10840301389	268
3	897	775.188681097795	267
3	898	775.826163508363	266
3	899	776.86141253151	265
3	903	777.925043405846	264
3	904	778.640237455698	263
3	905	779.383108041793	262
3	906	780.406107398121	261
3	908	780.857568110627	261
3	909	783.578393934827	261
3	910	784.997383560099	260
3	912	785.164147104375	260
3	914	785.281582525404	261
3	916	787.020754985924	262
3	917	787.144683924117	262
3	918	788.241855238179	261
3	920	788.418056663761	261
3	921	788.59202551605	261
3	922	788.667566127134	260
3	923	789.385776774601	259
3	924	789.440318339452	258
3	925	789.533204119423	257
3	927	790.817848846655	257
3	929	791.582845301456	258
3	931	792.161638296866	259
3	932	793.02952982433	259
3	933	794.055961171087	258
3	935	795.116922950606	258
3	936	795.153161030177	258
3	937	795.295209221464	257
3	938	797.25900635412	256
3	940	798.469345248031	256
3	941	798.713518790154	256
3	943	798.785222621849	256
3	944	799.574220190073	256
3	945	799.654067012531	255
3	946	799.78361174405	254
3	947	800.18564846599	253
3	949	800.440446917348	253
3	950	801.575572796191	253
3	951	802.714543406964	252
3	952	803.240347300644	251
3	954	803.440454625695	251
3	955	803.952092508832	251
3	957	804.183369284595	251
3	958	804.851281493094	251
3	960	805.068168520793	251
3	961	805.915916040069	251
3	963	806.007006614627	251
3	965	806.069340811636	252
3	966	806.517151877888	252
3	967	807.438757614382	251
3	968	807.963235228099	250
3	969	809.232830030876	249
3	970	809.25530804502	248
3	972	809.519221317629	248
3	973	809.791826310882	248
3	974	810.30222446499	247
3	975	810.807302686236	246
3	976	811.559059716235	245
3	977	813.302823422021	244
3	978	813.316230949966	243
3	980	813.596715553983	243
3	981	814.562943404387	243
3	982	815.176356115605	242
3	983	815.279427206122	241
3	984	815.328543432178	240
3	985	817.174680499084	239
3	986	817.41155319489	238
3	987	817.992838992869	237
3	989	818.312268277479	237
3	990	819.851936134509	237
3	991	820.320323855582	236
3	993	821.357373125426	236
3	994	821.40525975043	236
3	995	823.854905274255	235
3	996	824.906592692251	234
3	997	825.700174798362	233
3	999	826.365275622245	233
3	1001	826.733245822775	234
3	1003	827.254548766502	235
3	1004	827.650372772399	235
3	1005	827.94064120946	234
3	1006	827.960526773591	233
3	1007	827.988385179856	232
3	1008	832.642169047387	231
3	1009	832.873164972157	230
3	1010	833.021168009522	229
3	1012	833.206717237232	229
3	1014	833.531002074481	230
3	1015	833.914927873281	230
3	1016	835.209457308606	229
3	1017	835.38816723085	228
3	1018	835.707671909941	227
3	1019	837.521236375713	226
3	1020	838.60205985213	225
3	1022	839.634939749019	225
3	1023	840.094618124035	225
3	1024	840.552961832072	224
3	1025	840.738137209878	223
3	1026	840.980885893636	222
3	1027	842.437578377023	221
3	1029	842.528557695517	221
3	1031	842.646769343853	222
3	1032	842.745913068595	222
3	1033	843.154431611507	221
3	1035	843.447557488373	221
3	1036	843.526550841626	221
3	1038	844.152254193144	221
3	1039	844.165963833252	221
3	1040	844.393397831734	220
3	1041	844.635551397279	219
3	1042	844.935598144419	218
3	1043	847.367085385815	217
3	1044	847.745351974941	216
3	1045	849.169172341403	215
3	1046	849.227571458986	214
3	1048	849.25161233715	214
3	1049	850.356317318208	214
3	1050	850.684000495576	213
3	1051	850.705608552409	212
3	1053	851.363871225307	212
3	1055	852.384715733498	213
3	1056	853.207398800428	213
3	1057	854.288783309338	212
3	1058	855.336386395096	211
3	1059	855.435587686901	210
3	1060	855.727752209849	209
3	1062	857.447625391526	209
3	1063	857.506571184291	209
3	1065	857.839690342784	209
3	1067	857.902758158637	210
3	1069	858.10912500014	211
3	1070	858.762932791717	211
3	1071	858.882560197846	210
3	1072	859.246553041547	209
3	1074	860.055569901367	209
3	1075	860.083177152898	209
3	1077	860.319637799385	209
3	1079	860.439483065943	210
3	1080	860.485784080324	210
3	1081	860.677702841932	209
3	1082	861.637173576552	208
3	1084	862.420741358511	208
3	1085	863.20071422188	208
3	1086	863.88043970409	207
3	1087	863.914702835614	206
3	1088	865.205798354613	205
3	1090	865.303081399471	205
3	1092	866.594305234927	206
3	1093	866.79529237675	206
3	1095	867.270371447061	206
3	1096	867.844329589756	206
3	1097	869.01369896981	205
3	1098	869.471320396157	204
3	1100	869.693635993797	204
3	1101	870.148290457382	204
3	1102	870.855884026747	203
3	1104	870.920286906979	203
3	1105	870.94860670528	203
3	1107	871.136042689979	203
3	1108	872.44048585064	203
3	1109	875.213879119561	202
3	1110	875.349668556618	201
3	1111	875.437802989902	200
3	1112	875.854937919034	199
3	1114	876.070733653777	199
3	1116	876.265247554233	200
3	1118	876.291509195164	201
3	1119	876.488672814382	201
3	1121	878.873747258888	201
3	1122	879.062585065126	201
3	1124	880.274499023216	201
3	1125	880.700487533409	201
3	1126	881.09101813077	200
3	1127	881.180556098741	199
3	1129	881.202213383961	199
3	1131	881.358953306322	200
3	1132	881.603791354706	200
3	1133	881.884007389761	199
3	1135	882.033803057806	199
3	1136	882.412536323412	199
3	1138	882.827764552909	199
3	1139	884.645647481665	199
3	1140	885.082300489589	198
3	1141	885.733559507014	197
3	1145	887.058759772355	197
3	1147	887.128174010565	198
3	1149	887.198592352217	199
3	1151	887.394271175119	200
3	1153	887.431017052479	201
3	1155	889.661479848296	202
3	1157	890.426097370749	203
3	1161	901.061629700842	204
3	1163	902.002047599258	205
3	1167	905.143950669742	206
3	1170	916.704607446869	207
3	1172	916.889886153567	208
3	1174	920.265249078765	209
3	1176	921.715261818522	210
3	1179	923.766934698208	211
3	1181	925.038161125811	211
3	1182	925.232966913115	210
3	1183	925.524716224099	209
3	1184	925.54818675732	208
3	1185	926.985097791636	207
3	1187	928.348638560449	207
3	1188	928.54765809474	207
3	1192	928.682143031095	207
3	1194	929.405090079715	208
3	1196	932.046546403997	209
3	1198	935.343864178761	210
3	1200	936.021515010105	211
3	1202	936.993003219721	212
3	1204	937.914323205865	213
3	1206	938.682140246036	214
3	1208	938.715886859905	215
3	1210	939.648506857872	216
3	1212	943.235423226032	216
3	1214	943.482964502516	216
3	1215	944.672242850916	216
3	1217	945.339336300127	216
3	1219	946.079988723509	217
3	1221	946.819003703115	218
3	1223	948.474314232002	219
3	1224	950.309135293235	219
3	1225	950.694808256713	218
3	1226	951.304690914711	217
3	1227	952.872897646275	216
3	1228	954.384192458922	215
3	1230	954.512834975762	215
3	1232	954.703507106167	216
3	1233	955.056598326817	216
3	1235	955.649486929978	216
3	1236	957.503878675704	216
3	1237	957.855353858306	215
3	1238	958.687227875339	214
3	1240	958.795714148704	214
3	1241	959.60843368597	214
3	1243	959.955706537502	214
3	1245	960.014995693331	215
3	1246	960.622441611362	215
3	1248	960.706389631658	215
3	1250	960.821068880689	216
3	1251	960.873407233133	216
3	1252	961.465405941735	215
3	1253	961.953284581986	214
3	1254	961.977039354536	213
3	1255	961.983658880474	212
3	1257	962.551728766791	212
3	1258	962.675225401799	212
3	1259	963.118664445528	211
3	1260	963.207615953355	210
3	1261	963.426660832867	209
3	1262	964.828591089937	208
3	1264	965.100160495507	208
3	1265	965.355582972033	208
3	1266	965.573322933136	207
3	1267	965.68936433428	206
3	1269	965.707899424462	206
3	1271	965.771230755986	207
3	1272	966.927518186999	207
3	1273	967.017118136939	206
3	1274	967.713033813635	205
3	1276	968.113273218355	205
3	1277	969.089756124838	205
3	1279	969.431154935784	205
3	1281	971.523355216358	206
3	1282	972.732332613309	206
3	1283	972.934460850503	205
3	1285	974.009681159103	205
3	1286	974.332259939829	205
3	1287	974.347462306966	204
3	1288	974.746059957384	203
3	1289	977.196578937884	202
3	1290	977.561929828317	201
3	1292	978.175200680845	201
3	1294	979.484995939746	202
3	1295	980.164816803292	202
3	1296	980.426149760218	201
3	1297	981.30050801582	200
3	1299	981.30990832871	200
3	1300	982.617281217932	200
3	1301	982.992148575659	199
3	1302	984.18118605995	198
3	1304	984.538970795232	198
3	1306	988.645633133681	199
3	1308	990.237650930406	200
3	1309	990.539411613764	200
3	1310	993.000462348193	199
3	1311	993.162997814446	198
3	1312	993.235196421334	197
3	1314	995.566607263745	197
3	1316	997.413761381275	198
3	1318	997.809558082374	199
3	1319	998.434839879105	199
3	1320	999.817024586379	198
3	1321	999.950514825504	197
3	1323	1000.657792886142	197
3	1325	1001.569513836067	198
3	1327	1001.592772614752	199
3	1328	1001.807651620145	199
3	1330	1002.162189019053	199
3	1331	1002.24005838101	199
3	1335	1004.479640551096	198
3	1336	1005.963724399281	197
3	1337	1006.354700445209	196
3	1338	1006.499962001569	195
3	1340	1007.446658954156	195
3	1342	1008.172282883317	196
3	1343	1009.067957373551	196
3	1345	1010.099621959163	196
3	1347	1010.498877866462	197
3	1348	1010.710008177441	197
3	1349	1013.265018681043	196
3	1351	1013.727095700785	196
3	1355	1017.604682941381	197
3	1357	1017.628732397874	198
3	1359	1017.631252432433	199
3	1361	1019.288616223327	200
3	1363	1020.137525412959	200
3	1364	1020.912912311247	199
3	1365	1021.491368607654	198
3	1366	1022.183167252465	197
3	1367	1022.502708443727	196
3	1368	1024.117781745293	195
3	1369	1025.204252670374	194
3	1370	1026.799289540282	193
3	1372	1026.82207071731	193
3	1373	1027.185782954031	193
3	1375	1027.282839071138	193
3	1376	1027.313464391403	193
3	1377	1028.517783012748	192
3	1378	1028.800127162869	191
3	1380	1028.911593116989	191
3	1382	1029.543046631838	192
3	1384	1030.207489184279	193
3	1385	1030.374883826737	193
3	1387	1031.167189214512	193
3	1388	1031.360479327424	193
3	1389	1031.418505701951	192
3	1391	1031.710378557374	192
3	1392	1031.89211623902	192
3	1393	1032.407742670759	191
3	1394	1032.473302965806	190
3	1395	1033.23563785844	189
3	1396	1033.702763446898	188
3	1397	1034.063358786918	187
3	1398	1034.140364954901	186
3	1399	1034.489238078365	185
3	1400	1034.534697880035	184
3	1404	1045.85406865594	184
3	1406	1047.281168629719	185
3	1411	1056.51682214066	186
3	1413	1058.349452220503	187
3	1415	1061.236064213234	188
3	1417	1061.600330998759	189
3	1419	1061.749419428983	190
3	1421	1062.824126131604	191
3	1423	1070.125592266331	192
3	1425	1070.558592065629	193
3	1429	1079.030181312564	194
3	1431	1081.057069188891	195
3	1433	1081.606454168799	196
3	1435	1082.803707012397	197
3	1437	1084.194072332277	198
3	1439	1085.011202045368	199
3	1441	1087.390273868578	200
3	1443	1088.063826635362	201
3	1445	1088.680106398286	202
3	1447	1088.876415304188	203
3	1449	1095.606513969732	204
3	1451	1095.863381695958	205
3	1453	1100.440658937967	206
3	1455	1101.15201950813	207
3	1457	1102.642940780738	208
3	1459	1103.037239379615	209
3	1461	1104.453842491513	210
3	1463	1105.399751706979	211
3	1465	1106.554513507534	212
3	1467	1108.933715831091	213
3	1469	1108.953946010706	214
3	1471	1109.948715610904	215
3	1473	1113.771877583781	216
3	1477	1114.846719214886	217
3	1479	1117.133276256855	218
3	1481	1119.249396391813	219
3	1488	1125.457919751875	220
3	1492	1131.613971689948	221
3	1494	1132.179816311795	222
3	1496	1139.471172768484	223
3	1498	1139.769641638765	224
3	1500	1140.886002564965	225
3	1504	1143.148592265246	226
3	1506	1143.388603339692	227
3	1509	1145.407079246774	228
3	1511	1150.813947578495	229
3	1513	1152.715263171149	230
3	1515	1153.176337025137	231
3	1517	1158.350021804211	232
3	1520	1159.163451899635	233
3	1522	1159.286771308134	234
3	1524	1166.316798307954	235
3	1526	1167.532560016259	235
3	1528	1168.875655846336	235
3	1530	1170.127698168792	236
3	1531	1170.826798897718	236
3	1532	1172.231430435533	235
3	1533	1174.293723228386	234
3	1534	1177.356609081447	233
3	1536	1177.407351791488	233
3	1538	1178.274226972434	234
3	1540	1178.408521469187	235
3	1541	1181.409308394167	235
3	1542	1181.540486303512	234
3	1543	1182.429036699205	233
3	1544	1182.51625961835	232
3	1546	1183.533876227491	232
3	1548	1185.336498060565	233
3	1550	1185.772801044384	234
3	1552	1186.117500719399	235
3	1553	1186.934143016125	235
3	1554	1186.980661848471	234
3	1555	1187.201401418217	233
3	1556	1187.283352500321	232
3	1558	1187.321438466772	232
3	1559	1187.327271769532	232
3	1560	1187.71206579272	231
3	1561	1188.196094037937	230
3	1562	1190.395267424983	229
3	1563	1190.582452338893	228
3	1564	1192.100868497961	227
3	1565	1192.370592839446	226
3	1569	1197.790902223739	226
3	1571	1197.882701710282	227
3	1573	1201.83187454852	228
3	1575	1203.862072197182	229
3	1577	1204.720032718152	229
3	1579	1204.770405671685	229
3	1580	1206.716913916404	229
3	1581	1206.792968994814	228
3	1582	1207.563515515355	227
3	1583	1207.919579309714	226
3	1585	1208.598159718149	226
3	1586	1208.667555912831	226
3	1587	1209.343281568719	225
3	1588	1211.035867238378	224
3	1589	1212.167749094005	223
3	1590	1212.306001481569	222
3	1591	1214.146817093967	221
3	1592	1215.420781591255	220
3	1593	1217.044507004159	219
3	1594	1217.113676321775	218
3	1595	1217.743339777078	217
3	1596	1217.758799570468	216
3	1597	1218.476966978294	215
3	1599	1219.219092933596	215
3	1600	1219.267074567179	215
3	1601	1220.171982085033	214
3	1602	1220.268701054257	213
3	1606	1222.673222359841	213
3	1608	1223.45507324811	214
3	1610	1224.602928128434	215
3	1612	1225.693271517245	216
3	1614	1228.197869596309	217
3	1616	1228.296853229393	218
3	1618	1228.575630360736	219
3	1620	1229.49134779261	220
3	1622	1231.598725723892	221
3	1625	1231.962408803206	222
3	1626	1232.039734887838	222
3	1627	1233.243165512805	221
3	1628	1233.649036627601	220
3	1629	1236.65121415387	219
3	1630	1236.812857256441	218
3	1631	1236.936969340668	217
3	1633	1237.372459053468	217
3	1635	1237.721272877083	218
3	1636	1237.762305232231	218
3	1637	1238.589182016356	217
3	1638	1238.754148857869	216
3	1640	1239.082578817934	216
3	1641	1239.283361430562	216
3	1642	1239.631843148036	215
3	1643	1239.96849377231	214
3	1645	1240.026512559067	214
3	1649	1243.407040501597	215
3	1651	1243.920084335492	216
3	1653	1244.023156013044	217
3	1655	1244.715342539413	218
3	1657	1244.821305359619	219
3	1659	1245.905957947004	220
3	1661	1246.106372344778	221
3	1663	1249.195837573476	221
3	1665	1249.38464229875	221
3	1666	1249.484766744558	221
3	1668	1249.528279341337	221
3	1670	1249.550390603913	222
3	1671	1250.042007136069	222
3	1672	1250.678178586989	221
3	1674	1250.983655323266	221
3	1676	1251.307776778319	222
3	1678	1251.456581729891	223
3	1679	1252.848206998641	223
3	1680	1254.014645348174	222
3	1681	1254.589212200684	221
3	1682	1254.972062360813	220
3	1683	1255.931940116934	219
3	1684	1257.869828630191	218
3	1685	1257.926739214416	217
3	1687	1259.114838559283	217
3	1688	1259.294090291227	217
3	1690	1260.124570754936	217
3	1692	1260.208196175912	218
3	1694	1260.302936903011	219
3	1696	1260.303374362796	220
3	1700	1260.72945137047	221
3	1702	1264.512605537428	221
3	1704	1264.784010073092	221
3	1705	1265.928367343187	221
3	1706	1266.522236129637	220
3	1708	1267.15422225313	220
3	1710	1267.379951325059	221
3	1712	1269.373950191095	222
3	1713	1270.246979586799	222
3	1714	1272.809934185569	221
3	1715	1273.09983050253	220
3	1717	1273.700545301955	220
3	1718	1275.362365815743	220
3	1720	1277.403973015465	220
3	1721	1278.809063839165	220
3	1723	1279.518970617922	220
3	1725	1279.74505507975	221
3	1727	1280.119187852184	222
3	1728	1281.986781715943	222
3	1729	1282.137568256482	221
3	1730	1282.967725244701	220
3	1731	1284.21187173006	219
3	1732	1284.607518535837	218
3	1733	1284.67920424463	217
3	1735	1284.799750808519	217
3	1737	1284.832468184087	218
3	1738	1285.032390465744	218
3	1740	1285.63580723043	218
3	1742	1285.9473303647	219
3	1743	1285.961359055598	219
3	1744	1286.298007871109	218
3	1745	1286.359377970098	217
3	1746	1286.891239883676	216
3	1747	1287.342048313282	215
3	1748	1289.130429718426	214
3	1749	1289.429474113052	213
3	1753	1291.184412917899	213
3	1755	1291.558542890377	214
3	1757	1293.919802509845	215
3	1759	1294.04309750124	215
3	1760	1294.723922075675	214
3	1761	1296.042855938396	213
3	1762	1296.805219997179	212
3	1763	1297.405712425852	211
3	1765	1298.38703378962	211
3	1766	1298.497350705645	211
3	1768	1298.667693076086	211
3	1770	1299.114038687466	212
3	1772	1300.48318526038	213
3	1773	1300.486512981004	213
3	1774	1301.682157349224	212
3	1776	1301.742255257509	212
3	1778	1301.941719115747	213
3	1780	1302.278371858181	214
3	1781	1302.437018146691	214
3	1782	1303.504290392576	213
3	1784	1305.179433924727	213
3	1785	1305.394539647154	213
3	1787	1305.603664142221	213
3	1788	1305.662067216993	213
3	1790	1305.985216524233	213
3	1792	1306.85635436943	214
3	1793	1306.991403497595	214
3	1795	1307.34885919114	214
3	1796	1307.376236337316	214
3	1797	1307.545759859202	213
3	1799	1307.623061183118	213
3	1800	1307.93083172392	213
3	1802	1309.002312189484	213
3	1803	1309.724971172236	213
3	1804	1310.026511961212	212
3	1806	1310.033167459047	212
3	1808	1310.133923662447	213
3	1809	1311.090547849789	213
3	1810	1311.643912791907	212
3	1811	1311.80576986507	211
3	1813	1313.939610213013	211
3	1814	1314.034801410285	211
3	1815	1315.341371258153	210
3	1817	1315.750004862055	210
3	1818	1315.994732857059	210
3	1819	1316.082426611919	209
3	1821	1316.403162910834	209
3	1822	1316.511014031998	209
3	1823	1316.767727358064	208
3	1824	1317.913913388574	207
3	1825	1318.226948289008	206
3	1827	1319.915458759101	206
3	1829	1321.02189335927	207
3	1830	1321.409813943922	207
3	1831	1321.586564192989	206
3	1832	1322.065651314646	205
3	1834	1322.818510929456	205
3	1835	1325.038369340513	205
3	1837	1325.38213689727	205
3	1838	1325.884986125175	205
3	1839	1326.521737422319	204
3	1840	1326.571110407764	203
3	1841	1328.284446833917	202
3	1842	1329.142203645577	201
3	1843	1329.215694638899	200
3	1844	1329.703258426328	199
3	1845	1329.81577070154	198
3	1846	1331.211637542682	197
3	1847	1331.920300502497	196
3	1848	1332.11992440411	195
3	1849	1332.684922525308	194
3	1850	1333.81031341489	193
3	1851	1334.310333016968	192
3	1852	1334.943735177415	191
3	1854	1334.978283619763	191
3	1855	1335.567087142255	191
3	1856	1336.204151523677	190
3	1857	1336.873850856869	189
3	1859	1337.114301693333	189
3	1860	1337.59274324033	189
3	1861	1337.974537536026	188
3	1863	1339.432574370208	188
3	1865	1340.201778723055	189
3	1867	1340.677920705188	190
3	1869	1340.874813254785	191
3	1871	1341.492782071405	192
3	1873	1341.559970384146	193
3	1875	1341.628901379295	194
3	1879	1343.41847128384	195
3	1881	1343.608426026918	196
3	1883	1343.9296120877	197
3	1885	1349.234005297823	198
3	1887	1349.867028966785	199
3	1889	1351.96954440864	200
3	1891	1360.057924048833	201
3	1893	1360.775920691884	202
3	1895	1362.154804963517	202
3	1897	1364.303145127693	202
3	1899	1364.473225084814	203
3	1900	1365.80679019905	203
3	1901	1367.235166092161	202
3	1905	1373.509904568025	202
3	1907	1373.699541739638	203
3	1909	1382.58587871939	203
3	1910	1382.927091518273	202
3	1912	1383.64162908748	202
3	1913	1384.530183773011	202
3	1914	1385.484927391049	201
3	1915	1385.513478519455	200
3	1916	1386.813875827921	199
3	1918	1387.103144659272	199
3	1919	1387.559775203319	199
3	1920	1387.655350264781	198
3	1922	1388.758089432697	198
3	1923	1388.765833676924	198
3	1924	1388.915456759275	197
3	1925	1389.385804192816	196
3	1927	1389.914310435117	196
3	1928	1389.942868545464	196
3	1929	1390.021050094761	195
3	1931	1390.363123288984	195
3	1933	1391.108785886284	196
3	1935	1392.219965623883	197
3	1936	1393.014828188637	197
3	1937	1394.120659986244	196
3	1938	1395.566727783614	195
3	1939	1395.719097329695	194
3	1940	1396.611501483817	193
3	1941	1397.627797451775	192
3	1942	1398.95442772003	191
3	1943	1400.50682612678	190
3	1944	1400.964025812561	189
3	1946	1401.660935465129	189
3	1947	1402.064287872558	189
3	1949	1402.488055872316	189
3	1950	1402.617687341129	189
3	1951	1402.625245991479	188
3	1952	1403.043628497461	187
3	1953	1403.385133905129	186
3	1955	1403.426480774544	186
3	1956	1403.573094175799	186
3	1957	1404.087861813195	185
3	1958	1405.571154619034	184
3	1959	1406.562512163734	183
3	1961	1408.232373710447	183
3	1962	1408.860164429015	183
3	1963	1409.458915658636	182
3	1965	1409.60718646325	182
3	1967	1410.657751084714	183
3	1969	1410.896396616297	184
3	1971	1410.910784352389	185
3	1972	1410.934257739991	185
3	1974	1410.978477956142	185
3	1975	1411.087487845914	185
3	1979	1412.56466141368	185
3	1981	1414.536929822541	186
3	1983	1414.787447380798	187
3	1985	1415.619133126988	188
3	1987	1418.029577677698	189
3	1989	1418.656621083888	190
3	1991	1418.669852956341	191
3	1993	1419.102235814161	192
3	1995	1421.026609435624	193
3	1997	1422.410710745824	194
3	1999	1423.634048404294	195
3	2001	1433.233140821778	196
3	2003	1433.607888295286	197
3	2005	1435.77934270714	198
3	2007	1438.053609510536	199
3	2009	1439.934380538137	199
3	2010	1439.954684870284	198
3	2011	1440.146838328486	197
3	2013	1442.672266157984	197
3	2015	1442.828660173963	198
3	2016	1443.430586681431	198
3	2017	1443.661121491244	197
3	2021	1450.051994166053	197
3	2023	1451.034619467814	198
3	2025	1451.466434338202	199
3	2027	1452.110944983877	200
3	2029	1452.14190984486	201
3	2031	1452.770541254533	202
3	2033	1453.971193022981	203
3	2035	1459.554244825805	204
3	2037	1464.446213778427	205
3	2041	1467.461177333349	206
3	2045	1471.419802513578	207
3	2048	1474.443398538893	208
3	2052	1479.819376520978	209
3	2054	1480.057710593352	210
3	2056	1480.125171556194	211
3	2058	1480.181348648857	212
3	2060	1485.141365387288	213
3	2062	1486.19996394047	214
3	2064	1486.425273783154	215
3	2066	1490.426646435468	216
3	2068	1490.798185540011	217
3	2070	1492.718717870901	218
3	2074	1498.748226732401	219
3	2076	1501.735422436668	220
3	2078	1505.257031720557	221
3	2080	1506.233670162893	222
3	2082	1510.293061323062	223
3	2084	1511.215399199233	224
3	2087	1516.197606700747	225
3	2091	1518.554023144237	226
3	2093	1519.828304681181	227
3	2095	1519.917683233011	228
3	2097	1521.23876036368	229
3	2099	1523.555222350332	230
3	2101	1523.603410451774	231
3	2107	1532.241159469111	232
3	2109	1534.971164779589	233
3	2111	1535.128617507234	234
3	2113	1536.290645586103	235
3	2115	1539.011377936458	236
3	2117	1540.947671663802	237
3	2119	1542.672837259084	238
3	2121	1543.852716760591	239
3	2123	1544.505143401218	240
3	2125	1546.917308038827	241
3	2127	1549.849399298131	242
3	2130	1563.221919042211	243
3	2132	1565.12759875764	244
3	2134	1568.553406911598	245
3	2138	1574.305875759429	246
3	2140	1576.554011944433	247
3	2142	1577.993388652045	248
3	2144	1578.820652154357	249
3	2146	1581.25951450315	250
3	2149	1583.546903048406	251
3	2151	1586.166641280793	252
3	2153	1587.442799384679	253
3	2155	1587.601154214409	254
3	2157	1587.769499481697	255
3	2159	1588.068119686093	256
3	2161	1590.840334763093	257
3	2163	1592.196827125024	258
3	2165	1594.412317454635	259
3	2167	1594.801820982741	260
3	2169	1594.847880017328	261
3	2171	1595.478379417434	262
3	2173	1595.61142819505	263
3	2175	1596.317291624148	264
3	2178	1599.593539845705	265
3	2180	1600.357705072535	266
3	2184	1602.271198447773	267
3	2188	1604.704848079948	268
3	2190	1606.099467232157	269
3	2192	1606.114450712302	270
3	2196	1607.471065811948	271
3	2200	1610.024241076207	272
3	2202	1610.561828848945	273
3	2204	1616.282463118151	274
3	2206	1618.694435630279	275
3	2208	1619.572989504947	276
3	2213	1623.624688158435	277
3	2217	1626.122854855117	278
3	2218	1628.035547411817	278
3	2220	1628.288323902058	278
3	2221	1628.654916758251	278
3	2222	1628.935833553766	277
3	2224	1629.124510306192	277
3	2225	1629.232452803249	277
3	2229	1630.91176400795	277
3	2231	1639.394962768978	278
3	2233	1639.67257907744	279
3	2235	1640.177851091767	280
3	2239	1642.94856987932	281
3	2241	1643.317867363019	282
3	2243	1645.306771652561	283
3	2245	1646.563073447178	284
3	2247	1649.750316527751	285
3	2250	1652.436448804412	285
3	2252	1652.522969426596	285
3	2253	1652.789336372506	285
3	2254	1653.332669365608	284
3	2256	1653.413557522618	284
3	2258	1654.649102698392	285
3	2260	1655.172066498803	286
3	2261	1656.194908546398	286
3	2263	1656.636496506188	286
3	2264	1656.996546412493	286
3	2265	1657.396375638619	285
3	2267	1658.098663277239	285
3	2268	1658.469460396102	285
3	2270	1659.970999705303	285
3	2272	1660.013114371395	286
3	2274	1661.231199189104	287
3	2275	1662.34193598137	287
3	2276	1662.668142912544	286
3	2277	1663.804050735292	285
3	2278	1664.087366247852	284
3	2279	1664.219121468763	283
3	2280	1665.263653676688	282
3	2282	1666.826415196423	282
3	2283	1667.345398123019	282
3	2284	1667.379172996386	281
3	2285	1668.658645240837	280
3	2287	1670.197515794754	280
3	2289	1670.767545733848	281
3	2290	1670.779672552373	281
3	2292	1671.498796972757	281
3	2294	1671.754154175241	282
3	2296	1672.401187613175	283
3	2298	1673.124460201784	284
3	2299	1673.999346407361	284
3	2301	1674.022921940882	284
3	2303	1674.159433684216	285
3	2304	1674.512610562034	285
3	2305	1675.038119732911	284
3	2306	1676.765310115695	283
3	2308	1677.571656168191	283
3	2310	1677.866333237998	284
3	2311	1678.017962934471	284
3	2312	1679.360985693378	283
3	2313	1682.166450138135	282
3	2315	1683.195590587381	282
3	2316	1683.547900543817	282
3	2317	1684.187854505606	281
3	2318	1684.250595321664	280
3	2319	1685.350460813881	279
3	2321	1687.579433231882	279
3	2322	1688.713347625732	279
3	2323	1689.627780555911	278
3	2325	1689.847230863025	278
3	2327	1690.093379184153	279
3	2328	1690.670892115504	279
3	2329	1691.639919103417	278
3	2330	1692.775849883194	277
3	2332	1695.471055420293	277
3	2336	1699.412099213152	277
3	2338	1699.478201980333	277
3	2339	1700.214046362322	277
3	2340	1700.394163476699	276
3	2342	1701.572938904947	276
3	2344	1701.849388461554	277
3	2345	1702.897622862491	277
3	2346	1702.939303528607	276
3	2348	1703.272031722909	276
3	2349	1706.40302483577	276
3	2350	1707.194567316781	275
3	2351	1707.729993828755	274
3	2353	1708.116104946093	274
3	2355	1709.278180767954	275
3	2357	1710.190538257367	276
3	2359	1710.329801507923	277
3	2361	1711.761070393895	278
3	2365	1714.968896906222	279
3	2367	1717.564647290784	280
3	2369	1717.62048641923	281
3	2371	1717.715597604191	282
3	2373	1719.880511503802	283
3	2375	1721.360009184282	284
3	2377	1723.440951991016	285
3	2379	1726.121154361687	286
3	2381	1729.330370048562	287
3	2383	1730.706031081898	288
3	2385	1731.218614605441	289
3	2389	1733.179531485322	290
3	2391	1733.508371770253	291
3	2393	1734.172170331411	292
3	2395	1735.863947750993	293
3	2397	1739.688249350692	294
3	2399	1740.742749466242	295
3	2401	1742.442196626285	296
3	2403	1746.922083421773	297
3	2405	1748.731690234793	298
3	2407	1749.14779163521	299
3	2409	1751.920303454035	300
3	2411	1752.203119991366	301
3	2413	1752.724787623912	302
3	2415	1753.501170641165	303
3	2417	1753.6653066522	304
3	2419	1755.35201972759	305
3	2421	1756.586484470732	306
3	2423	1761.810987944943	307
3	2425	1762.417088442269	308
3	2427	1762.650631150941	309
3	2430	1765.167011585913	310
3	2432	1765.317848392568	311
3	2434	1766.058207316239	312
3	2436	1768.091283580011	313
3	2440	1773.133657926307	314
3	2442	1774.113878198813	315
3	2444	1775.591431734325	316
3	2446	1776.115280245723	317
3	2448	1777.412551358666	318
3	2450	1778.527406056797	319
3	2452	1780.738537828256	320
3	2454	1780.759644627489	321
3	2456	1785.65259431768	322
3	2458	1787.293937108888	323
3	2460	1788.756287569269	324
3	2462	1789.049942415486	325
3	2464	1792.601080995014	326
3	2466	1793.06584050414	327
3	2468	1793.347837329278	328
3	2470	1794.512412865867	329
3	2472	1794.51868630971	330
3	2475	1798.2132829803	331
3	2477	1799.507195739503	332
3	2479	1799.759078044834	333
3	2481	1802.56562712752	334
3	2487	1807.59450872091	335
3	2490	1809.176923351147	336
3	2492	1813.375335992409	337
3	2494	1815.238891997269	338
3	2497	1821.165392194005	338
3	2499	1821.76123498296	338
3	2500	1821.884593014069	338
3	2501	1822.005733099149	337
3	2502	1823.045928396697	336
3	2503	1823.113526205562	335
3	2504	1823.972046471772	334
3	2505	1824.813084729022	333
3	2509	1827.549815870625	333
3	2511	1828.34905495988	334
3	2514	1832.361533894176	335
3	2515	1833.045610566946	335
3	2516	1833.427252083815	334
3	2520	1834.128051250421	333
3	2522	1834.681054401348	333
3	2523	1834.789997059173	333
3	2525	1834.947556001924	333
3	2526	1835.44725275554	333
3	2528	1835.796228382139	333
3	2529	1835.971548816499	333
3	2530	1837.663283796109	332
3	2531	1838.271345345696	331
3	2532	1838.417753324073	330
3	2533	1839.661922924978	329
3	2534	1839.834547913964	328
3	2535	1839.865854259325	327
3	2537	1840.14206067149	327
3	2539	1841.35546195763	328
3	2540	1841.636813034495	328
3	2541	1842.111012424387	327
3	2542	1842.306332384745	326
3	2546	1843.922575538947	326
3	2548	1845.436633818269	327
3	2550	1848.623251336389	328
3	2552	1849.057709162512	329
3	2554	1849.140823808658	330
3	2556	1849.284929900367	331
3	2558	1849.8840880912	332
3	2560	1850.230442956211	333
3	2562	1854.704901209769	334
3	2564	1855.960267627814	335
3	2566	1861.556004216965	336
3	2568	1863.372822433809	336
3	2570	1863.488118525169	336
3	2571	1863.985648872775	336
3	2572	1864.216087949126	335
3	2573	1864.287908581083	334
3	2575	1865.166608253462	334
3	2577	1865.856946809527	335
3	2578	1865.896665795962	335
3	2579	1866.497495919586	334
3	2580	1867.324302708984	333
3	2581	1867.948815935515	332
3	2582	1867.995394027917	331
3	2583	1868.017056765384	330
3	2585	1868.525986733914	330
3	2587	1868.752735021857	331
3	2588	1872.262875487354	331
3	2590	1872.479243121029	331
3	2591	1872.583125603491	331
3	2593	1873.036825035524	331
3	2594	1873.165556237885	331
3	2595	1873.302107777664	330
3	2596	1873.746962983743	329
3	2597	1874.65718623329	328
3	2599	1876.15432607431	328
3	2600	1876.43649183152	328
3	2601	1876.980887944351	327
3	2602	1878.072448120827	326
3	2603	1878.38011323541	325
3	2604	1879.647922058162	324
3	2605	1879.81896881658	323
3	2606	1880.740855568979	322
3	2607	1881.288115786751	321
3	2608	1883.195713870245	320
3	2609	1883.660671186043	319
3	2610	1885.711186796383	318
3	2611	1886.272305882885	317
3	2612	1886.867437926892	316
3	2613	1887.409675655869	315
3	2615	1887.604956824018	315
3	2616	1888.864067133351	315
3	2617	1889.48634896388	314
3	2618	1890.41650880984	313
3	2620	1891.174281537957	313
3	2622	1891.692661254172	314
3	2623	1892.921464928151	314
3	2625	1893.127401143235	314
3	2627	1893.642508444389	315
3	2628	1894.346529394352	315
3	2630	1894.75664819446	315
3	2631	1895.339707196543	315
3	2632	1895.942638020949	314
3	2633	1895.975115526584	313
3	2634	1897.235438035374	312
3	2635	1898.604675768443	311
3	2637	1898.829570926651	311
3	2639	1898.940490789404	312
3	2640	1899.242577569163	312
3	2642	1900.030517375092	312
3	2644	1900.389345830269	313
3	2645	1900.66246477004	313
3	2647	1900.964690791261	313
3	2648	1901.45646601611	313
3	2649	1901.656459570288	312
3	2650	1901.723823440241	311
3	2652	1902.060246989061	311
3	2653	1902.088757948142	311
3	2655	1903.407314505797	311
3	2657	1905.364948532234	312
3	2658	1906.885709635112	312
3	2659	1907.587780273735	311
3	2660	1908.413917943247	310
3	2661	1908.435165783387	309
3	2663	1909.044518118304	309
3	2665	1909.405759981275	310
3	2666	1909.541337031839	310
3	2667	1910.145375279697	309
3	2669	1910.327472875134	309
3	2670	1912.399163343545	309
3	2671	1912.99234796316	308
3	2672	1913.161946841247	307
3	2673	1914.241388421517	306
3	2674	1914.406213935081	305
3	2675	1914.581134650159	304
3	2681	1917.536557198189	304
3	2683	1922.696387267778	305
3	2685	1923.064555632697	306
3	2687	1933.541747235895	307
3	2689	1934.745031384904	308
3	2691	1937.018193435989	309
3	2693	1938.329327115848	310
3	2695	1939.355333478322	311
3	2697	1939.518484190065	312
3	2699	1940.489578639148	313
3	2701	1941.702188491978	314
3	2704	1944.700149342086	315
3	2706	1944.737740688336	316
3	2708	1948.356381372474	317
3	2710	1951.15889897536	318
3	2712	1951.175062257623	319
3	2714	1954.276526735338	320
3	2716	1955.156744931911	321
3	2718	1955.269702744663	322
3	2720	1957.011692036786	323
3	2722	1957.488493311476	324
3	2725	1959.550004592552	325
3	2726	1960.179264577116	325
3	2727	1960.650055887153	324
3	2729	1961.022061631006	324
3	2730	1961.295278372584	324
3	2731	1963.083551708397	323
3	2732	1963.445059011063	322
3	2733	1963.449886014729	321
3	2734	1963.813156642389	320
3	2735	1964.801101301277	319
3	2737	1964.854924139137	319
3	2739	1965.218149235399	320
3	2740	1965.626266146327	320
3	2741	1965.786631620423	319
3	2743	1966.487962548597	319
3	2747	1970.689742980642	320
3	2749	1971.924187383401	321
3	2751	1972.3942737598	322
3	2753	1973.375404202241	323
3	2755	1974.163067722791	324
3	2757	1975.143868524284	325
3	2759	1977.153636153251	326
3	2761	1978.420994755717	327
3	2763	1980.325472125163	328
3	2765	1980.630857989439	329
3	2767	1985.470386186166	330
3	2769	1986.905218576232	331
3	2771	1994.342606364886	332
3	2773	1999.186228831518	333
3	2775	1999.874167181772	334
3	2777	2001.047034440393	335
3	2779	2005.369437431613	335
3	2780	2006.152174078514	334
3	2782	2006.627289913697	334
3	2784	2006.666352210751	335
3	2785	2006.990857728435	335
3	2786	2008.324537818535	334
3	2787	2008.886056944186	333
3	2789	2009.591508362985	333
3	2791	2009.996852205215	334
3	2792	2011.090476706064	334
3	2794	2012.424930875028	334
3	2795	2012.447749418569	334
3	2797	2013.231202354586	334
3	2799	2013.532182422079	335
3	2800	2013.888527841949	335
3	2802	2013.919768049902	335
[...]
9	1363	1020.137525412959	393.57714582168
9	1364	1020.912912311247	392.19480148385
9	1365	1021.491368607654	392.109564412
9	1366	1022.183167252465	390.46094001412
9	1367	1022.502708443727	390.38003024919
9	1368	1024.117781745293	391.32067038832
9	1369	1025.204252670374	389.74278550266
9	1370	1026.799289540282	386.6949210578
9	1373	1027.185782954031	384.12533266241
9	1376	1027.313464391403	384.13939959329
9	1377	1028.517783012748	382.97036149832
9	1378	1028.800127162869	382.1594679353
9	1385	1030.374883826737	382.86532108825
9	1388	1031.360479327424	380.75897058172
9	1389	1031.418505701951	377.59406502709
9	1392	1031.89211623902	372.82529208708
9	1393	1032.407742670759	372.60004262444
9	1394	1032.473302965806	372.32298036275
9	1395	1033.23563785844	372.94428661205
9	1396	1033.702763446898	371.77587581638
9	1397	1034.063358786918	370.1788854261
9	1398	1034.140364954901	369.05595211539
9	1399	1034.489238078365	369.06822685731
9	1400	1034.534697880035	366.34919864667
9	1526	1167.532560016259	494.85051033304
9	1531	1170.826798897718	496.29826922676
9	1532	1172.231430435533	497.60960912512
9	1533	1174.293723228386	495.62486969032
9	1534	1177.356609081447	497.27876060497
9	1541	1181.409308394167	497.15495639951
9	1542	1181.540486303512	496.21550254255
9	1543	1182.429036699205	495.32662978705
9	1544	1182.51625961835	492.95181700721
9	1553	1186.934143016125	497.2421836853
9	1554	1186.980661848471	492.17486965063
9	1555	1187.201401418217	492.34513295852
9	1556	1187.283352500321	486.26994437564
9	1559	1187.327271769532	484.51799545327
9	1560	1187.71206579272	480.99616281534
9	1561	1188.196094037937	478.79082432833
9	1562	1190.395267424983	480.98462287184
9	1563	1190.582452338893	474.64599664806
9	1564	1192.100868497961	476.14495052944
9	1565	1192.370592839446	473.86171192629
9	1577	1204.720032718152	477.64855607697
9	1580	1206.716913916404	479.55147710124
9	1581	1206.792968994814	479.46332693209
9	1582	1207.563515515355	478.5607384411
9	1583	1207.919579309714	477.87560503409
9	1586	1208.667555912831	478.41407735509
9	1587	1209.343281568719	476.0042891028
9	1588	1211.035867238378	476.83427183759
9	1589	1212.167749094005	476.06503431278
9	1590	1212.306001481569	475.20000595542
9	1591	1214.146817093967	474.48371495
9	1592	1215.420781591255	474.77797564516
9	1593	1217.044507004159	476.12233037087
9	1594	1217.113676321775	475.16083091329
9	1595	1217.743339777078	467.08740581382
9	1596	1217.758799570468	461.78673981572
9	1597	1218.476966978294	461.80110695844
9	1600	1219.267074567179	456.89183649013
9	1601	1220.171982085033	457.2663816086
9	1602	1220.268701054257	456.96561228454
9	1626	1232.039734887838	465.76356614314
9	1627	1233.243165512805	464.65779506115
9	1628	1233.649036627601	462.78366448939
9	1629	1236.65121415387	459.10431285402
9	1630	1236.812857256441	455.95528914581
9	1631	1236.936969340668	451.77282223629
9	1636	1237.762305232231	452.48072270683
9	1637	1238.589182016356	451.56842703043
9	1638	1238.754148857869	450.33609219411
9	1641	1239.283361430562	448.46551258391
9	1642	1239.631843148036	448.04899784658
9	1643	1239.96849377231	447.80685547544
9	1663	1249.195837573476	450.72649232545
9	1666	1249.484766744558	450.69954412271
9	1671	1250.042007136069	449.60156021872
9	1672	1250.678178586989	447.23772396129
9	1679	1252.848206998641	448.66483771405
9	1680	1254.014645348174	448.94647682738
9	1681	1254.589212200684	448.58220558606
9	1682	1254.972062360813	448.90272154918
9	1683	1255.931940116934	446.4127187993
9	1684	1257.869828630191	444.27311307621
9	1685	1257.926739214416	439.61447093694
9	1688	1259.294090291227	437.9367171658
9	1702	1264.512605537428	437.77935971465
9	1705	1265.928367343187	438.67381857668
9	1706	1266.522236129637	433.31551889241
9	1713	1270.246979586799	436.71597751232
9	1714	1272.809934185569	433.17499443655
9	1715	1273.09983050253	430.57127280701
9	1718	1275.362365815743	432.71559647189
9	1721	1278.809063839165	435.36150635079
9	1728	1281.986781715943	437.8345275228
9	1729	1282.137568256482	432.88595591933
9	1730	1282.967725244701	431.60385401939
9	1731	1284.21187173006	431.82715599656
9	1732	1284.607518535837	427.15989314431
9	1733	1284.67920424463	426.83951390185
9	1738	1285.032390465744	427.12963230711
9	1743	1285.961359055598	427.85223405546
9	1744	1286.298007871109	426.24243796974
9	1745	1286.359377970098	426.03974017071
9	1746	1286.891239883676	426.45175681773
9	1747	1287.342048313282	424.92130695477
9	1748	1289.130429718426	423.82734831895
9	1749	1289.429474113052	422.83516887812
9	1759	1294.04309750124	424.34946150744
9	1760	1294.723922075675	423.8036351687
9	1761	1296.042855938396	424.90681324842
9	1762	1296.805219997179	420.7344863434
9	1763	1297.405712425852	421.14046487162
9	1766	1298.497350705645	422.20584151048
9	1773	1300.486512981004	421.61276572212
9	1774	1301.682157349224	421.40765832601
9	1781	1302.437018146691	421.23480476273
9	1782	1303.504290392576	422.14533708625
9	1785	1305.394539647154	423.36073658935
9	1788	1305.662067216993	422.83430266408
9	1793	1306.991403497595	420.27994113225
9	1796	1307.376236337316	420.31747656496
9	1797	1307.545759859202	420.41758584864
9	1800	1307.93083172392	420.7322393717
9	1803	1309.724971172236	422.33069999712
9	1804	1310.026511961212	422.59549490873
9	1809	1311.090547849789	421.42906800149
9	1810	1311.643912791907	421.21781542116
9	1811	1311.80576986507	410.74414016423
9	1814	1314.034801410285	412.03275381103
9	1815	1315.341371258153	410.19742058841
9	1818	1315.994732857059	399.29012541019
9	1819	1316.082426611919	399.19254045835
9	1822	1316.511014031998	396.24576495323
9	1823	1316.767727358064	395.05246553954
9	1824	1317.913913388574	394.14697869037
9	1825	1318.226948289008	389.87830972856
9	1830	1321.409813943922	392.83914098931
9	1831	1321.586564192989	392.90442116189
9	1832	1322.065651314646	392.66056123493
9	1835	1325.038369340513	392.99182293652
9	1838	1325.884986125175	390.54112194641
9	1839	1326.521737422319	390.50022241221
9	1840	1326.571110407764	389.57810718804
9	1841	1328.284446833917	390.37012362805
9	1842	1329.142203645577	390.46006339954
9	1843	1329.215694638899	390.49980777899
9	1844	1329.703258426328	390.05475156846
9	1845	1329.81577070154	386.33280619902
9	1846	1331.211637542682	385.87230124256
9	1847	1331.920300502497	385.84031177899
9	1848	1332.11992440411	385.30092070099
9	1849	1332.684922525308	384.21060829331
9	1850	1333.81031341489	379.29747843913
9	1851	1334.310333016968	379.6068259108
9	1852	1334.943735177415	379.29424824744
9	1855	1335.567087142255	376.77137299355
9	1856	1336.204151523677	376.24844498618
9	1857	1336.873850856869	376.85885516354
9	1860	1337.59274324033	376.88635360867
9	1861	1337.974537536026	377.15346865534
9	1895	1362.154804963517	397.05464446801
9	1900	1365.80679019905	400.09889077459
9	1901	1367.235166092161	401.46393533617
9	1909	1382.58587871939	413.15472378361
9	1910	1382.927091518273	411.40373630191
9	1913	1384.530183773011	410.52050261391
9	1914	1385.484927391049	407.3097267102
9	1915	1385.513478519455	406.02848257971
9	1916	1386.813875827921	405.50396749921
9	1919	1387.559775203319	403.02080440809
9	1920	1387.655350264781	399.0097171311
9	1923	1388.765833676924	398.52818274652
9	1924	1388.915456759275	393.34884949553
9	1925	1389.385804192816	391.97204281154
9	1928	1389.942868545464	392.13331046309
9	1929	1390.021050094761	389.36325720862
9	1936	1393.014828188637	391.44531435257
9	1937	1394.120659986244	392.52788737149
9	1938	1395.566727783614	393.40453876456
9	1939	1395.719097329695	393.09564111457
9	1940	1396.611501483817	389.16484252966
9	1941	1397.627797451775	389.45551456846
9	1942	1398.95442772003	388.85480576087
9	1943	1400.50682612678	390.00794826032
9	1944	1400.964025812561	387.23693011178
9	1947	1402.064287872558	386.17965260047
9	1950	1402.617687341129	385.01300439975
9	1951	1402.625245991479	384.99651359361
9	1952	1403.043628497461	385.41237606503
9	1953	1403.385133905129	384.0965176818
9	1956	1403.573094175799	376.75102345849
9	1957	1404.087861813195	376.80502274206
9	1958	1405.571154619034	376.65956150204
9	1959	1406.562512163734	377.0194655319
9	1962	1408.860164429015	378.65267524474
9	1963	1409.458915658636	378.29172644412
9	1972	1410.934257739991	379.22387918262
9	1975	1411.087487845914	375.87444933746
9	2009	1439.934380538137	392.65321190842
9	2010	1439.954684870284	383.43786272962
9	2011	1440.146838328486	381.79738610798
9	2016	1443.430586681431	382.1945224682
9	2017	1443.661121491244	382.06079049249
9	2218	1628.035547411817	565.21142128021
9	2221	1628.654916758251	558.52932449192
9	2222	1628.935833553766	558.37724148814
9	2225	1629.232452803249	550.20227149069
9	2250	1652.436448804412	570.82999463561
9	2253	1652.789336372506	569.98562936011
9	2254	1653.332669365608	569.13859703333
9	2261	1656.194908546398	571.18370650103
9	2264	1656.996546412493	569.60627254391
9	2265	1657.396375638619	569.33254900326
9	2268	1658.469460396102	569.78935399782
9	2275	1662.34193598137	573.46552067718
9	2276	1662.668142912544	567.06162894281
9	2277	1663.804050735292	567.94066903933
9	2278	1664.087366247852	563.64670730988
9	2279	1664.219121468763	563.06710196063
9	2280	1665.263653676688	562.62071289595
9	2283	1667.345398123019	564.3081587434
9	2284	1667.379172996386	562.92533050487
9	2285	1668.658645240837	563.25889353386
9	2290	1670.779672552373	564.22515904484
9	2299	1673.999346407361	565.06563057627
9	2304	1674.512610562034	565.55866455133
9	2305	1675.038119732911	565.08940412201
9	2306	1676.765310115695	562.99343253191
9	2311	1678.017962934471	563.17124371958
9	2312	1679.360985693378	562.22770943652
9	2313	1682.166450138135	562.91705374632
9	2316	1683.547900543817	558.08998079194
9	2317	1684.187854505606	552.57388281566
9	2318	1684.250595321664	552.07077900987
9	2319	1685.350460813881	545.8792880454
9	2322	1688.713347625732	548.94370598697
9	2323	1689.627780555911	548.74177799095
9	2328	1690.670892115504	547.52229985026
9	2329	1691.639919103417	548.25131576372
9	2330	1692.775849883194	547.36877063642
9	2336	1699.412099213152	546.696836042
9	2339	1700.214046362322	547.03770933718
9	2340	1700.394163476699	542.04414167249
9	2345	1702.897622862491	543.73417096286
9	2346	1702.939303528607	543.65253222047
9	2349	1706.40302483577	540.08622652782
9	2350	1707.194567316781	538.31891147044
9	2351	1707.729993828755	537.60229565996
9	2497	1821.165392194005	642.89116522157
9	2500	1821.884593014069	643.47607154488
9	2501	1822.005733099149	638.47185687166
9	2502	1823.045928396697	637.70943033613
9	2503	1823.113526205562	637.34072516118
9	2504	1823.972046471772	637.85454575237
9	2505	1824.813084729022	637.49164626225
9	2515	1833.045610566946	635.25470834321
9	2516	1833.427252083815	635.54455037353
9	2520	1834.128051250421	630.26597905324
9	2523	1834.789997059173	630.01959138749
9	2526	1835.44725275554	626.84909303739
9	2529	1835.971548816499	616.7524558829
9	2530	1837.663283796109	616.62193757216
9	2531	1838.271345345696	615.59812298585
9	2532	1838.417753324073	614.96268007596
9	2533	1839.661922924978	615.05899479654
9	2534	1839.834547913964	614.14127639672
9	2535	1839.865854259325	611.66798466302
9	2540	1841.636813034495	613.3399598051
9	2541	1842.111012424387	613.53538206365
9	2542	1842.306332384745	612.81498459214
9	2568	1863.372822433809	631.4104136306
9	2571	1863.985648872775	626.61318981931
9	2572	1864.216087949126	626.49481507204
9	2573	1864.287908581083	625.20532976315
9	2578	1865.896665795962	625.8701532369
9	2579	1866.497495919586	626.32356800061
9	2580	1867.324302708984	623.91726220739
9	2581	1867.948815935515	624.02873160002
9	2582	1867.995394027917	623.97223801487
9	2583	1868.017056765384	623.30171422597
9	2588	1872.262875487354	627.44157012773
9	2591	1872.583125603491	626.67716765649
9	2594	1873.165556237885	627.05918389311
9	2595	1873.302107777664	623.91746547891
9	2596	1873.746962983743	624.21868364241
9	2597	1874.65718623329	625.10679562938
9	2600	1876.43649183152	625.45283650825
9	2601	1876.980887944351	625.67311116603
9	2602	1878.072448120827	626.61586639094
9	2603	1878.38011323541	619.26527467613
9	2604	1879.647922058162	619.52335130323
9	2605	1879.81896881658	619.61077264067
9	2606	1880.740855568979	620.43791866597
9	2607	1881.288115786751	620.98474142396
9	2608	1883.195713870245	622.51271800117
9	2609	1883.660671186043	622.93121981557
9	2610	1885.711186796383	620.92717672329
9	2611	1886.272305882885	619.11808362976
9	2612	1886.867437926892	619.48748660183
9	2613	1887.409675655869	618.03572546477
9	2616	1888.864067133351	615.1635218314
9	2617	1889.48634896388	612.08237594842
9	2618	1890.41650880984	610.89753819192
9	2623	1892.921464928151	613.1764098484
9	2628	1894.346529394352	614.22734154217
9	2631	1895.339707196543	610.53995638802
9	2632	1895.942638020949	611.11016983686
9	2633	1895.975115526584	610.33930829615
9	2634	1897.235438035374	611.28810767067
9	2635	1898.604675768443	607.97292139412
9	2640	1899.242577569163	608.05816465126
9	2645	1900.66246477004	609.10392187966
9	2648	1901.45646601611	607.53666350626
9	2649	1901.656459570288	603.26942578067
9	2650	1901.723823440241	603.05613036416
9	2653	1902.088757948142	602.97471926068
9	2658	1906.885709635112	606.40252437473
9	2659	1907.587780273735	605.84552501623
9	2660	1908.413917943247	606.4721988275
9	2661	1908.435165783387	606.15679392521
9	2666	1909.541337031839	604.36190310711
9	2667	1910.145375279697	604.54171113748
9	2670	1912.399163343545	606.41394681931
9	2671	1912.99234796316	606.13599359373
9	2672	1913.161946841247	605.81308765011
9	2673	1914.241388421517	606.6183272384
9	2674	1914.406213935081	605.4039017456
9	2675	1914.581134650159	604.54796719111
9	2726	1960.179264577116	646.2396543641
9	2727	1960.650055887153	644.9000510251
9	2730	1961.295278372584	644.89211546175
9	2731	1963.083551708397	643.1680929493
9	2732	1963.445059011063	642.42316565179
9	2733	1963.449886014729	640.63137508527
9	2734	1963.813156642389	638.43101974512
9	2735	1964.801101301277	629.82281768151
9	2740	1965.626266146327	628.51196445299
9	2741	1965.786631620423	626.35405725021
9	2779	2005.369437431613	664.69151672642
9	2780	2006.152174078514	665.27736082373
9	2785	2006.990857728435	665.49807565703
9	2786	2008.324537818535	666.76456743439
9	2787	2008.886056944186	667.25715556489
9	2792	2011.090476706064	669.10179288788
9	2795	2012.447749418569	669.02927813473
9	2800	2013.888527841949	670.28010181503
9	2807	2017.623239804681	673.69362771698
9	2810	2017.975971726557	668.74196642873
9	2811	2018.436795010032	668.56976604325
9	2825	2033.584458484219	673.52653443539
9	2826	2033.812713517905	673.03679282602
9	2827	2034.695173254642	670.39202812695
9	2828	2035.629571797734	671.15634671292
9	2831	2037.123968649786	669.66599020473
9	2838	2039.735328674605	666.22542410658
9	2839	2039.876694805674	666.17715306604
9	2840	2042.36426591351	658.72263682603
9	2841	2044.800397173739	657.69725251447
9	2842	2045.078505798762	656.32041636606
9	2843	2046.174177357338	656.25986692222
9	2844	2046.291604419715	655.92848113073
9	2845	2048.099388277635	656.99060239135
9	2846	2048.359713467027	656.13974784314
9	2847	2048.432686014225	646.7717505491
9	2850	2049.865085775145	647.37702990283
9	2851	2050.397006581137	646.97052580659
9	2856	2051.212336881781	642.97996317133
9	2857	2051.307735845714	641.70054938246
9	2858	2052.799354268707	642.14160318399
9	2865	2054.25884472336	643.36244810706
9	2866	2055.232861011821	644.32207665943
9	2867	2055.257486360888	644.27900840475
9	2868	2055.726249098644	644.3523155292
9	2869	2055.782644727778	643.2179833141
9	2870	2056.635602723994	642.09867290145
9	2871	2056.674769885838	641.88732250504
9	2872	2056.901190579469	641.28205745248
9	2875	2059.281416291099	641.2518386134
9	2876	2059.28473923028	640.62811814639
9	2877	2061.385844642923	642.71599168658
9	2878	2061.583717518601	642.48148170444
9	2881	2062.90959043747	641.88298100185
9	2882	2063.042167726589	640.63145698076
9	2885	2066.193399962391	642.5593515581
9	2888	2067.818014174775	634.584873353
9	2889	2067.903091889586	634.2952035943
9	2890	2068.848329846328	633.06898713919
9	2891	2069.631853236495	631.57824372596
9	2896	2071.18963629149	628.51737013351
9	2897	2071.432063038953	628.60340286499
9	2898	2072.370079241914	628.20208741398
9	2903	2073.277321426506	623.22532726045
9	2904	2074.439881439754	623.40526197194
9	2905	2074.498871387987	623.03243704979
9	2906	2075.259353549242	623.14840856537
9	2911	2076.306176066778	624.16426622192
9	2912	2076.451256897131	623.6807156426
9	2913	2077.23369139328	623.2624983703
9	2914	2077.866216444027	618.31197161822
9	2915	2079.463125330382	615.01691155195
9	2918	2079.982764590272	612.52158725692
9	2919	2080.315534346419	608.89573183284
9	2920	2081.390344307261	606.94694576837
9	2921	2084.299426570503	604.48005004952
9	2924	2084.902852999033	604.84514240568
9	2925	2087.928462740037	607.80329118384
9	2930	2089.572161940275	609.39081329142
9	2931	2089.836667313919	604.69530192663
9	2982	2122.612569382988	636.18729559983
9	2983	2122.710488469927	632.28384203446
9	2984	2123.276225651717	632.47804011171
9	2987	2125.031458305609	632.31274043471
9	2988	2126.668444459332	627.92021772693
9	2989	2127.12397322906	625.38855079239
9	2990	2127.276822771741	622.01979105118
9	2999	2129.858511255721	623.62484109283
9	3000	2129.988159843873	619.69509852081
9	3001	2130.945930905574	619.73053170634
9	3002	2130.952115537409	614.75450883666
9	3003	2131.476707749189	612.92268460495
9	3004	2131.775516225136	611.94721154395
9	3005	2132.139866196058	612.22218296305
9	3006	2132.491000415755	611.25224005207
9	3009	2133.10434702629	609.54912467596
9	3014	2136.477704686548	612.87429423477
9	3017	2137.274265271478	605.03310580237
9	3020	2137.449724097265	602.47855931768
9	3021	2138.530418962294	603.40180145506
9	3022	2140.653914215029	604.36326862893
9	3023	2142.520563798694	603.50918586224
9	3028	2144.499084374301	603.5514127105
9	3029	2145.313427036891	602.64058977781
9	3030	2145.368138159328	601.51542139874
9	3052	2164.314864022732	617.39755598391
9	3053	2165.104916864592	615.25551756646
9	3056	2165.646528397104	602.42460935489
9	3065	2167.356663629655	602.22906487201
9	3066	2167.851745961638	599.29833905004
9	3069	2168.624342020652	594.31846626122
9	3070	2168.959225515289	592.40521357086
9	3073	2169.674188541197	591.68079988915
9	3074	2170.221128491633	591.40047633728
9	3075	2171.861823468831	590.60230896568
9	3078	2173.618138909724	590.07123586132
9	3081	2174.10510935669	587.9384680759
9	3086	2175.764957870977	588.3221584863
9	3087	2175.943579263429	588.34242504902
9	3088	2176.1375561038	588.3680566221
9	3089	2176.722731279371	588.65461159328
9	3105	2191.651203865635	599.45437674061
9	3112	2192.924194590081	598.51187713545
9	3113	2193.022759709696	598.22093872695
9	3116	2195.63380668826	600.78592667093
9	3119	2196.754391675967	601.27601225853
9	3122	2198.199893836675	602.58846564163
9	3123	2198.361977851382	602.04468622723
9	3124	2198.66123341005	599.06769356434
9	3125	2198.828482729226	598.47077765669
9	3126	2198.998836210914	596.72763776314
9	3129	2199.777002074753	595.07215399481
9	3132	2203.175625424399	597.07615819224
9	3465	2471.697966602905	864.22690079096
9	3466	2472.280122895002	862.25588181879
9	3469	2473.42651796016	862.86468911121
10	695	614.526701304873	2
10	775	684.254351994662	3
10	824	709.410644553138	4
10	901	777.546901299853	5
10	1143	886.711462365343	6
10	1190	928.570672954617	7
10	1333	1002.623456215123	8
10	1353	1015.88463527209	9
10	1402	1035.213038508457	10
10	1567	1193.264556883255	11
10	1604	1221.041346223951	12
10	1647	1240.173927918977	13
10	1698	1260.682995869076	14
10	1751	1290.63175437432	15
10	1877	1341.98868381818	16
10	1903	1367.457978445056	17
10	1977	1411.373933569448	18
10	2019	1444.167991827933	19
10	2227	1630.026208879448	20
10	2334	1695.493984958524	21
10	2363	1711.932020289475	22
10	2507	1824.889836964607	23
10	2518	1833.639570527449	24
10	2544	1842.732282835428	25
10	2677	1915.436609589533	26
10	2745	1967.901726318689	27
10	2817	2021.635944979653	28
10	2935	2090.897286542311	29
10	3032	2145.88207974733	30
10	3091	2177.459450486187	31
10	3142	2206.85076913286	32
10	3473	2473.876253655396	33
11	3513	2500	0.2948
12	3513	2500	0.0452

