version 2
run factors_calibration_bosses-252-20230303-16:36:52-8912
attr configname factors_calibration_bosses
attr datetime 20230303-16:36:52
attr experiment factors_calibration_bosses
attr inifile omnetpp.ini
attr iterationvars $0=25
attr iterationvarsf 25-
attr measurement $0=25
attr network Network
attr processid 8912
attr repetition 12
attr replication #12
attr resultdir results
attr runnumber 252
attr seedset 12
param *.minion.arrival_mean 2
param *.minion.service_mean 1
param *.boss.arrival_mean 20
param *.boss.service_mean 25
param *.player.recover_rate_x 100
param **.minion.arrival_distribution 0
param **.minion.service_distribution 0
param **.boss.arrival_distribution 0
param **.boss.service_distribution 0

vector 0 Network.player minion_jobs_number_stat:vector ETV
attr source signal_minion_jobs_number
vector 1 Network.player minion_jobs_queue_number_stat:vector ETV
attr source signal_minion_jobs_queue_number
vector 2 Network.player boss_jobs_number_stat:vector ETV
attr source signal_boss_jobs_number
vector 3 Network.player boss_jobs_queue_number_stat:vector ETV
attr source signal_boss_jobs_queue_number
vector 4 Network.player boss_defeated_stat:vector ETV
attr source signal_boss_defeated
vector 5 Network.player boss_response_time_stat:vector ETV
attr source signal_boss_response_time
vector 6 Network.player boss_waiting_time_stat:vector ETV
attr source signal_boss_waiting_time
vector 7 Network.player minion_waiting_time_stat:vector ETV
attr source signal_minion_waiting_time
vector 8 Network.player minion_recovered_stat:vector ETV
attr source signal_minion_recovered
vector 9 Network.player minion_throughput:vector ETV
attr source signal_minion_throughput
vector 10 Network.player boss_throughput:vector ETV
attr source signal_boss_throughput
0	437	350.563008340612	187
0	441	359.441718240152	188
0	443	360.897141892245	189
0	448	363.404959221656	190
0	450	364.533443469734	191
0	452	366.402961088924	192
0	456	372.745604752478	193
0	458	378.065000466012	194
0	460	378.582284299245	195
0	463	379.581971344138	196
0	465	380.04574587285	197
0	469	380.478994515192	198
0	472	384.621183469963	199
0	474	387.386037647056	200
0	478	389.105405480814	201
0	480	390.305903194696	202
0	484	395.624375510378	203
0	486	395.868249493239	204
0	488	395.952486727996	205
0	490	396.010865163352	206
0	492	396.160811114799	207
0	494	396.815103569135	208
0	496	397.426876371864	209
0	500	400.903314264318	210
0	502	403.282897856052	211
0	504	403.871045155935	212
0	506	404.259237968537	213
0	508	405.408525581749	214
0	510	409.312113208551	215
0	512	409.861878598026	216
0	514	412.297153678881	217
0	516	413.367439638013	218
0	518	415.827495006568	219
0	522	420.802747718981	220
0	527	430.616242091962	221
0	529	431.271348008768	222
0	531	434.60901820231	223
0	533	434.723201050139	224
0	535	435.006858667878	225
0	537	435.416824231339	226
0	539	436.103476235943	227
0	541	436.373772562041	228
0	543	437.815344604536	229
0	545	438.154261429988	230
0	547	438.474849991872	231
0	550	443.94349574767	232
0	552	444.374246793683	233
0	554	446.01434492919	234
0	556	446.187111191583	235
0	558	456.586879560812	236
0	560	457.083280460514	237
0	563	459.658778582919	238
0	565	459.854943418844	239
0	567	460.687995897621	240
0	569	461.0958214597	241
0	571	466.460746919385	242
0	573	466.981405072689	243
0	575	471.575116370613	244
0	577	471.975004245967	245
0	579	479.003658749166	246
0	581	479.311655582927	247
0	583	480.950906945341	248
0	586	485.255362469536	249
0	588	486.146379051094	250
0	590	487.236232226584	251
0	592	488.333242806448	252
0	594	488.406558859971	253
0	596	488.634594403201	254
0	598	488.99182706734	255
0	600	492.592894416556	256
0	602	492.646322982433	257
0	604	497.534396756157	258
0	608	498.98626620606	259
0	610	499.759337769117	260
0	612	500.565013834685	261
0	614	501.613310197165	262
0	616	504.224325236492	263
0	618	505.021065680108	264
0	620	508.609462979477	265
0	622	511.893720182873	266
0	624	512.974173731615	267
0	626	513.834126966669	268
0	628	514.293794065809	269
0	630	515.555326479384	270
0	632	516.914011603145	271
0	634	518.982437693514	272
0	637	523.642336412903	273
0	639	525.716177868907	274
0	641	526.720341705429	275
0	643	530.583227986003	276
0	645	533.624348693573	277
0	647	536.243242911572	278
0	649	536.540296217507	279
0	652	537.20864516323	280
0	654	541.104596910016	281
0	656	543.032104582455	282
0	658	545.137174633475	283
0	660	550.502725507143	284
0	662	551.850610282405	285
0	664	552.670363018637	286
0	666	554.274020177098	287
0	668	554.348833610215	288
0	670	555.412869179903	289
0	672	557.461253400919	290
0	674	557.612234064517	291
0	676	559.910138496699	292
0	678	560.312532978429	293
0	680	561.862785091723	294
0	682	562.930610783527	295
0	684	565.382333930801	296
0	686	565.926723568139	297
0	688	566.895968861881	298
0	690	567.434888320684	299
0	692	569.757999717039	300
0	698	572.899154819493	301
0	700	574.766996342004	302
0	702	579.454560612047	303
0	704	581.054603012643	304
0	707	582.7217735349	305
0	709	583.653771342783	306
0	711	584.928322220314	307
0	714	591.540823088331	308
0	717	592.051879403658	309
0	719	594.127784892894	310
0	721	594.18111918944	311
0	724	598.9568407254	312
0	726	600.13559734613	313
0	728	606.336300191205	314
0	730	608.613377350185	315
0	732	609.155847040442	316
0	734	611.527748162238	317
0	736	612.043811112841	318
0	738	612.903367279333	319
0	740	613.805468879414	320
0	742	613.902708197559	321
0	744	614.868206392127	322
0	748	621.101454253129	323
0	750	623.106049228132	324
0	752	623.968824894964	325
0	757	631.217819626418	326
0	759	632.029332287866	327
0	761	633.306974011784	328
0	763	634.380721099669	329
0	765	635.451005841341	330
0	767	639.214958395978	331
0	769	639.314215824731	332
0	771	639.706353216097	333
0	775	646.875165995834	334
0	777	647.295010826718	335
0	782	655.007113291108	336
0	786	657.744286106131	337
0	788	659.872029988132	338
0	790	662.422651100228	339
0	792	662.735739634642	340
0	794	663.252098305321	341
0	796	667.766807925452	342
0	798	668.957993515093	343
0	801	670.302657115243	344
0	805	672.660670403395	345
0	807	674.603484947049	346
0	809	675.525867615508	347
0	811	675.741097886029	348
0	814	678.389355195172	349
0	817	680.995035294893	350
0	819	681.585285444163	351
0	821	681.853498508288	352
0	823	685.444212633026	353
0	825	686.514443908958	354
0	828	694.339123410752	355
0	830	696.67124854601	356
0	832	697.548799777715	357
0	834	700.951630710656	358
0	836	705.373669154726	359
0	838	705.902020175276	360
0	840	705.941508343994	361
0	842	706.761694258751	362
0	844	706.882478420326	363
0	846	707.858086588404	364
0	848	708.24443671423	365
0	850	709.618673702749	366
0	852	710.923800613809	367
0	860	718.600773318542	368
0	862	718.7191706715	369
0	864	719.894587856083	370
0	866	720.45832428398	371
0	869	724.584917171665	372
0	871	731.99006404691	373
0	874	735.155203498157	374
0	877	737.867261293083	375
0	879	738.032549429268	376
0	883	742.294218666925	377
0	888	749.193068297475	378
0	891	751.545354281278	379
0	895	756.845846968982	380
0	897	758.068409837549	381
0	899	758.25228793417	382
0	901	761.236723163289	383
0	903	762.730701111324	384
0	905	764.371271295102	385
0	907	764.375844892955	386
0	909	764.720992706793	387
0	912	766.093786443728	388
0	914	771.005588859301	389
0	916	776.41463975844	390
0	920	781.022191830161	391
0	922	783.128085579358	392
0	924	783.766429851517	393
0	926	784.003358540235	394
0	928	785.943722819035	395
0	930	787.480248600272	396
0	932	788.672492396074	397
0	934	789.368147329513	398
0	936	790.170459849321	399
0	940	791.547415050529	400
0	942	791.779614801005	401
0	944	793.800575068204	402
0	948	800.926908090818	403
0	950	807.543248501759	404
0	952	809.993653921224	405
0	954	812.707799389908	406
0	956	813.800862673449	407
0	958	814.750019139834	408
0	961	816.080270352829	409
0	963	819.254945332847	410
0	965	819.362964355695	411
0	967	820.190945340708	412
0	969	820.683039718444	413
0	973	822.960903217932	414
0	975	823.910023279611	415
0	977	824.696880607674	416
0	979	824.856428388247	417
0	981	826.237327023276	418
0	983	827.097302751096	419
0	985	828.482032137886	420
0	987	833.665317252567	421
0	989	834.835050361662	422
0	991	835.344633156475	423
0	993	836.246289010665	424
0	997	836.885619976556	425
0	999	837.10846384725	426
0	1001	837.444813399814	427
0	1003	838.236237337527	428
0	1005	839.779216252426	429
0	1007	844.999939982417	430
0	1011	848.686861107268	431
0	1013	850.126791831785	432
0	1015	850.512674530108	433
0	1018	853.244151151441	434
0	1020	853.285600966356	435
0	1022	854.627018735837	436
0	1024	861.839194659475	437
0	1026	862.027073127995	438
0	1028	862.243454896201	439
0	1030	862.267733517239	440
0	1032	863.525366803809	441
0	1035	868.14782726064	442
0	1037	871.784178878287	443
0	1039	872.753419344782	444
0	1041	875.073400516529	445
0	1043	878.187153572996	446
0	1045	881.127814666504	447
0	1047	886.18679917844	448
0	1049	890.357580150221	449
0	1051	894.672344712911	450
0	1053	894.673218458705	451
0	1055	894.901834362903	452
0	1057	895.137224400285	453
0	1059	896.203984343369	454
0	1062	897.269863685651	455
0	1064	897.344970494282	456
0	1069	899.144711811631	457
0	1071	899.305035436225	458
0	1073	899.744681219744	459
0	1077	904.63301358424	460
0	1079	904.771539018934	461
0	1081	908.528376301758	462
0	1083	916.295119016994	463
0	1085	917.233098870937	464
0	1087	917.354219310053	465
0	1091	917.699312039126	466
0	1093	919.033665476101	467
0	1096	919.886710352702	468
0	1098	920.060049795381	469
0	1103	929.186520408946	470
0	1105	929.636458424211	471
0	1107	930.215302294918	472
0	1109	931.917732535101	473
0	1111	933.142774390564	474
0	1113	940.290857367486	475
0	1115	941.146085851432	476
0	1117	942.021964096495	477
0	1119	942.461069720137	478
0	1127	948.494443786878	479
0	1130	952.660499710336	480
0	1132	955.879009205547	481
0	1134	956.940596304262	482
0	1137	961.803211802496	483
0	1139	963.165778094085	484
0	1141	964.111237893646	485
0	1143	970.122532935706	486
0	1145	971.307650745205	487
0	1147	971.316333095624	488
0	1149	971.612816443614	489
0	1151	974.704617557793	490
0	1153	975.113690726452	491
0	1157	975.995171899209	492
0	1161	981.778745539506	493
0	1165	986.418312732989	494
0	1167	986.734955269643	495
0	1169	987.312544437115	496
0	1173	990.615324219499	497
0	1177	994.481381519318	498
0	1179	998.820310728311	499
0	1181	1000.634239318431	500
0	1183	1001.495154259484	501
0	1185	1002.982161625658	502
0	1187	1003.787059350261	503
0	1190	1006.528182679392	504
0	1192	1008.382440785633	505
0	1194	1008.805269917123	506
0	1196	1009.016741038342	507
0	1198	1011.228390630087	508
0	1200	1012.690713969005	509
0	1202	1014.649607339868	510
0	1204	1015.001756039678	511
0	1206	1019.565777786158	512
0	1208	1022.659444048325	513
0	1210	1023.335649517403	514
0	1212	1024.099226475405	515
0	1214	1025.483629775102	516
0	1216	1029.848970396265	517
0	1218	1030.617100429613	518
0	1222	1031.523996388772	519
0	1224	1031.650117248616	520
0	1226	1032.794832469534	521
0	1228	1034.206050711734	522
0	1233	1035.884959662132	523
0	1235	1037.287072021476	524
0	1237	1041.173127372247	525
0	1239	1041.257428338252	526
0	1241	1043.68314777273	527
0	1243	1044.634816785242	528
0	1245	1047.828222594966	529
0	1247	1048.462025482805	530
0	1249	1048.578029200654	531
0	1253	1055.484400412584	532
0	1255	1062.748469659431	533
0	1257	1064.153551240582	534
0	1259	1064.901115358115	535
0	1261	1064.967966372154	536
0	1263	1070.24245529851	537
0	1265	1072.197059228776	538
0	1267	1075.03690955628	539
0	1270	1076.304285468562	540
0	1272	1079.492676138759	541
0	1274	1079.624237306241	542
0	1276	1080.210693668719	543
0	1278	1080.626315136582	544
0	1280	1084.078511944629	545
0	1282	1084.964013734374	546
0	1284	1085.693156780821	547
0	1286	1087.291721511122	548
0	1288	1090.444184816414	549
0	1290	1093.377637392346	550
0	1292	1097.140549148588	551
0	1294	1098.547574579667	552
0	1296	1098.662819233838	553
0	1298	1099.128265535933	554
0	1300	1099.775622957819	555
0	1302	1100.746698703666	556
0	1304	1101.759861284163	557
0	1309	1103.528561007225	558
0	1311	1104.847010363119	559
0	1313	1104.921775880723	560
0	1315	1109.099875725231	561
0	1317	1109.286755236718	562
0	1319	1115.280371558484	563
0	1321	1118.494495667315	564
0	1323	1119.678372432306	565
0	1325	1122.107318459602	566
0	1327	1122.147656081318	567
0	1331	1127.544543523026	568
0	1333	1130.452538532549	569
0	1335	1131.632913039156	570
0	1337	1134.646741998543	571
0	1339	1134.715843509371	572
0	1341	1138.437105438144	573
0	1343	1139.100561575676	574
0	1345	1144.302274385202	575
0	1347	1145.46584786046	576
0	1349	1147.053408865621	577
0	1351	1147.83855508197	578
0	1353	1148.985914930696	579
0	1355	1150.570442152569	580
0	1357	1150.771290328217	581
0	1359	1152.86292396912	582
0	1362	1153.449385059067	583
0	1364	1154.917157177074	584
0	1366	1155.860024197768	585
0	1368	1157.016645600001	586
0	1370	1157.377653673037	587
0	1372	1157.916334653419	588
0	1374	1158.562676280427	589
0	1376	1158.775801369805	590
0	1378	1162.602290326118	591
0	1380	1165.509818778984	592
0	1382	1167.015589354275	593
0	1384	1167.564384104757	594
0	1386	1167.669358715171	595
0	1389	1175.202913239424	596
0	1391	1176.495624260635	597
0	1393	1176.512172936622	598
0	1400	1183.822229996831	599
0	1402	1184.768806781522	600
0	1404	1186.115497708658	601
0	1407	1192.539710744791	602
0	1409	1192.54120796466	603
0	1411	1193.426996354334	604
0	1413	1193.848480072675	605
0	1415	1195.233258846705	606
0	1417	1196.755574307357	607
0	1419	1197.145131816398	608
0	1421	1197.384854503338	609
0	1423	1199.585135297225	610
0	1426	1202.616793332111	611
0	1428	1202.788063723351	612
0	1430	1203.121348648942	613
0	1434	1208.285206835297	614
0	1436	1212.390174604126	615
0	1438	1218.728504190119	616
0	1440	1219.502453399154	617
0	1442	1220.000761400558	618
0	1444	1224.568370731052	619
0	1446	1225.55061884121	620
0	1448	1225.636846157623	621
0	1450	1229.6910886403	622
0	1452	1230.833576222974	623
0	1454	1233.904276659019	624
0	1456	1235.085999157192	625
0	1458	1236.7630829099	626
0	1462	1238.671214725879	627
0	1464	1239.743417832725	628
0	1466	1240.131783589197	629
0	1468	1243.435839409142	630
0	1470	1245.172982663675	631
0	1472	1247.028883121952	632
0	1474	1249.122776440978	633
0	1477	1250.545523199554	634
0	1479	1253.67194816372	635
0	1481	1255.05871088033	636
0	1483	1256.605364346679	637
0	1485	1257.986589697136	638
0	1487	1259.367476250197	639
0	1489	1260.100573574821	640
0	1491	1260.21210504695	641
0	1493	1263.291306308681	642
0	1495	1263.331063662536	643
0	1499	1265.451670751853	644
0	1501	1265.468368874592	645
0	1503	1267.333251225949	646
0	1505	1267.535872619901	647
0	1507	1267.560099558239	648
0	1509	1268.34210319941	649
0	1513	1270.865637774693	650
0	1515	1271.366374844087	651
0	1518	1273.036261600183	652
0	1520	1273.662642469853	653
0	1522	1274.606407995996	654
0	1524	1274.771566953969	655
0	1526	1276.048403357297	656
0	1528	1276.153275065822	657
0	1530	1280.149020611253	658
0	1536	1286.985551113003	659
0	1538	1290.801433582312	660
0	1540	1293.471820382191	661
0	1542	1295.020290447887	662
0	1544	1298.461725132445	663
0	1546	1299.906420973526	664
0	1548	1303.27819832857	665
0	1550	1304.896398495479	666
0	1552	1305.31980721023	667
0	1554	1305.98178183576	668
0	1556	1308.995618047193	669
0	1558	1311.417858557814	670
0	1560	1318.575510045546	671
0	1562	1321.618761635658	672
0	1564	1322.682464293336	673
0	1566	1323.213821386141	674
0	1568	1325.607931287521	675
0	1570	1327.688743736631	676
0	1573	1330.405325032877	677
0	1575	1333.805327144282	678
0	1577	1334.085833664059	679
0	1581	1336.042212342516	680
0	1583	1336.613092355722	681
0	1587	1341.752748628725	682
0	1591	1347.453318590537	683
0	1593	1350.009779310072	684
0	1595	1352.503374957836	685
0	1599	1352.889607546764	686
0	1601	1356.241813833315	687
0	1603	1359.908260853734	688
0	1605	1362.112539211942	689
0	1607	1363.152652869672	690
0	1609	1364.907256562638	691
0	1611	1365.238842552974	692
0	1613	1366.390876759775	693
0	1615	1368.660820639261	694
0	1617	1372.462323460374	695
0	1619	1372.867105201329	696
0	1621	1373.310042720431	697
0	1625	1377.11495162551	698
0	1627	1382.109780219027	699
0	1629	1382.754978315956	700
0	1631	1383.883838098637	701
0	1634	1390.597627418456	702
0	1636	1391.979885907439	703
0	1638	1396.540889473852	704
0	1640	1397.000376158489	705
0	1642	1397.692949296393	706
0	1646	1401.657943901091	707
0	1648	1401.779999878915	708
0	1650	1401.876204290471	709
0	1652	1402.541420243704	710
0	1656	1406.214741536471	711
0	1658	1406.870862322129	712
0	1660	1408.121023634348	713
0	1662	1410.794101947111	714
0	1664	1414.67311233283	715
0	1667	1417.472119368681	716
0	1669	1420.218530385263	717
0	1671	1421.984683061416	718
0	1673	1422.864200812118	719
0	1679	1431.73908825561	720
0	1681	1432.661563103244	721
0	1683	1434.84236539609	722
0	1685	1437.355891901027	723
0	1687	1438.785035853013	724
0	1689	1440.023686810875	725
0	1691	1447.213905864199	726
0	1694	1447.93345734316	727
0	1698	1448.849581342361	728
0	1700	1449.191587336155	729
0	1703	1451.342719320707	730
0	1705	1452.869981726596	731
0	1707	1456.853948864406	732
0	1709	1458.162010069838	733
0	1711	1459.047056265124	734
0	1713	1460.227900224926	735
0	1715	1462.267452124922	736
0	1718	1463.372707528954	737
0	1720	1466.509850642256	738
0	1722	1471.872992114486	739
0	1724	1476.426670583125	740
0	1726	1476.836782146257	741
0	1728	1478.794519817776	742
0	1730	1480.516252174724	743
0	1732	1483.823696149242	744
0	1734	1485.968970740687	745
0	1736	1486.289966732415	746
0	1738	1488.414866748614	747
0	1740	1490.75466917407	748
0	1744	1492.289418193725	749
0	1746	1492.525969816027	750
0	1751	1500.26287776305	751
0	1753	1501.571668764059	752
0	1755	1502.059839915738	753
0	1757	1503.064789425465	754
0	1759	1503.497050612776	755
0	1761	1503.674565204475	756
0	1763	1505.214480393962	757
0	1765	1506.974505133797	758
0	1767	1515.745865002543	759
0	1769	1516.084848512768	760
0	1771	1516.642284908572	761
0	1773	1519.556249587624	762
0	1775	1522.272065469062	763
0	1777	1523.001966493871	764
0	1781	1523.418726482445	765
0	1783	1524.349683814217	766
0	1785	1531.849850012541	767
0	1787	1532.181549298721	768
0	1789	1533.318489532983	769
0	1791	1538.14810900467	770
0	1793	1539.654090435253	771
0	1795	1540.165750710658	772
0	1797	1540.730803906428	773
0	1800	1545.546075086506	774
0	1802	1545.944117295799	775
0	1804	1546.044006744055	776
0	1808	1550.220796065811	777
0	1810	1550.654144195167	778
0	1812	1558.676886348995	779
0	1814	1559.695568058613	780
0	1816	1563.069535860131	781
0	1818	1563.101637794218	782
0	1820	1563.359307244705	783
0	1822	1564.32475087381	784
0	1824	1564.857924013129	785
0	1826	1574.190576003802	786
0	1828	1575.063307820794	787
0	1830	1576.190849308079	788
0	1832	1576.98719485205	789
0	1834	1577.054541366963	790
0	1836	1577.86621633844	791
0	1838	1578.393673697886	792
0	1840	1579.681144245009	793
0	1842	1580.692660546965	794
0	1846	1583.262991860815	795
0	1848	1586.186382836822	796
0	1850	1586.886471276416	797
0	1852	1588.902179903788	798
0	1854	1589.921081146505	799
0	1856	1590.372901962819	800
0	1858	1595.322974298899	801
0	1860	1597.398854579039	802
0	1864	1599.425024458593	803
0	1866	1603.776581345934	804
0	1868	1605.525086817344	805
0	1870	1606.88358934359	806
0	1872	1608.091750146583	807
0	1874	1609.659195831263	808
0	1876	1612.984329300594	809
0	1878	1613.200458448473	810
0	1880	1614.826783720468	811
0	1882	1615.454793168005	812
0	1884	1619.172930979759	813
0	1886	1619.807664395839	814
0	1888	1620.225128661983	815
0	1890	1623.107802862735	816
0	1892	1628.387158236546	817
0	1894	1630.187684331664	818
0	1896	1635.537576955357	819
0	1898	1638.907262029684	820
0	1902	1640.785468065572	821
0	1904	1644.075271516028	822
0	1906	1645.346802929745	823
0	1909	1645.964040692688	824
0	1911	1647.097997462179	825
0	1913	1647.159247283636	826
0	1915	1647.438535946086	827
0	1917	1649.359682651179	828
0	1919	1650.015358094084	829
0	1921	1653.257284644911	830
0	1923	1658.274108963167	831
0	1925	1658.938420984103	832
0	1927	1659.001046624495	833
0	1930	1666.349247765726	834
0	1932	1666.467948587005	835
0	1934	1666.912266401633	836
0	1936	1667.121837169799	837
0	1938	1668.267329910184	838
0	1940	1668.529335561226	839
0	1942	1672.618609314758	840
0	1944	1676.459873281927	841
0	1946	1677.145343403286	842
0	1948	1677.151204917746	843
0	1950	1678.009205000199	844
0	1952	1678.413086650707	845
0	1954	1678.527900788125	846
0	1956	1682.99669553806	847
0	1958	1685.736514441718	848
0	1960	1690.427812283778	849
0	1962	1690.450687118295	850
0	1964	1691.35810363759	851
0	1966	1696.973496656457	852
0	1968	1700.129161130204	853
0	1970	1704.802500814272	854
0	1973	1710.934231165068	855
0	1975	1714.68155587444	856
0	1977	1714.747756908912	857
0	1980	1722.151514986056	858
0	1982	1727.111947074467	859
0	1984	1727.778545754471	860
0	1986	1731.436609560975	861
0	1988	1733.338382482948	862
0	1992	1741.663897702541	863
0	1994	1742.551139191338	864
0	1996	1743.826628879368	865
0	1998	1743.831532080184	866
0	2000	1747.444060686307	867
0	2002	1747.812859057279	868
0	2004	1749.287361940297	869
0	2006	1749.633530948294	870
0	2008	1749.693485686263	871
0	2010	1751.245096158478	872
0	2012	1751.262505617087	873
0	2014	1753.221285774791	874
0	2016	1757.234221169401	875
0	2018	1762.046095611864	876
0	2020	1763.159194240688	877
0	2022	1764.203340071029	878
0	2024	1765.49074382378	879
0	2026	1766.021396135824	880
0	2028	1766.135475761712	881
0	2032	1770.117416462794	882
0	2034	1770.993047197887	883
0	2036	1771.33183027378	884
0	2038	1772.187428563434	885
0	2040	1774.339327702939	886
0	2042	1774.973874049369	887
0	2045	1777.114909727739	888
0	2047	1779.641287059595	889
0	2049	1779.932326488868	890
0	2051	1780.785149165912	891
0	2053	1784.925506725967	892
0	2055	1788.168596832418	893
0	2057	1789.948305940945	894
0	2059	1791.631990611814	895
0	2061	1792.567157013112	896
0	2063	1795.037473419261	897
0	2065	1797.533757309523	898
0	2067	1798.522742032247	899
0	2069	1802.680231415151	900
0	2071	1802.973565968013	901
0	2073	1804.707593718326	902
0	2075	1805.344282138446	903
0	2077	1807.199146970303	904
0	2079	1808.973361317915	905
0	2081	1809.16450963681	906
0	2083	1814.004599537765	907
0	2085	1815.832703623598	908
0	2087	1818.606947340553	909
0	2089	1819.785942392337	910
0	2091	1820.688083939217	911
0	2093	1821.423698264461	912
0	2095	1822.190719071125	913
0	2101	1824.479654065171	914
0	2103	1825.631287956185	915
0	2106	1826.935013272506	916
0	2108	1828.043846676546	917
0	2110	1829.02690018065	918
0	2112	1832.548518704297	919
0	2114	1833.471471116684	920
0	2118	1836.636263192279	921
0	2120	1837.264473210152	922
0	2124	1837.859836334743	923
0	2126	1837.946014339346	924
0	2128	1838.985394604313	925
0	2130	1839.519728629199	926
0	2132	1841.108069187472	927
0	2134	1842.505180845516	928
0	2136	1844.480435271398	929
0	2138	1845.627111875758	930
0	2140	1845.918799026895	931
0	2142	1846.2841309181	932
0	2144	1848.477740709052	933
0	2146	1850.430822851216	934
0	2148	1850.48148429775	935
0	2150	1850.690090257572	936
0	2152	1855.915213817679	937
0	2154	1856.620396538656	938
0	2156	1856.931575895482	939
0	2158	1858.179325825318	940
0	2160	1859.598524386805	941
0	2162	1862.488917157634	942
0	2164	1863.693361254412	943
0	2166	1866.004838692615	944
0	2168	1867.304037903888	945
0	2170	1869.569151706856	946
0	2172	1875.957501971168	947
0	2174	1879.95285257769	948
0	2176	1881.754147507102	949
0	2178	1885.549398668832	950
0	2180	1887.59332746457	951
0	2184	1887.83882571683	952
0	2186	1888.501439325879	953
0	2190	1891.375220975428	954
0	2192	1893.544306081305	955
0	2194	1893.677765136189	956
0	2196	1900.094345926553	957
0	2198	1904.097403809788	958
0	2200	1905.699511069393	959
0	2202	1906.563193784632	960
0	2204	1906.720836687723	961
0	2206	1907.827571655265	962
0	2208	1910.391145749507	963
0	2210	1910.453738888077	964
0	2212	1911.340595239605	965
0	2214	1912.116309193505	966
0	2216	1914.625959086133	967
0	2218	1915.987711003375	968
0	2220	1919.197219410819	969
0	2222	1919.977443779356	970
0	2227	1923.667816560903	971
0	2229	1923.976443198999	972
0	2231	1924.039161909686	973
0	2233	1925.905010951448	974
0	2235	1926.677545336213	975
0	2237	1928.327848504283	976
0	2239	1930.88809990411	977
0	2241	1944.420473634661	978
0	2243	1947.785083657417	979
0	2245	1951.229882493483	980
0	2247	1951.999922168661	981
0	2249	1955.225470050842	982
0	2253	1962.29548596745	983
0	2257	1968.76383152786	984
0	2259	1970.835961624206	985
0	2261	1971.036447025201	986
0	2263	1971.938419047308	987
0	2265	1974.45464398541	988
0	2267	1974.933160449799	989
0	2269	1975.051202355624	990
0	2271	1975.144297709107	991
0	2273	1979.39238044931	992
0	2275	1980.67022131203	993
0	2277	1982.379279072162	994
0	2279	1983.467291663524	995
0	2281	1983.548674902715	996
0	2283	1984.500689863911	997
0	2285	1987.073889728829	998
0	2287	1988.416667578501	999
0	2289	1988.668718321216	1000
0	2291	1988.867089903503	1001
0	2293	1989.727571478286	1002
0	2295	1992.765745196188	1003
0	2299	1997.981120013133	1004
0	2301	1998.785080488527	1005
0	2303	2001.399318388063	1006
0	2305	2001.569264882543	1007
0	2307	2001.868466283754	1008
0	2309	2004.785878355912	1009
0	2316	2011.18403128718	1010
0	2318	2012.381356660616	1011
0	2322	2015.008043461539	1012
0	2324	2016.098360210891	1013
0	2326	2017.106702691788	1014
0	2328	2019.306016328654	1015
0	2330	2019.587816284498	1016
0	2332	2022.193246707279	1017
0	2334	2024.292045375212	1018
0	2336	2028.254197280395	1019
0	2338	2029.16176061048	1020
0	2340	2029.631443729394	1021
0	2342	2030.29337816026	1022
0	2344	2030.833593996896	1023
0	2346	2031.999629423915	1024
0	2348	2034.167016297843	1025
0	2350	2038.075692822915	1026
0	2352	2038.878682729893	1027
0	2354	2039.700111362143	1028
0	2356	2039.975878808018	1029
0	2358	2040.115705926099	1030
0	2360	2040.348987686595	1031
0	2362	2040.940923125984	1032
0	2364	2041.512279689401	1033
0	2366	2042.958244006926	1034
0	2368	2043.131386122285	1035
0	2370	2044.311000100741	1036
0	2372	2047.819642403594	1037
0	2374	2048.735630704796	1038
0	2376	2052.596589700533	1039
0	2378	2055.235725957324	1040
0	2380	2055.54286292179	1041
0	2382	2057.922380825953	1042
0	2384	2058.749272495435	1043
0	2386	2059.139963400727	1044
0	2388	2064.210151544563	1045
0	2390	2064.44219313562	1046
0	2394	2065.581480562997	1047
0	2396	2065.984700821403	1048
0	2398	2066.30850483109	1049
0	2400	2069.204796811488	1050
0	2404	2070.010914648276	1051
0	2406	2073.135849228563	1052
0	2408	2075.718172928078	1053
0	2410	2078.123040614053	1054
0	2412	2078.54886025502	1055
0	2418	2084.250414415562	1056
0	2420	2084.335929126303	1057
0	2422	2084.577806317718	1058
0	2424	2086.101747902865	1059
0	2426	2086.606997976244	1060
0	2429	2087.925081580194	1061
0	2431	2088.171028991458	1062
0	2433	2089.220877312681	1063
0	2435	2090.393998273415	1064
0	2437	2093.528149735624	1065
0	2440	2096.96192919689	1066
0	2442	2097.026767226743	1067
0	2444	2097.206935536962	1068
0	2446	2098.532719517781	1069
0	2448	2099.336848156994	1070
0	2450	2100.706297534704	1071
0	2452	2102.351717654464	1072
0	2457	2105.19710630374	1073
0	2459	2109.108919544093	1074
0	2463	2111.308100445077	1075
0	2465	2112.350455824456	1076
0	2467	2112.505850532082	1077
0	2469	2114.441055083568	1078
0	2471	2115.673277449969	1079
0	2473	2116.16162834467	1080
0	2475	2117.156412238996	1081
0	2477	2117.346004439684	1082
0	2479	2117.626331268516	1083
0	2481	2120.04961705168	1084
0	2483	2121.955128936786	1085
0	2487	2127.035170727931	1086
0	2489	2128.675668897789	1087
0	2491	2130.401964694018	1088
0	2493	2135.453969720009	1089
0	2495	2136.750709897921	1090
0	2497	2137.456863376509	1091
0	2499	2141.738776071293	1092
0	2501	2143.559696829265	1093
0	2505	2145.131749659391	1094
0	2507	2145.251349441258	1095
0	2509	2149.380443267456	1096
0	2513	2150.726133184806	1097
0	2515	2150.946749714704	1098
0	2517	2151.051714255824	1099
0	2519	2152.868865700578	1100
0	2521	2156.026758928899	1101
0	2523	2156.260946457756	1102
0	2525	2156.300735677479	1103
0	2527	2158.479822251182	1104
0	2529	2161.296080348746	1105
0	2533	2164.89949609387	1106
0	2536	2170.320155471879	1107
0	2538	2171.08248511384	1108
0	2540	2171.427441981577	1109
0	2542	2172.357064420646	1110
0	2544	2173.462890487801	1111
0	2546	2173.481112609097	1112
0	2548	2190.299561119905	1113
0	2550	2191.146356708795	1114
0	2553	2197.304692192398	1115
0	2555	2206.941432361502	1116
0	2557	2207.362040791553	1117
0	2559	2208.221229654145	1118
0	2561	2209.959688694841	1119
0	2565	2210.883321802482	1120
0	2567	2212.514489771065	1121
0	2569	2212.665256399506	1122
0	2571	2212.66670329978	1123
0	2575	2217.230517012289	1124
0	2577	2217.79330762724	1125
0	2579	2219.853732772571	1126
0	2582	2221.624367513668	1127
0	2584	2221.719400316537	1128
0	2586	2221.759160885267	1129
0	2588	2223.227021545309	1130
0	2590	2227.090476956795	1131
0	2593	2227.572728296767	1132
0	2595	2229.365409799159	1133
0	2597	2230.274093425432	1134
0	2599	2231.890552057111	1135
0	2602	2238.595835752246	1136
0	2604	2240.577237963176	1137
0	2606	2245.309324597776	1138
0	2608	2245.382498695219	1139
0	2610	2247.960139547774	1140
0	2612	2249.934180632457	1141
0	2615	2251.91561794296	1142
0	2617	2254.416702207703	1143
0	2619	2256.384015820389	1144
0	2621	2259.343229211346	1145
0	2623	2261.797605294696	1146
0	2625	2262.619837982552	1147
0	2627	2263.637749434931	1148
0	2630	2264.697976220414	1149
0	2632	2264.913890883015	1150
0	2634	2265.657060710072	1151
0	2636	2274.145991582904	1152
0	2638	2277.124717345683	1153
0	2642	2279.13442529096	1154
0	2644	2279.187921070029	1155
0	2646	2281.962987761873	1156
0	2648	2283.20803541518	1157
0	2650	2286.66009315823	1158
0	2652	2287.486065898922	1159
0	2654	2289.95905650516	1160
0	2656	2293.203112255646	1161
0	2658	2293.388176073496	1162
0	2660	2294.84087594011	1163
0	2662	2300.319431961538	1164
0	2664	2303.283731085582	1165
0	2666	2303.323472729947	1166
0	2668	2304.081101441812	1167
0	2670	2304.299376410944	1168
0	2672	2304.401450557679	1169
0	2674	2304.455368841743	1170
0	2676	2307.075621447182	1171
0	2678	2309.377025485624	1172
0	2680	2309.541268388224	1173
0	2686	2318.106757211325	1174
0	2688	2319.409064712079	1175
0	2690	2319.645054273358	1176
0	2694	2335.181860795147	1177
0	2696	2336.056897394111	1178
0	2698	2337.677166690942	1179
0	2700	2344.335305849857	1180
0	2702	2345.535600551945	1181
0	2704	2347.378861533994	1182
0	2706	2349.677980809969	1183
0	2708	2351.111035993102	1184
0	2710	2352.396921134505	1185
0	2712	2352.501184187855	1186
0	2715	2353.809625359001	1187
0	2717	2354.001091082539	1188
0	2720	2358.717614485672	1189
0	2722	2361.807433624635	1190
0	2724	2361.837764925811	1191
0	2726	2362.208627489922	1192
0	2728	2368.144102411665	1193
0	2730	2370.793980650097	1194
0	2732	2371.492652887266	1195
0	2735	2372.042475055938	1196
0	2737	2374.544176942327	1197
0	2739	2375.504427412781	1198
0	2741	2380.958778609367	1199
0	2743	2382.809477484839	1200
0	2745	2384.653515595077	1201
0	2747	2385.778584900046	1202
0	2749	2386.080207054687	1203
0	2751	2388.266646093067	1204
0	2753	2395.325618248853	1205
0	2757	2398.463777871052	1206
0	2759	2399.238335137934	1207
0	2763	2402.447714582416	1208
0	2765	2404.015237193505	1209
0	2767	2405.981192524327	1210
0	2769	2409.502931222892	1211
0	2771	2410.006842313362	1212
0	2773	2410.613492686164	1213
0	2775	2410.825654718483	1214
0	2777	2413.145599426608	1215
0	2779	2414.30510173308	1216
0	2783	2417.61212606212	1217
0	2785	2419.521381440849	1218
0	2790	2421.323953955635	1219
0	2792	2426.153828294506	1220
0	2794	2428.644708836044	1221
0	2796	2429.169483659139	1222
0	2798	2431.750394571906	1223
0	2800	2433.882488349685	1224
0	2802	2434.025941533768	1225
0	2804	2434.32016941105	1226
0	2806	2434.719209978584	1227
0	2808	2434.980181590628	1228
0	2810	2436.79484750099	1229
0	2812	2436.847814852325	1230
0	2814	2437.408396177768	1231
0	2816	2437.43027896135	1232
0	2818	2441.225479629824	1233
0	2820	2442.619711501606	1234
0	2822	2448.456073820078	1235
0	2824	2449.057427201295	1236
0	2826	2449.113910695785	1237
0	2828	2449.687426825716	1238
0	2830	2450.433287548386	1239
0	2832	2451.29620852233	1240
0	2834	2454.591746418533	1241
0	2837	2459.658487636981	1242
0	2839	2463.001473102531	1243
0	2841	2463.326441201533	1244
0	2843	2464.387599904512	1245
0	2845	2464.869007416157	1246
0	2847	2465.262167288899	1247
0	2849	2466.843944182127	1248
0	2851	2469.318669335267	1249
0	2853	2471.294088453707	1250
0	2855	2472.036979025209	1251
0	2857	2475.481376595608	1252
0	2859	2477.212651347907	1253
0	2861	2478.361686330302	1254
0	2863	2479.414914542993	1255
0	2865	2479.838101871909	1256
0	2867	2481.14417030419	1257
0	2869	2481.349760816943	1258
0	2871	2481.981933013205	1259
0	2873	2485.867915663778	1260
0	2876	2487.561934424039	1261
0	2878	2488.621432231437	1262
0	2880	2492.054415943457	1263
0	2882	2492.078836216348	1264
0	2884	2492.933022930807	1265
0	2886	2493.106764677942	1266
0	2888	2493.220853939927	1267
0	2890	2493.321938316877	1268
0	2892	2495.775169905555	1269
0	2894	2496.332018017206	1270
0	2896	2497.77000138524	1271
0	2898	2498.387371102467	1272
0	2900	2498.624601337695	1273
0	2902	2499.838249075046	1274
1	437	350.563008340612	186
1	441	359.441718240152	187
1	443	360.897141892245	188
1	448	363.404959221656	189
1	450	364.533443469734	190
1	452	366.402961088924	191
1	456	372.745604752478	192
1	458	378.065000466012	193
1	460	378.582284299245	194
1	463	379.581971344138	195
1	465	380.04574587285	196
1	469	380.478994515192	197
1	472	384.621183469963	198
1	474	387.386037647056	199
1	478	389.105405480814	200
1	480	390.305903194696	201
1	484	395.624375510378	202
1	486	395.868249493239	203
1	488	395.952486727996	204
1	490	396.010865163352	205
1	492	396.160811114799	206
1	494	396.815103569135	207
1	496	397.426876371864	208
1	500	400.903314264318	209
1	502	403.282897856052	210
1	504	403.871045155935	211
1	506	404.259237968537	212
1	508	405.408525581749	213
1	510	409.312113208551	214
1	512	409.861878598026	215
1	514	412.297153678881	216
1	516	413.367439638013	217
1	518	415.827495006568	218
1	522	420.802747718981	219
1	527	430.616242091962	220
1	529	431.271348008768	221
1	531	434.60901820231	222
1	533	434.723201050139	223
1	535	435.006858667878	224
1	537	435.416824231339	225
1	539	436.103476235943	226
1	541	436.373772562041	227
1	543	437.815344604536	228
1	545	438.154261429988	229
1	547	438.474849991872	230
1	550	443.94349574767	231
1	552	444.374246793683	232
1	554	446.01434492919	233
1	556	446.187111191583	234
1	558	456.586879560812	235
1	560	457.083280460514	236
1	563	459.658778582919	237
1	565	459.854943418844	238
1	567	460.687995897621	239
1	569	461.0958214597	240
1	571	466.460746919385	241
1	573	466.981405072689	242
1	575	471.575116370613	243
1	577	471.975004245967	244
1	579	479.003658749166	245
1	581	479.311655582927	246
1	583	480.950906945341	247
1	586	485.255362469536	248
1	588	486.146379051094	249
1	590	487.236232226584	250
1	592	488.333242806448	251
1	594	488.406558859971	252
1	596	488.634594403201	253
1	598	488.99182706734	254
1	600	492.592894416556	255
1	602	492.646322982433	256
1	604	497.534396756157	257
1	608	498.98626620606	258
1	610	499.759337769117	259
1	612	500.565013834685	260
1	614	501.613310197165	261
1	616	504.224325236492	262
1	618	505.021065680108	263
1	620	508.609462979477	264
1	622	511.893720182873	265
1	624	512.974173731615	266
1	626	513.834126966669	267
1	628	514.293794065809	268
1	630	515.555326479384	269
1	632	516.914011603145	270
1	634	518.982437693514	271
1	637	523.642336412903	272
1	639	525.716177868907	273
1	641	526.720341705429	274
1	643	530.583227986003	275
1	645	533.624348693573	276
1	647	536.243242911572	277
1	649	536.540296217507	278
1	652	537.20864516323	279
1	654	541.104596910016	280
1	656	543.032104582455	281
1	658	545.137174633475	282
1	660	550.502725507143	283
1	662	551.850610282405	284
1	664	552.670363018637	285
1	666	554.274020177098	286
1	668	554.348833610215	287
1	670	555.412869179903	288
1	672	557.461253400919	289
1	674	557.612234064517	290
1	676	559.910138496699	291
1	678	560.312532978429	292
1	680	561.862785091723	293
1	682	562.930610783527	294
1	684	565.382333930801	295
1	686	565.926723568139	296
1	688	566.895968861881	297
1	690	567.434888320684	298
1	692	569.757999717039	299
1	698	572.899154819493	300
1	700	574.766996342004	301
1	702	579.454560612047	302
1	704	581.054603012643	303
1	707	582.7217735349	304
1	709	583.653771342783	305
1	711	584.928322220314	306
1	714	591.540823088331	307
1	717	592.051879403658	308
1	719	594.127784892894	309
1	721	594.18111918944	310
1	724	598.9568407254	311
1	726	600.13559734613	312
1	728	606.336300191205	313
1	730	608.613377350185	314
1	732	609.155847040442	315
1	734	611.527748162238	316
1	736	612.043811112841	317
1	738	612.903367279333	318
1	740	613.805468879414	319
1	742	613.902708197559	320
1	744	614.868206392127	321
1	748	621.101454253129	322
1	750	623.106049228132	323
1	752	623.968824894964	324
1	757	631.217819626418	325
1	759	632.029332287866	326
1	761	633.306974011784	327
1	763	634.380721099669	328
1	765	635.451005841341	329
1	767	639.214958395978	330
1	769	639.314215824731	331
1	771	639.706353216097	332
1	775	646.875165995834	333
1	777	647.295010826718	334
1	782	655.007113291108	335
1	786	657.744286106131	336
1	788	659.872029988132	337
1	790	662.422651100228	338
1	792	662.735739634642	339
1	794	663.252098305321	340
1	796	667.766807925452	341
1	798	668.957993515093	342
1	801	670.302657115243	343
1	805	672.660670403395	344
1	807	674.603484947049	345
1	809	675.525867615508	346
1	811	675.741097886029	347
1	814	678.389355195172	348
1	817	680.995035294893	349
1	819	681.585285444163	350
1	821	681.853498508288	351
1	823	685.444212633026	352
1	825	686.514443908958	353
1	828	694.339123410752	354
1	830	696.67124854601	355
1	832	697.548799777715	356
1	834	700.951630710656	357
1	836	705.373669154726	358
1	838	705.902020175276	359
1	840	705.941508343994	360
1	842	706.761694258751	361
1	844	706.882478420326	362
1	846	707.858086588404	363
1	848	708.24443671423	364
1	850	709.618673702749	365
1	852	710.923800613809	366
1	860	718.600773318542	367
1	862	718.7191706715	368
1	864	719.894587856083	369
1	866	720.45832428398	370
1	869	724.584917171665	371
1	871	731.99006404691	372
1	874	735.155203498157	373
1	877	737.867261293083	374
1	879	738.032549429268	375
1	883	742.294218666925	376
1	888	749.193068297475	377
1	891	751.545354281278	378
1	895	756.845846968982	379
1	897	758.068409837549	380
1	899	758.25228793417	381
1	901	761.236723163289	382
1	903	762.730701111324	383
1	905	764.371271295102	384
1	907	764.375844892955	385
1	909	764.720992706793	386
1	912	766.093786443728	387
1	914	771.005588859301	388
1	916	776.41463975844	389
1	920	781.022191830161	390
1	922	783.128085579358	391
1	924	783.766429851517	392
1	926	784.003358540235	393
1	928	785.943722819035	394
1	930	787.480248600272	395
1	932	788.672492396074	396
1	934	789.368147329513	397
1	936	790.170459849321	398
1	940	791.547415050529	399
1	942	791.779614801005	400
1	944	793.800575068204	401
1	948	800.926908090818	402
1	950	807.543248501759	403
1	952	809.993653921224	404
1	954	812.707799389908	405
1	956	813.800862673449	406
1	958	814.750019139834	407
1	961	816.080270352829	408
1	963	819.254945332847	409
1	965	819.362964355695	410
1	967	820.190945340708	411
1	969	820.683039718444	412
1	973	822.960903217932	413
1	975	823.910023279611	414
1	977	824.696880607674	415
1	979	824.856428388247	416
1	981	826.237327023276	417
1	983	827.097302751096	418
1	985	828.482032137886	419
1	987	833.665317252567	420
1	989	834.835050361662	421
1	991	835.344633156475	422
1	993	836.246289010665	423
1	997	836.885619976556	424
1	999	837.10846384725	425
1	1001	837.444813399814	426
1	1003	838.236237337527	427
1	1005	839.779216252426	428
1	1007	844.999939982417	429
1	1011	848.686861107268	430
1	1013	850.126791831785	431
1	1015	850.512674530108	432
1	1018	853.244151151441	433
1	1020	853.285600966356	434
1	1022	854.627018735837	435
1	1024	861.839194659475	436
1	1026	862.027073127995	437
1	1028	862.243454896201	438
1	1030	862.267733517239	439
1	1032	863.525366803809	440
1	1035	868.14782726064	441
1	1037	871.784178878287	442
1	1039	872.753419344782	443
1	1041	875.073400516529	444
1	1043	878.187153572996	445
1	1045	881.127814666504	446
1	1047	886.18679917844	447
1	1049	890.357580150221	448
1	1051	894.672344712911	449
1	1053	894.673218458705	450
1	1055	894.901834362903	451
1	1057	895.137224400285	452
1	1059	896.203984343369	453
1	1062	897.269863685651	454
1	1064	897.344970494282	455
1	1069	899.144711811631	456
1	1071	899.305035436225	457
1	1073	899.744681219744	458
1	1077	904.63301358424	459
1	1079	904.771539018934	460
1	1081	908.528376301758	461
1	1083	916.295119016994	462
1	1085	917.233098870937	463
1	1087	917.354219310053	464
1	1091	917.699312039126	465
1	1093	919.033665476101	466
1	1096	919.886710352702	467
1	1098	920.060049795381	468
1	1103	929.186520408946	469
1	1105	929.636458424211	470
1	1107	930.215302294918	471
1	1109	931.917732535101	472
1	1111	933.142774390564	473
1	1113	940.290857367486	474
1	1115	941.146085851432	475
1	1117	942.021964096495	476
1	1119	942.461069720137	477
1	1127	948.494443786878	478
1	1130	952.660499710336	479
1	1132	955.879009205547	480
1	1134	956.940596304262	481
1	1137	961.803211802496	482
1	1139	963.165778094085	483
1	1141	964.111237893646	484
1	1143	970.122532935706	485
1	1145	971.307650745205	486
1	1147	971.316333095624	487
1	1149	971.612816443614	488
1	1151	974.704617557793	489
1	1153	975.113690726452	490
1	1157	975.995171899209	491
1	1161	981.778745539506	492
1	1165	986.418312732989	493
1	1167	986.734955269643	494
1	1169	987.312544437115	495
1	1173	990.615324219499	496
1	1177	994.481381519318	497
1	1179	998.820310728311	498
1	1181	1000.634239318431	499
1	1183	1001.495154259484	500
1	1185	1002.982161625658	501
1	1187	1003.787059350261	502
1	1190	1006.528182679392	503
1	1192	1008.382440785633	504
1	1194	1008.805269917123	505
1	1196	1009.016741038342	506
1	1198	1011.228390630087	507
1	1200	1012.690713969005	508
1	1202	1014.649607339868	509
1	1204	1015.001756039678	510
1	1206	1019.565777786158	511
1	1208	1022.659444048325	512
1	1210	1023.335649517403	513
1	1212	1024.099226475405	514
1	1214	1025.483629775102	515
1	1216	1029.848970396265	516
1	1218	1030.617100429613	517
1	1222	1031.523996388772	518
1	1224	1031.650117248616	519
1	1226	1032.794832469534	520
1	1228	1034.206050711734	521
1	1233	1035.884959662132	522
1	1235	1037.287072021476	523
1	1237	1041.173127372247	524
1	1239	1041.257428338252	525
1	1241	1043.68314777273	526
1	1243	1044.634816785242	527
1	1245	1047.828222594966	528
1	1247	1048.462025482805	529
1	1249	1048.578029200654	530
1	1253	1055.484400412584	531
1	1255	1062.748469659431	532
1	1257	1064.153551240582	533
1	1259	1064.901115358115	534
1	1261	1064.967966372154	535
1	1263	1070.24245529851	536
1	1265	1072.197059228776	537
1	1267	1075.03690955628	538
1	1270	1076.304285468562	539
1	1272	1079.492676138759	540
1	1274	1079.624237306241	541
1	1276	1080.210693668719	542
1	1278	1080.626315136582	543
1	1280	1084.078511944629	544
1	1282	1084.964013734374	545
1	1284	1085.693156780821	546
1	1286	1087.291721511122	547
1	1288	1090.444184816414	548
1	1290	1093.377637392346	549
1	1292	1097.140549148588	550
1	1294	1098.547574579667	551
1	1296	1098.662819233838	552
1	1298	1099.128265535933	553
1	1300	1099.775622957819	554
1	1302	1100.746698703666	555
1	1304	1101.759861284163	556
1	1309	1103.528561007225	557
1	1311	1104.847010363119	558
1	1313	1104.921775880723	559
1	1315	1109.099875725231	560
1	1317	1109.286755236718	561
1	1319	1115.280371558484	562
1	1321	1118.494495667315	563
1	1323	1119.678372432306	564
1	1325	1122.107318459602	565
1	1327	1122.147656081318	566
1	1331	1127.544543523026	567
1	1333	1130.452538532549	568
1	1335	1131.632913039156	569
1	1337	1134.646741998543	570
1	1339	1134.715843509371	571
1	1341	1138.437105438144	572
1	1343	1139.100561575676	573
1	1345	1144.302274385202	574
1	1347	1145.46584786046	575
1	1349	1147.053408865621	576
1	1351	1147.83855508197	577
1	1353	1148.985914930696	578
1	1355	1150.570442152569	579
1	1357	1150.771290328217	580
1	1359	1152.86292396912	581
1	1362	1153.449385059067	582
1	1364	1154.917157177074	583
1	1366	1155.860024197768	584
1	1368	1157.016645600001	585
1	1370	1157.377653673037	586
1	1372	1157.916334653419	587
1	1374	1158.562676280427	588
1	1376	1158.775801369805	589
1	1378	1162.602290326118	590
1	1380	1165.509818778984	591
1	1382	1167.015589354275	592
1	1384	1167.564384104757	593
1	1386	1167.669358715171	594
1	1389	1175.202913239424	595
1	1391	1176.495624260635	596
1	1393	1176.512172936622	597
1	1400	1183.822229996831	598
1	1402	1184.768806781522	599
1	1404	1186.115497708658	600
1	1407	1192.539710744791	601
1	1409	1192.54120796466	602
1	1411	1193.426996354334	603
1	1413	1193.848480072675	604
1	1415	1195.233258846705	605
1	1417	1196.755574307357	606
1	1419	1197.145131816398	607
1	1421	1197.384854503338	608
1	1423	1199.585135297225	609
1	1426	1202.616793332111	610
1	1428	1202.788063723351	611
1	1430	1203.121348648942	612
1	1434	1208.285206835297	613
1	1436	1212.390174604126	614
1	1438	1218.728504190119	615
1	1440	1219.502453399154	616
1	1442	1220.000761400558	617
1	1444	1224.568370731052	618
1	1446	1225.55061884121	619
1	1448	1225.636846157623	620
1	1450	1229.6910886403	621
1	1452	1230.833576222974	622
1	1454	1233.904276659019	623
1	1456	1235.085999157192	624
1	1458	1236.7630829099	625
1	1462	1238.671214725879	626
1	1464	1239.743417832725	627
1	1466	1240.131783589197	628
1	1468	1243.435839409142	629
1	1470	1245.172982663675	630
1	1472	1247.028883121952	631
1	1474	1249.122776440978	632
1	1477	1250.545523199554	633
1	1479	1253.67194816372	634
1	1481	1255.05871088033	635
1	1483	1256.605364346679	636
1	1485	1257.986589697136	637
1	1487	1259.367476250197	638
1	1489	1260.100573574821	639
1	1491	1260.21210504695	640
1	1493	1263.291306308681	641
1	1495	1263.331063662536	642
1	1499	1265.451670751853	643
1	1501	1265.468368874592	644
1	1503	1267.333251225949	645
1	1505	1267.535872619901	646
1	1507	1267.560099558239	647
1	1509	1268.34210319941	648
1	1513	1270.865637774693	649
1	1515	1271.366374844087	650
1	1518	1273.036261600183	651
1	1520	1273.662642469853	652
1	1522	1274.606407995996	653
1	1524	1274.771566953969	654
1	1526	1276.048403357297	655
1	1528	1276.153275065822	656
1	1530	1280.149020611253	657
1	1536	1286.985551113003	658
1	1538	1290.801433582312	659
1	1540	1293.471820382191	660
1	1542	1295.020290447887	661
1	1544	1298.461725132445	662
1	1546	1299.906420973526	663
1	1548	1303.27819832857	664
1	1550	1304.896398495479	665
1	1552	1305.31980721023	666
1	1554	1305.98178183576	667
1	1556	1308.995618047193	668
1	1558	1311.417858557814	669
1	1560	1318.575510045546	670
1	1562	1321.618761635658	671
1	1564	1322.682464293336	672
1	1566	1323.213821386141	673
1	1568	1325.607931287521	674
1	1570	1327.688743736631	675
1	1573	1330.405325032877	676
1	1575	1333.805327144282	677
1	1577	1334.085833664059	678
1	1581	1336.042212342516	679
1	1583	1336.613092355722	680
1	1587	1341.752748628725	681
1	1591	1347.453318590537	682
1	1593	1350.009779310072	683
1	1595	1352.503374957836	684
1	1599	1352.889607546764	685
1	1601	1356.241813833315	686
1	1603	1359.908260853734	687
1	1605	1362.112539211942	688
1	1607	1363.152652869672	689
1	1609	1364.907256562638	690
1	1611	1365.238842552974	691
1	1613	1366.390876759775	692
1	1615	1368.660820639261	693
1	1617	1372.462323460374	694
1	1619	1372.867105201329	695
1	1621	1373.310042720431	696
1	1625	1377.11495162551	697
1	1627	1382.109780219027	698
1	1629	1382.754978315956	699
1	1631	1383.883838098637	700
1	1634	1390.597627418456	701
1	1636	1391.979885907439	702
1	1638	1396.540889473852	703
1	1640	1397.000376158489	704
1	1642	1397.692949296393	705
1	1646	1401.657943901091	706
1	1648	1401.779999878915	707
1	1650	1401.876204290471	708
1	1652	1402.541420243704	709
1	1656	1406.214741536471	710
1	1658	1406.870862322129	711
1	1660	1408.121023634348	712
1	1662	1410.794101947111	713
1	1664	1414.67311233283	714
1	1667	1417.472119368681	715
1	1669	1420.218530385263	716
1	1671	1421.984683061416	717
1	1673	1422.864200812118	718
1	1679	1431.73908825561	719
1	1681	1432.661563103244	720
1	1683	1434.84236539609	721
1	1685	1437.355891901027	722
1	1687	1438.785035853013	723
1	1689	1440.023686810875	724
1	1691	1447.213905864199	725
1	1694	1447.93345734316	726
1	1698	1448.849581342361	727
1	1700	1449.191587336155	728
1	1703	1451.342719320707	729
1	1705	1452.869981726596	730
1	1707	1456.853948864406	731
1	1709	1458.162010069838	732
1	1711	1459.047056265124	733
1	1713	1460.227900224926	734
1	1715	1462.267452124922	735
1	1718	1463.372707528954	736
1	1720	1466.509850642256	737
1	1722	1471.872992114486	738
1	1724	1476.426670583125	739
1	1726	1476.836782146257	740
1	1728	1478.794519817776	741
1	1730	1480.516252174724	742
1	1732	1483.823696149242	743
1	1734	1485.968970740687	744
1	1736	1486.289966732415	745
1	1738	1488.414866748614	746
1	1740	1490.75466917407	747
1	1744	1492.289418193725	748
1	1746	1492.525969816027	749
1	1751	1500.26287776305	750
1	1753	1501.571668764059	751
1	1755	1502.059839915738	752
1	1757	1503.064789425465	753
1	1759	1503.497050612776	754
1	1761	1503.674565204475	755
1	1763	1505.214480393962	756
1	1765	1506.974505133797	757
1	1767	1515.745865002543	758
1	1769	1516.084848512768	759
1	1771	1516.642284908572	760
1	1773	1519.556249587624	761
1	1775	1522.272065469062	762
1	1777	1523.001966493871	763
1	1781	1523.418726482445	764
1	1783	1524.349683814217	765
1	1785	1531.849850012541	766
1	1787	1532.181549298721	767
1	1789	1533.318489532983	768
1	1791	1538.14810900467	769
1	1793	1539.654090435253	770
1	1795	1540.165750710658	771
1	1797	1540.730803906428	772
1	1800	1545.546075086506	773
1	1802	1545.944117295799	774
1	1804	1546.044006744055	775
1	1808	1550.220796065811	776
1	1810	1550.654144195167	777
1	1812	1558.676886348995	778
1	1814	1559.695568058613	779
1	1816	1563.069535860131	780
1	1818	1563.101637794218	781
1	1820	1563.359307244705	782
1	1822	1564.32475087381	783
1	1824	1564.857924013129	784
1	1826	1574.190576003802	785
1	1828	1575.063307820794	786
1	1830	1576.190849308079	787
1	1832	1576.98719485205	788
1	1834	1577.054541366963	789
1	1836	1577.86621633844	790
1	1838	1578.393673697886	791
1	1840	1579.681144245009	792
1	1842	1580.692660546965	793
1	1846	1583.262991860815	794
1	1848	1586.186382836822	795
1	1850	1586.886471276416	796
1	1852	1588.902179903788	797
1	1854	1589.921081146505	798
1	1856	1590.372901962819	799
1	1858	1595.322974298899	800
1	1860	1597.398854579039	801
1	1864	1599.425024458593	802
1	1866	1603.776581345934	803
1	1868	1605.525086817344	804
1	1870	1606.88358934359	805
1	1872	1608.091750146583	806
1	1874	1609.659195831263	807
1	1876	1612.984329300594	808
1	1878	1613.200458448473	809
1	1880	1614.826783720468	810
1	1882	1615.454793168005	811
1	1884	1619.172930979759	812
1	1886	1619.807664395839	813
1	1888	1620.225128661983	814
1	1890	1623.107802862735	815
1	1892	1628.387158236546	816
1	1894	1630.187684331664	817
1	1896	1635.537576955357	818
1	1898	1638.907262029684	819
1	1902	1640.785468065572	820
1	1904	1644.075271516028	821
1	1906	1645.346802929745	822
1	1909	1645.964040692688	823
1	1911	1647.097997462179	824
1	1913	1647.159247283636	825
1	1915	1647.438535946086	826
1	1917	1649.359682651179	827
1	1919	1650.015358094084	828
1	1921	1653.257284644911	829
1	1923	1658.274108963167	830
1	1925	1658.938420984103	831
1	1927	1659.001046624495	832
1	1930	1666.349247765726	833
1	1932	1666.467948587005	834
1	1934	1666.912266401633	835
1	1936	1667.121837169799	836
1	1938	1668.267329910184	837
1	1940	1668.529335561226	838
1	1942	1672.618609314758	839
1	1944	1676.459873281927	840
1	1946	1677.145343403286	841
1	1948	1677.151204917746	842
1	1950	1678.009205000199	843
1	1952	1678.413086650707	844
1	1954	1678.527900788125	845
1	1956	1682.99669553806	846
1	1958	1685.736514441718	847
1	1960	1690.427812283778	848
1	1962	1690.450687118295	849
1	1964	1691.35810363759	850
1	1966	1696.973496656457	851
1	1968	1700.129161130204	852
1	1970	1704.802500814272	853
1	1973	1710.934231165068	854
1	1975	1714.68155587444	855
1	1977	1714.747756908912	856
1	1980	1722.151514986056	857
1	1982	1727.111947074467	858
1	1984	1727.778545754471	859
1	1986	1731.436609560975	860
1	1988	1733.338382482948	861
1	1992	1741.663897702541	862
1	1994	1742.551139191338	863
1	1996	1743.826628879368	864
1	1998	1743.831532080184	865
1	2000	1747.444060686307	866
1	2002	1747.812859057279	867
1	2004	1749.287361940297	868
1	2006	1749.633530948294	869
1	2008	1749.693485686263	870
1	2010	1751.245096158478	871
1	2012	1751.262505617087	872
1	2014	1753.221285774791	873
1	2016	1757.234221169401	874
1	2018	1762.046095611864	875
1	2020	1763.159194240688	876
1	2022	1764.203340071029	877
1	2024	1765.49074382378	878
1	2026	1766.021396135824	879
1	2028	1766.135475761712	880
1	2032	1770.117416462794	881
1	2034	1770.993047197887	882
1	2036	1771.33183027378	883
1	2038	1772.187428563434	884
1	2040	1774.339327702939	885
1	2042	1774.973874049369	886
1	2045	1777.114909727739	887
1	2047	1779.641287059595	888
1	2049	1779.932326488868	889
1	2051	1780.785149165912	890
1	2053	1784.925506725967	891
1	2055	1788.168596832418	892
1	2057	1789.948305940945	893
1	2059	1791.631990611814	894
1	2061	1792.567157013112	895
1	2063	1795.037473419261	896
1	2065	1797.533757309523	897
1	2067	1798.522742032247	898
1	2069	1802.680231415151	899
1	2071	1802.973565968013	900
1	2073	1804.707593718326	901
1	2075	1805.344282138446	902
1	2077	1807.199146970303	903
1	2079	1808.973361317915	904
1	2081	1809.16450963681	905
1	2083	1814.004599537765	906
1	2085	1815.832703623598	907
1	2087	1818.606947340553	908
1	2089	1819.785942392337	909
1	2091	1820.688083939217	910
1	2093	1821.423698264461	911
1	2095	1822.190719071125	912
1	2101	1824.479654065171	913
1	2103	1825.631287956185	914
1	2106	1826.935013272506	915
1	2108	1828.043846676546	916
1	2110	1829.02690018065	917
1	2112	1832.548518704297	918
1	2114	1833.471471116684	919
1	2118	1836.636263192279	920
1	2120	1837.264473210152	921
1	2124	1837.859836334743	922
1	2126	1837.946014339346	923
1	2128	1838.985394604313	924
1	2130	1839.519728629199	925
1	2132	1841.108069187472	926
1	2134	1842.505180845516	927
1	2136	1844.480435271398	928
1	2138	1845.627111875758	929
1	2140	1845.918799026895	930
1	2142	1846.2841309181	931
1	2144	1848.477740709052	932
1	2146	1850.430822851216	933
1	2148	1850.48148429775	934
1	2150	1850.690090257572	935
1	2152	1855.915213817679	936
1	2154	1856.620396538656	937
1	2156	1856.931575895482	938
1	2158	1858.179325825318	939
1	2160	1859.598524386805	940
1	2162	1862.488917157634	941
1	2164	1863.693361254412	942
1	2166	1866.004838692615	943
1	2168	1867.304037903888	944
1	2170	1869.569151706856	945
1	2172	1875.957501971168	946
1	2174	1879.95285257769	947
1	2176	1881.754147507102	948
1	2178	1885.549398668832	949
1	2180	1887.59332746457	950
1	2184	1887.83882571683	951
1	2186	1888.501439325879	952
1	2190	1891.375220975428	953
1	2192	1893.544306081305	954
1	2194	1893.677765136189	955
1	2196	1900.094345926553	956
1	2198	1904.097403809788	957
1	2200	1905.699511069393	958
1	2202	1906.563193784632	959
1	2204	1906.720836687723	960
1	2206	1907.827571655265	961
1	2208	1910.391145749507	962
1	2210	1910.453738888077	963
1	2212	1911.340595239605	964
1	2214	1912.116309193505	965
1	2216	1914.625959086133	966
1	2218	1915.987711003375	967
1	2220	1919.197219410819	968
1	2222	1919.977443779356	969
1	2227	1923.667816560903	970
1	2229	1923.976443198999	971
1	2231	1924.039161909686	972
1	2233	1925.905010951448	973
1	2235	1926.677545336213	974
1	2237	1928.327848504283	975
1	2239	1930.88809990411	976
1	2241	1944.420473634661	977
1	2243	1947.785083657417	978
1	2245	1951.229882493483	979
1	2247	1951.999922168661	980
1	2249	1955.225470050842	981
1	2253	1962.29548596745	982
1	2257	1968.76383152786	983
1	2259	1970.835961624206	984
1	2261	1971.036447025201	985
1	2263	1971.938419047308	986
1	2265	1974.45464398541	987
1	2267	1974.933160449799	988
1	2269	1975.051202355624	989
1	2271	1975.144297709107	990
1	2273	1979.39238044931	991
1	2275	1980.67022131203	992
1	2277	1982.379279072162	993
1	2279	1983.467291663524	994
1	2281	1983.548674902715	995
1	2283	1984.500689863911	996
1	2285	1987.073889728829	997
1	2287	1988.416667578501	998
1	2289	1988.668718321216	999
1	2291	1988.867089903503	1000
1	2293	1989.727571478286	1001
1	2295	1992.765745196188	1002
1	2299	1997.981120013133	1003
1	2301	1998.785080488527	1004
1	2303	2001.399318388063	1005
1	2305	2001.569264882543	1006
1	2307	2001.868466283754	1007
1	2309	2004.785878355912	1008
1	2316	2011.18403128718	1009
1	2318	2012.381356660616	1010
1	2322	2015.008043461539	1011
1	2324	2016.098360210891	1012
1	2326	2017.106702691788	1013
1	2328	2019.306016328654	1014
1	2330	2019.587816284498	1015
1	2332	2022.193246707279	1016
1	2334	2024.292045375212	1017
1	2336	2028.254197280395	1018
1	2338	2029.16176061048	1019
1	2340	2029.631443729394	1020
1	2342	2030.29337816026	1021
1	2344	2030.833593996896	1022
1	2346	2031.999629423915	1023
1	2348	2034.167016297843	1024
1	2350	2038.075692822915	1025
1	2352	2038.878682729893	1026
1	2354	2039.700111362143	1027
1	2356	2039.975878808018	1028
1	2358	2040.115705926099	1029
1	2360	2040.348987686595	1030
1	2362	2040.940923125984	1031
1	2364	2041.512279689401	1032
1	2366	2042.958244006926	1033
1	2368	2043.131386122285	1034
1	2370	2044.311000100741	1035
1	2372	2047.819642403594	1036
1	2374	2048.735630704796	1037
1	2376	2052.596589700533	1038
1	2378	2055.235725957324	1039
1	2380	2055.54286292179	1040
1	2382	2057.922380825953	1041
1	2384	2058.749272495435	1042
1	2386	2059.139963400727	1043
1	2388	2064.210151544563	1044
1	2390	2064.44219313562	1045
1	2394	2065.581480562997	1046
1	2396	2065.984700821403	1047
1	2398	2066.30850483109	1048
1	2400	2069.204796811488	1049
1	2404	2070.010914648276	1050
1	2406	2073.135849228563	1051
1	2408	2075.718172928078	1052
1	2410	2078.123040614053	1053
1	2412	2078.54886025502	1054
1	2418	2084.250414415562	1055
1	2420	2084.335929126303	1056
1	2422	2084.577806317718	1057
1	2424	2086.101747902865	1058
1	2426	2086.606997976244	1059
1	2429	2087.925081580194	1060
1	2431	2088.171028991458	1061
1	2433	2089.220877312681	1062
1	2435	2090.393998273415	1063
1	2437	2093.528149735624	1064
1	2440	2096.96192919689	1065
1	2442	2097.026767226743	1066
1	2444	2097.206935536962	1067
1	2446	2098.532719517781	1068
1	2448	2099.336848156994	1069
1	2450	2100.706297534704	1070
1	2452	2102.351717654464	1071
1	2457	2105.19710630374	1072
1	2459	2109.108919544093	1073
1	2463	2111.308100445077	1074
1	2465	2112.350455824456	1075
1	2467	2112.505850532082	1076
1	2469	2114.441055083568	1077
1	2471	2115.673277449969	1078
1	2473	2116.16162834467	1079
1	2475	2117.156412238996	1080
1	2477	2117.346004439684	1081
1	2479	2117.626331268516	1082
1	2481	2120.04961705168	1083
1	2483	2121.955128936786	1084
1	2487	2127.035170727931	1085
1	2489	2128.675668897789	1086
1	2491	2130.401964694018	1087
1	2493	2135.453969720009	1088
1	2495	2136.750709897921	1089
1	2497	2137.456863376509	1090
1	2499	2141.738776071293	1091
1	2501	2143.559696829265	1092
1	2505	2145.131749659391	1093
1	2507	2145.251349441258	1094
1	2509	2149.380443267456	1095
1	2513	2150.726133184806	1096
1	2515	2150.946749714704	1097
1	2517	2151.051714255824	1098
1	2519	2152.868865700578	1099
1	2521	2156.026758928899	1100
1	2523	2156.260946457756	1101
1	2525	2156.300735677479	1102
1	2527	2158.479822251182	1103
1	2529	2161.296080348746	1104
1	2533	2164.89949609387	1105
1	2536	2170.320155471879	1106
1	2538	2171.08248511384	1107
1	2540	2171.427441981577	1108
1	2542	2172.357064420646	1109
1	2544	2173.462890487801	1110
1	2546	2173.481112609097	1111
1	2548	2190.299561119905	1112
1	2550	2191.146356708795	1113
1	2553	2197.304692192398	1114
1	2555	2206.941432361502	1115
1	2557	2207.362040791553	1116
1	2559	2208.221229654145	1117
1	2561	2209.959688694841	1118
1	2565	2210.883321802482	1119
1	2567	2212.514489771065	1120
1	2569	2212.665256399506	1121
1	2571	2212.66670329978	1122
1	2575	2217.230517012289	1123
1	2577	2217.79330762724	1124
1	2579	2219.853732772571	1125
1	2582	2221.624367513668	1126
1	2584	2221.719400316537	1127
1	2586	2221.759160885267	1128
1	2588	2223.227021545309	1129
1	2590	2227.090476956795	1130
1	2593	2227.572728296767	1131
1	2595	2229.365409799159	1132
1	2597	2230.274093425432	1133
1	2599	2231.890552057111	1134
1	2602	2238.595835752246	1135
1	2604	2240.577237963176	1136
1	2606	2245.309324597776	1137
1	2608	2245.382498695219	1138
1	2610	2247.960139547774	1139
1	2612	2249.934180632457	1140
1	2615	2251.91561794296	1141
1	2617	2254.416702207703	1142
1	2619	2256.384015820389	1143
1	2621	2259.343229211346	1144
1	2623	2261.797605294696	1145
1	2625	2262.619837982552	1146
1	2627	2263.637749434931	1147
1	2630	2264.697976220414	1148
1	2632	2264.913890883015	1149
1	2634	2265.657060710072	1150
1	2636	2274.145991582904	1151
1	2638	2277.124717345683	1152
1	2642	2279.13442529096	1153
1	2644	2279.187921070029	1154
1	2646	2281.962987761873	1155
1	2648	2283.20803541518	1156
1	2650	2286.66009315823	1157
1	2652	2287.486065898922	1158
1	2654	2289.95905650516	1159
1	2656	2293.203112255646	1160
1	2658	2293.388176073496	1161
1	2660	2294.84087594011	1162
1	2662	2300.319431961538	1163
1	2664	2303.283731085582	1164
1	2666	2303.323472729947	1165
1	2668	2304.081101441812	1166
1	2670	2304.299376410944	1167
1	2672	2304.401450557679	1168
1	2674	2304.455368841743	1169
1	2676	2307.075621447182	1170
1	2678	2309.377025485624	1171
1	2680	2309.541268388224	1172
1	2686	2318.106757211325	1173
1	2688	2319.409064712079	1174
1	2690	2319.645054273358	1175
1	2694	2335.181860795147	1176
1	2696	2336.056897394111	1177
1	2698	2337.677166690942	1178
1	2700	2344.335305849857	1179
1	2702	2345.535600551945	1180
1	2704	2347.378861533994	1181
1	2706	2349.677980809969	1182
1	2708	2351.111035993102	1183
1	2710	2352.396921134505	1184
1	2712	2352.501184187855	1185
1	2715	2353.809625359001	1186
1	2717	2354.001091082539	1187
1	2720	2358.717614485672	1188
1	2722	2361.807433624635	1189
1	2724	2361.837764925811	1190
1	2726	2362.208627489922	1191
1	2728	2368.144102411665	1192
1	2730	2370.793980650097	1193
1	2732	2371.492652887266	1194
1	2735	2372.042475055938	1195
1	2737	2374.544176942327	1196
1	2739	2375.504427412781	1197
1	2741	2380.958778609367	1198
1	2743	2382.809477484839	1199
1	2745	2384.653515595077	1200
1	2747	2385.778584900046	1201
1	2749	2386.080207054687	1202
1	2751	2388.266646093067	1203
1	2753	2395.325618248853	1204
1	2757	2398.463777871052	1205
1	2759	2399.238335137934	1206
1	2763	2402.447714582416	1207
1	2765	2404.015237193505	1208
1	2767	2405.981192524327	1209
1	2769	2409.502931222892	1210
1	2771	2410.006842313362	1211
1	2773	2410.613492686164	1212
1	2775	2410.825654718483	1213
1	2777	2413.145599426608	1214
1	2779	2414.30510173308	1215
1	2783	2417.61212606212	1216
1	2785	2419.521381440849	1217
1	2790	2421.323953955635	1218
1	2792	2426.153828294506	1219
1	2794	2428.644708836044	1220
1	2796	2429.169483659139	1221
1	2798	2431.750394571906	1222
1	2800	2433.882488349685	1223
1	2802	2434.025941533768	1224
1	2804	2434.32016941105	1225
1	2806	2434.719209978584	1226
1	2808	2434.980181590628	1227
1	2810	2436.79484750099	1228
1	2812	2436.847814852325	1229
1	2814	2437.408396177768	1230
1	2816	2437.43027896135	1231
1	2818	2441.225479629824	1232
1	2820	2442.619711501606	1233
1	2822	2448.456073820078	1234
1	2824	2449.057427201295	1235
1	2826	2449.113910695785	1236
1	2828	2449.687426825716	1237
1	2830	2450.433287548386	1238
1	2832	2451.29620852233	1239
1	2834	2454.591746418533	1240
1	2837	2459.658487636981	1241
1	2839	2463.001473102531	1242
1	2841	2463.326441201533	1243
1	2843	2464.387599904512	1244
1	2845	2464.869007416157	1245
1	2847	2465.262167288899	1246
1	2849	2466.843944182127	1247
1	2851	2469.318669335267	1248
1	2853	2471.294088453707	1249
1	2855	2472.036979025209	1250
1	2857	2475.481376595608	1251
1	2859	2477.212651347907	1252
1	2861	2478.361686330302	1253
1	2863	2479.414914542993	1254
1	2865	2479.838101871909	1255
1	2867	2481.14417030419	1256
1	2869	2481.349760816943	1257
1	2871	2481.981933013205	1258
1	2873	2485.867915663778	1259
1	2876	2487.561934424039	1260
1	2878	2488.621432231437	1261
1	2880	2492.054415943457	1262
1	2882	2492.078836216348	1263
1	2884	2492.933022930807	1264
1	2886	2493.106764677942	1265
1	2888	2493.220853939927	1266
1	2890	2493.321938316877	1267
1	2892	2495.775169905555	1268
1	2894	2496.332018017206	1269
1	2896	2497.77000138524	1270
1	2898	2498.387371102467	1271
1	2900	2498.624601337695	1272
1	2902	2499.838249075046	1273
2	439	353.492191333855	7
2	446	361.358890033519	7
2	454	368.78043457168	8
2	467	380.352000414881	8
2	476	388.861516406107	8
2	482	391.757141693541	9
2	498	400.427176001047	10
2	520	418.490878757168	11
2	524	421.634878531556	12
2	606	498.166435993675	9
2	694	570.157955171208	8
2	696	572.013697630046	9
2	746	619.990869827664	6
2	755	626.951996879465	6
2	773	643.369658326367	7
2	779	648.833252517114	8
2	784	656.358877459783	8
2	803	670.89757570658	8
2	854	714.718457972752	6
2	856	715.659682895607	7
2	881	738.112029162346	3
2	885	744.260440483758	4
2	893	754.18205261004	3
2	918	776.438308007573	3
2	938	790.590701076314	4
2	971	821.734270542422	2
2	995	836.585368277	3
2	1009	845.649693670463	4
2	1067	898.271736045084	1
2	1075	900.679632703256	2
2	1089	917.623000115617	3
2	1101	921.272436396995	2
2	1121	943.345188572361	3
2	1123	943.713555040912	4
2	1125	944.787028829265	5
2	1155	975.864205792521	4
2	1163	983.786107803526	3
2	1171	990.276985011205	4
2	1175	991.438078315617	5
2	1220	1031.498604334519	5
2	1230	1035.463420870607	6
2	1251	1050.509505621411	6
2	1307	1102.565256430476	5
2	1329	1126.178327443082	6
2	1396	1181.795656424566	4
2	1398	1182.879317771439	5
2	1432	1207.921071308651	4
2	1460	1237.592404539237	5
2	1497	1263.979150557185	5
2	1511	1268.471674512885	6
2	1532	1280.860231261121	6
2	1534	1281.213159268324	7
2	1579	1334.781804229055	7
2	1589	1342.435565038599	6
2	1597	1352.867238912116	7
2	1623	1375.309585504405	8
2	1644	1398.299642162285	8
2	1654	1404.77742651609	9
2	1675	1425.76906201151	9
2	1677	1430.384050855711	10
2	1696	1448.648219502481	10
2	1742	1492.015021764522	9
2	1749	1497.036609395997	9
2	1779	1523.329877500482	10
2	1806	1546.266431360994	10
2	1862	1598.33928803856	9
2	1900	1640.4232040738	10
2	1990	1735.467369980249	7
2	2030	1767.330518862194	8
2	2097	1822.296353712127	8
2	2116	1833.60911008917	6
2	2122	1837.832209965198	7
2	2182	1887.823250840407	8
2	2188	1891.218272816414	9
2	2224	1921.668223527153	10
2	2255	1967.396434143435	8
2	2297	1993.270757791483	9
2	2311	2005.425083293427	10
2	2314	2008.092390160378	10
2	2320	2014.950917893618	11
2	2392	2064.563262874183	12
2	2402	2069.515851758278	13
2	2415	2079.326869143163	13
2	2455	2103.346587578668	10
2	2461	2110.335738409846	11
2	2485	2125.044740041305	12
2	2503	2144.225125355446	13
2	2511	2150.527057442777	14
2	2531	2163.143513135241	15
2	2563	2210.697394252604	14
2	2573	2216.593915740708	15
2	2640	2277.88009486364	11
2	2683	2314.406601838302	11
2	2755	2396.152750829857	6
2	2761	2400.088119842539	7
2	2781	2414.679708258506	8
2	2788	2419.832186906069	8
3	439	353.492191333855	6
3	444	361.086388975205	6
3	446	361.358890033519	6
3	454	368.78043457168	7
3	461	379.077106809272	7
3	467	380.352000414881	7
3	470	383.366697253666	7
3	476	388.861516406107	7
3	482	391.757141693541	8
3	498	400.427176001047	9
3	520	418.490878757168	10
3	524	421.634878531556	11
3	525	427.111676343686	11
3	548	439.386146686291	10
3	561	458.898069331925	9
3	584	481.187636802827	8
3	606	498.166435993675	8
3	635	520.261169674907	8
3	650	536.986966806661	7
3	694	570.157955171208	7
3	696	572.013697630046	8
3	705	582.486559039266	8
3	712	587.275966860326	7
3	715	591.753670402265	6
3	722	597.907020789032	5
3	746	619.990869827664	5
3	753	624.240695731728	5
3	755	626.951996879465	5
3	773	643.369658326367	6
3	779	648.833252517114	7
3	780	650.254861707724	7
3	784	656.358877459783	7
3	799	669.523205393517	7
3	803	670.89757570658	7
3	812	676.709638189344	7
3	815	679.852193468459	6
3	826	693.053522168841	5
3	854	714.718457972752	5
3	856	715.659682895607	6
3	857	716.666482153277	6
3	858	717.889038266192	5
3	867	722.271746408748	4
3	872	732.044102039952	3
3	875	737.380697479042	2
3	881	738.112029162346	2
3	885	744.260440483758	3
3	886	746.020602526974	3
3	889	750.729326954683	2
3	893	754.18205261004	2
3	910	765.467504035879	2
3	918	776.438308007573	2
3	938	790.590701076314	3
3	945	798.300437627455	3
3	946	799.854632480576	2
3	959	815.590344532262	1
3	971	821.734270542422	1
3	995	836.585368277	2
3	1009	845.649693670463	3
3	1016	850.715899459087	3
3	1033	864.095098938453	2
3	1060	896.709348819738	1
3	1065	897.491650551158	0
3	1067	898.271736045084	0
3	1075	900.679632703256	1
3	1089	917.623000115617	2
3	1094	919.068231984529	2
3	1099	920.582016891452	1
3	1101	921.272436396995	1
3	1121	943.345188572361	2
3	1123	943.713555040912	3
3	1125	944.787028829265	4
3	1128	951.886717769614	4
3	1135	957.72842178277	3
3	1155	975.864205792521	3
3	1158	979.556574016292	3
3	1159	980.021652232692	2
3	1163	983.786107803526	2
3	1171	990.276985011205	3
3	1175	991.438078315617	4
3	1188	1005.503221116203	4
3	1220	1031.498604334519	4
3	1230	1035.463420870607	5
3	1231	1035.870567361719	5
3	1251	1050.509505621411	5
3	1268	1075.51344697347	5
3	1305	1102.127886612603	4
3	1307	1102.565256430476	4
3	1329	1126.178327443082	5
3	1360	1153.035629938797	5
3	1387	1168.804440907446	4
3	1394	1179.573702278924	3
3	1396	1181.795656424566	3
3	1398	1182.879317771439	4
3	1405	1192.38073368581	4
3	1424	1201.581344428385	3
3	1432	1207.921071308651	3
3	1460	1237.592404539237	4
3	1475	1249.19288785474	4
3	1497	1263.979150557185	4
3	1511	1268.471674512885	5
3	1516	1272.333991897515	5
3	1532	1280.860231261121	5
3	1534	1281.213159268324	6
3	1571	1327.757427336937	6
3	1579	1334.781804229055	6
3	1584	1339.393704792686	6
3	1585	1340.085976717294	5
3	1589	1342.435565038599	5
3	1597	1352.867238912116	6
3	1623	1375.309585504405	7
3	1632	1389.922094494892	7
3	1644	1398.299642162285	7
3	1654	1404.77742651609	8
3	1665	1416.355908130621	8
3	1675	1425.76906201151	8
3	1677	1430.384050855711	9
3	1692	1447.44050979092	9
3	1696	1448.648219502481	9
3	1701	1449.514261941091	9
3	1716	1463.263249342858	8
3	1742	1492.015021764522	8
3	1747	1492.894498036467	8
3	1749	1497.036609395997	8
3	1779	1523.329877500482	9
3	1798	1545.316096151206	9
3	1806	1546.266431360994	9
3	1843	1580.770718115054	9
3	1844	1581.252918694891	8
3	1862	1598.33928803856	8
3	1900	1640.4232040738	9
3	1907	1645.943393113101	9
3	1928	1661.235945351574	8
3	1971	1710.647543778797	7
3	1978	1715.279104441125	6
3	1990	1735.467369980249	6
3	2030	1767.330518862194	7
3	2043	1776.390026806591	7
3	2097	1822.296353712127	7
3	2098	1822.657823927654	7
3	2099	1822.82944384281	6
3	2104	1826.152185174129	5
3	2116	1833.60911008917	5
3	2122	1837.832209965198	6
3	2182	1887.823250840407	7
3	2188	1891.218272816414	8
3	2224	1921.668223527153	9
3	2225	1922.482892357728	9
3	2250	1956.44214406294	8
3	2251	1959.238597756248	7
3	2255	1967.396434143435	7
3	2297	1993.270757791483	8
3	2311	2005.425083293427	9
3	2312	2006.26993658911	9
3	2314	2008.092390160378	9
3	2320	2014.950917893618	10
3	2392	2064.563262874183	11
3	2402	2069.515851758278	12
3	2413	2079.326649692823	12
3	2415	2079.326869143163	12
3	2416	2084.117329905552	12
3	2427	2087.140551842805	11
3	2438	2095.056756076545	10
3	2453	2102.361652119134	9
3	2455	2103.346587578668	9
3	2461	2110.335738409846	10
3	2485	2125.044740041305	11
3	2503	2144.225125355446	12
3	2511	2150.527057442777	13
3	2531	2163.143513135241	14
3	2534	2165.953600884634	14
3	2551	2194.359561798325	13
3	2563	2210.697394252604	13
3	2573	2216.593915740708	14
3	2580	2220.572791475145	14
3	2591	2227.432385740035	13
3	2600	2236.958216792806	12
3	2613	2250.972633907431	11
3	2628	2264.37783102236	10
3	2640	2277.88009486364	10
3	2681	2312.967069989331	10
3	2683	2314.406601838302	10
3	2684	2317.4577606133	10
3	2691	2319.868300822583	9
3	2692	2325.334922822563	8
3	2713	2352.975401683907	7
3	2718	2358.466333059152	6
3	2733	2371.862120075333	5
3	2755	2396.152750829857	5
3	2761	2400.088119842539	6
3	2781	2414.679708258506	7
3	2786	2419.724353099269	7
3	2788	2419.832186906069	7
3	2835	2457.703430346196	7
3	2874	2486.900443891832	6
4	444	361.086388975205	11
4	461	379.077106809272	12
4	470	383.366697253666	13
4	525	427.111676343686	14
4	548	439.386146686291	15
4	561	458.898069331925	16
4	584	481.187636802827	17
4	635	520.261169674907	18
4	650	536.986966806661	19
4	705	582.486559039266	20
4	712	587.275966860326	21
4	715	591.753670402265	22
4	722	597.907020789032	23
4	753	624.240695731728	24
4	780	650.254861707724	25
4	799	669.523205393517	26
4	812	676.709638189344	27
4	815	679.852193468459	28
4	826	693.053522168841	29
4	857	716.666482153277	30
4	858	717.889038266192	31
4	867	722.271746408748	32
4	872	732.044102039952	33
4	875	737.380697479042	34
4	886	746.020602526974	35
4	889	750.729326954683	36
4	910	765.467504035879	37
4	945	798.300437627455	38
4	946	799.854632480576	39
4	959	815.590344532262	40
4	1016	850.715899459087	41
4	1033	864.095098938453	42
4	1060	896.709348819738	43
4	1065	897.491650551158	44
4	1094	919.068231984529	45
4	1099	920.582016891452	46
4	1128	951.886717769614	47
4	1135	957.72842178277	48
4	1158	979.556574016292	49
4	1159	980.021652232692	50
4	1188	1005.503221116203	51
4	1231	1035.870567361719	52
4	1268	1075.51344697347	53
4	1305	1102.127886612603	54
4	1360	1153.035629938797	55
4	1387	1168.804440907446	56
4	1394	1179.573702278924	57
4	1405	1192.38073368581	58
4	1424	1201.581344428385	59
4	1475	1249.19288785474	60
4	1516	1272.333991897515	61
4	1571	1327.757427336937	62
4	1584	1339.393704792686	63
4	1585	1340.085976717294	64
4	1632	1389.922094494892	65
4	1665	1416.355908130621	66
4	1692	1447.44050979092	67
4	1701	1449.514261941091	68
4	1716	1463.263249342858	69
4	1747	1492.894498036467	70
4	1798	1545.316096151206	71
4	1843	1580.770718115054	72
4	1844	1581.252918694891	73
4	1907	1645.943393113101	74
4	1928	1661.235945351574	75
4	1971	1710.647543778797	76
4	1978	1715.279104441125	77
4	2043	1776.390026806591	78
4	2098	1822.657823927654	79
4	2099	1822.82944384281	80
4	2104	1826.152185174129	81
4	2225	1922.482892357728	82
4	2250	1956.44214406294	83
4	2251	1959.238597756248	84
4	2312	2006.26993658911	85
4	2413	2079.326649692823	86
4	2416	2084.117329905552	87
4	2427	2087.140551842805	88
4	2438	2095.056756076545	89
4	2453	2102.361652119134	90
4	2534	2165.953600884634	91
4	2551	2194.359561798325	92
4	2580	2220.572791475145	93
4	2591	2227.432385740035	94
4	2600	2236.958216792806	95
4	2613	2250.972633907431	96
4	2628	2264.37783102236	97
4	2681	2312.967069989331	98
4	2684	2317.4577606133	99
4	2691	2319.868300822583	100
4	2692	2325.334922822563	101
4	2713	2352.975401683907	102
4	2718	2358.466333059152	103
4	2733	2371.862120075333	104
4	2786	2419.724353099269	105
4	2835	2457.703430346196	106
4	2874	2486.900443891832	107
5	444	361.086388975205	176.38645060171
5	461	379.077106809272	132.48549780936
5	470	383.366697253666	126.28345225178
5	525	427.111676343686	137.36584909847
5	548	439.386146686291	120.08142250452
5	561	458.898069331925	133.99297912595
5	584	481.187636802827	127.69544546897
5	635	520.261169674907	158.90227964139
5	650	536.986966806661	168.20653223498
5	705	582.486559039266	202.13455862438
5	712	587.275966860326	198.41445045422
5	715	591.753670402265	199.99652870872
5	722	597.907020789032	197.47984478799
5	753	624.240695731728	205.74981697456
5	780	650.254861707724	228.61998317617
5	799	669.523205393517	171.35676939984
5	812	676.709638189344	106.55168301814
5	815	679.852193468459	107.83849583841
5	826	693.053522168841	73.062652341177
5	857	716.666482153277	89.714485273812
5	858	717.889038266192	74.519379939825
5	867	722.271746408748	73.438493891634
5	872	732.044102039952	75.685224580169
5	875	737.380697479042	66.483121772462
5	886	746.020602526974	31.302144554222
5	889	750.729326954683	35.069644059076
5	910	765.467504035879	27.355474873533
5	945	798.300437627455	54.039997143697
5	946	799.854632480576	45.672579870536
5	959	815.590344532262	39.152036524689
5	1016	850.715899459087	60.125198382773
5	1033	864.095098938453	42.360828396031
5	1060	896.709348819738	60.123980542738
5	1065	897.491650551158	51.841956880695
5	1094	919.068231984529	20.796495939445
5	1099	920.582016891452	19.902384188196
5	1128	951.886717769614	34.263717653997
5	1135	957.72842178277	36.455985385775
5	1158	979.556574016292	36.211385443931
5	1159	980.021652232692	36.30809719178
5	1188	1005.503221116203	60.716192286938
5	1231	1035.870567361719	60.006361569198
5	1268	1075.51344697347	91.727339169944
5	1305	1102.127886612603	111.8509016014
5	1360	1153.035629938797	161.59755162318
5	1387	1168.804440907446	137.30583657293
5	1394	1179.573702278924	144.11028140832
5	1405	1192.38073368581	141.8712280644
5	1424	1201.581344428385	99.016087997909
5	1475	1249.19288785474	123.01456041166
5	1516	1272.333991897515	90.538335472949
5	1571	1327.757427336937	144.8781095655
5	1584	1339.393704792686	131.47263348403
5	1585	1340.085976717294	102.49357217806
5	1632	1389.922094494892	125.94294393771
5	1665	1416.355908130621	147.88423361774
5	1692	1447.44050979092	166.5802785298
5	1701	1449.514261941091	168.30110267277
5	1716	1463.263249342858	128.4814451138
5	1747	1492.894498036467	150.45893299787
5	1798	1545.316096151206	192.44885723909
5	1843	1580.770718115054	205.46113261065
5	1844	1581.252918694891	182.95327653261
5	1907	1645.943393113101	241.16596659701
5	1928	1661.235945351574	235.46688334006
5	1971	1710.647543778797	280.26349292309
5	1978	1715.279104441125	266.63088493864
5	2043	1776.390026806591	284.37500504207
5	2098	1822.657823927654	325.62121453166
5	2099	1822.82944384281	299.49956634233
5	2104	1826.152185174129	279.88575381314
5	2225	1922.482892357728	324.14360431917
5	2250	1956.44214406294	316.01893998914
5	2251	1959.238597756248	223.771227776
5	2312	2006.26993658911	238.93941772692
5	2413	2079.326649692823	257.0302959807
5	2416	2084.117329905552	250.50821981638
5	2427	2087.140551842805	249.30834187761
5	2438	2095.056756076545	207.23350523614
5	2453	2102.361652119134	211.14337930272
5	2534	2165.953600884634	244.28537735748
5	2551	2194.359561798325	226.96312765489
5	2580	2220.572791475145	227.30203368366
5	2591	2227.432385740035	222.00730244661
5	2600	2236.958216792806	228.86582663243
5	2613	2250.972633907431	236.02171601381
5	2628	2264.37783102236	199.81456814818
5	2681	2312.967069989331	243.45121823105
5	2684	2317.4577606133	238.13089147014
5	2691	2319.868300822583	216.52171324392
5	2692	2325.334922822563	214.99918441272
5	2713	2352.975401683907	227.9306616426
5	2718	2358.466333059152	214.24120770371
5	2733	2371.862120075333	221.33506263256
5	2786	2419.724353099269	256.58083996403
5	2835	2457.703430346196	247.00603609359
5	2874	2486.900443891832	270.30652815112
6	444	361.086388975205	114.49477997529
6	461	379.077106809272	121.99386180739
6	470	383.366697253666	93.620870008454
6	525	427.111676343686	107.80695216192
6	548	439.386146686291	114.48105648032
6	561	458.898069331925	105.40587799807
6	584	481.187636802827	119.82874676931
6	635	520.261169674907	151.48073510323
6	650	536.986966806661	156.63496639178
6	705	582.486559039266	193.62504263316
6	712	587.275966860326	195.51882516679
6	715	591.753670402265	191.32649440122
6	722	597.907020789032	179.41614203186
6	753	624.240695731728	202.60581720017
6	780	650.254861707724	152.08842571405
6	799	669.523205393517	99.365250222309
6	812	676.709638189344	104.6959405593
6	815	679.852193468459	59.861323640795
6	826	693.053522168841	66.101525289376
6	857	716.666482153277	73.29682382691
6	858	717.889038266192	69.055785749078
6	867	722.271746408748	65.912868948965
6	872	732.044102039952	61.146526333372
6	875	737.380697479042	22.66223950629
6	886	746.020602526974	30.360919631367
6	889	750.729326954683	12.617297792337
6	910	765.467504035879	21.207063552121
6	945	798.300437627455	44.118385017415
6	946	799.854632480576	23.416324473003
6	959	815.590344532262	24.999643455948
6	1016	850.715899459087	28.981628916665
6	1033	864.095098938453	27.509730661453
6	1060	896.709348819738	51.059655149275
6	1067	898.271736045084	0
6	1094	919.068231984529	18.388599281273
6	1099	920.582016891452	2.959016775835
6	1128	951.886717769614	30.614281372619
6	1135	957.72842178277	14.383233210409
6	1158	979.556574016292	35.84301897538
6	1159	980.021652232692	35.234623403427
6	1188	1005.503221116203	29.639015323682
6	1231	1035.870567361719	52.084459558193
6	1268	1075.51344697347	85.236461962265
6	1305	1102.127886612603	110.68980829699
6	1360	1153.035629938797	121.53702560428
6	1387	1168.804440907446	133.34102003684
6	1394	1179.573702278924	129.06419665751
6	1405	1192.38073368581	89.815477255334
6	1424	1201.581344428385	75.403016985303
6	1475	1249.19288785474	67.397231430174
6	1516	1272.333991897515	89.454674126076
6	1571	1327.757427336937	119.83635602829
6	1584	1339.393704792686	101.80130025345
6	1585	1340.085976717294	76.106826160109
6	1632	1389.922094494892	121.45041998201
6	1665	1416.355908130621	135.4956768695
6	1692	1447.44050979092	166.2273505226
6	1701	1449.514261941091	114.73245771204
6	1716	1463.263249342858	120.82768430426
6	1747	1492.894498036467	140.02725912435
6	1798	1545.316096151206	170.0065106468
6	1843	1580.770718115054	182.47107595277
6	1844	1581.252918694891	176.4754921788
6	1907	1645.943393113101	220.17433110159
6	1928	1661.235945351574	230.85189449586
6	1971	1710.647543778797	261.99932427632
6	1978	1715.279104441125	223.2640826766
6	2043	1776.390026806591	279.35341741059
6	2098	1822.657823927654	299.32794642717
6	2099	1822.82944384281	276.56301248182
6	2104	1826.152185174129	227.81289713557
6	2225	1922.482892357728	282.05968828393
6	2250	1956.44214406294	220.97477408269
6	2251	1959.238597756248	191.90807889405
6	2312	2006.26993658911	183.97358287698
6	2413	2079.326649692823	245.71753960365
6	2416	2084.117329905552	246.28511994035
6	2427	2087.140551842805	199.3173010024
6	2438	2095.056756076545	203.83848326013
6	2453	2102.361652119134	180.69342859198
6	2534	2165.953600884634	198.5571667412
6	2551	2194.359561798325	201.08880400684
6	2580	2220.572791475145	215.14770818172
6	2591	2227.432385740035	219.33999557966
6	2600	2236.958216792806	222.00729889919
6	2613	2250.972633907431	186.40937103325
6	2628	2264.37783102236	194.86197926408
6	2681	2312.967069989331	233.64020084617
6	2684	2317.4577606133	214.11117303463
6	2691	2319.868300822583	209.53256241274
6	2692	2325.334922822563	200.29018278126
6	2713	2352.975401683907	208.75027632846
6	2718	2358.466333059152	207.93927561637
6	2733	2371.862120075333	208.71860694009
6	2786	2419.724353099269	209.02695884666
6	2835	2457.703430346196	241.10951460549
6	2874	2486.900443891832	209.02034902819
7	1065	897.491650551158	884.16360049638
8	1067	898.271736045084	2
9	2903	2500	0.0028
10	2903	2500	0.0428

