version 2
run factors_calibration_bosses-265-20230303-16:36:53-8978
attr configname factors_calibration_bosses
attr datetime 20230303-16:36:53
attr experiment factors_calibration_bosses
attr inifile omnetpp.ini
attr iterationvars $0=25
attr iterationvarsf 25-
attr measurement $0=25
attr network Network
attr processid 8978
attr repetition 25
attr replication #25
attr resultdir results
attr runnumber 265
attr seedset 25
param *.minion.arrival_mean 2
param *.minion.service_mean 1
param *.boss.arrival_mean 20
param *.boss.service_mean 25
param *.player.recover_rate_x 100
param **.minion.arrival_distribution 0
param **.minion.service_distribution 0
param **.boss.arrival_distribution 0
param **.boss.service_distribution 0

vector 0 Network.player minion_jobs_number_stat:vector ETV
attr source signal_minion_jobs_number
vector 1 Network.player minion_jobs_queue_number_stat:vector ETV
attr source signal_minion_jobs_queue_number
vector 2 Network.player boss_defeated_stat:vector ETV
attr source signal_boss_defeated
vector 3 Network.player boss_jobs_queue_number_stat:vector ETV
attr source signal_boss_jobs_queue_number
vector 4 Network.player boss_response_time_stat:vector ETV
attr source signal_boss_response_time
vector 5 Network.player boss_waiting_time_stat:vector ETV
attr source signal_boss_waiting_time
vector 6 Network.player boss_jobs_number_stat:vector ETV
attr source signal_boss_jobs_number
vector 7 Network.player minion_throughput:vector ETV
attr source signal_minion_throughput
vector 8 Network.player boss_throughput:vector ETV
attr source signal_boss_throughput
0	473	350.142549661861	162
0	475	351.061590894461	163
0	477	353.111020891696	164
0	479	354.0059352795	165
0	481	354.452531419881	166
0	484	358.693366615062	167
0	486	360.837062812062	168
0	488	361.478967103779	169
0	490	364.491730145092	170
0	492	365.000434101238	171
0	494	368.025041964484	172
0	496	371.388770808912	173
0	498	373.273671434147	174
0	500	373.39359771025	175
0	502	374.132829617057	176
0	504	376.752633050417	177
0	506	379.145534802755	178
0	508	379.211984754749	179
0	510	383.138764915698	180
0	512	384.971282534112	181
0	514	386.934668510166	182
0	516	386.996702916293	183
0	518	395.077305212483	184
0	520	399.003894373522	185
0	522	406.505414640029	186
0	526	407.664264368695	187
0	528	408.028973398842	188
0	531	409.672956710048	189
0	533	409.71985865438	190
0	535	413.120830921563	191
0	537	413.471311228241	192
0	539	413.657749815206	193
0	542	418.798595915088	194
0	544	421.216484374786	195
0	546	427.355235595255	196
0	548	428.329363051826	197
0	550	428.803286267246	198
0	552	428.838438482789	199
0	554	429.732654771035	200
0	556	429.837277919578	201
0	559	431.431518625821	202
0	561	432.573631674039	203
0	563	433.208075484243	204
0	566	440.739066761562	205
0	568	441.973668517416	206
0	570	442.170622176446	207
0	572	444.55314055342	208
0	574	446.156920729012	209
0	576	447.544639164542	210
0	578	449.605256057224	211
0	582	452.123318146247	212
0	586	453.283864756585	213
0	588	454.776774734869	214
0	592	457.887373440334	215
0	594	457.890173437485	216
0	596	460.328058968666	217
0	598	461.33212205498	218
0	602	463.881330107077	219
0	605	465.236535234348	220
0	607	466.609977906925	221
0	609	467.641253373327	222
0	611	470.286732850792	223
0	613	471.161568142072	224
0	617	475.312985279244	225
0	619	476.701738426207	226
0	622	478.34324237755	227
0	624	479.521453313166	228
0	626	481.802915305452	229
0	628	481.992488070027	230
0	630	482.91158374843	231
0	632	483.550790553711	232
0	634	485.339500696058	233
0	639	491.085719497559	234
0	641	492.389970864988	235
0	643	492.443777493559	236
0	645	493.640966924321	237
0	647	493.722608188837	238
0	649	494.288780942981	239
0	651	494.954531372854	240
0	653	498.044613708293	241
0	655	499.790808840244	242
0	657	500.952375326315	243
0	659	510.349755631336	244
0	661	512.758515030351	245
0	667	522.582512775246	246
0	669	526.023955797798	247
0	673	535.981465391105	248
0	675	536.911053667842	249
0	677	537.14422990464	250
0	679	543.239297612534	251
0	681	545.423453642663	252
0	683	552.836304436616	253
0	685	554.320923974828	254
0	687	555.434430671177	255
0	689	555.814694404072	256
0	691	557.192737017418	257
0	694	562.920750673222	258
0	696	565.118885370938	259
0	698	565.672660034316	260
0	700	566.204807167568	261
0	704	579.889245061451	262
0	706	581.486354237371	263
0	708	583.234224366251	264
0	713	592.266967684906	265
0	715	592.671883158586	266
0	717	592.784487318638	267
0	719	593.762763743038	268
0	721	595.682242020123	269
0	723	596.102878151413	270
0	725	596.341190940053	271
0	727	597.399070575909	272
0	729	598.64067899284	273
0	731	600.446836108912	274
0	733	603.10190888999	275
0	737	605.623602659764	276
0	739	606.442796528835	277
0	741	607.77733236282	278
0	745	609.357246959627	279
0	747	610.098185735254	280
0	755	616.195655937687	281
0	757	617.918510094413	282
0	759	618.160935783328	283
0	761	619.326681427709	284
0	763	627.400790698711	285
0	765	628.29235922257	286
0	767	631.005013973458	287
0	769	631.780260207906	288
0	771	635.54897633354	289
0	773	636.015887498169	290
0	776	638.651368636184	291
0	778	639.851624704589	292
0	780	640.459208460611	293
0	782	641.813137731346	294
0	784	647.747396197629	295
0	788	652.334177580287	296
0	790	652.9642148092	297
0	794	655.578149709493	298
0	796	662.758329017962	299
0	798	665.698461739135	300
0	800	667.960634374901	301
0	802	668.902047703406	302
0	804	672.221401766526	303
0	806	673.063796810577	304
0	808	674.234425507802	305
0	810	676.363051369295	306
0	812	676.594414178982	307
0	814	679.077334285764	308
0	816	686.116783644076	309
0	818	686.357816732528	310
0	822	687.341431440567	311
0	824	687.626930226165	312
0	826	688.810058191576	313
0	828	690.027813865296	314
0	830	690.45211002139	315
0	832	690.800188858352	316
0	835	695.235947443474	317
0	837	701.757526784346	318
0	841	703.043300464511	319
0	843	706.678880142332	320
0	845	707.156358678455	321
0	847	708.624966656938	322
0	849	710.503825030224	323
0	851	710.9963225429	324
0	855	712.454714268745	325
0	859	712.744577889952	326
0	861	713.776123506177	327
0	866	721.509300375509	328
0	868	722.289527313167	329
0	870	724.744989552048	330
0	872	726.521244668113	331
0	874	730.453121223381	332
0	876	731.437722842444	333
0	878	732.417066828941	334
0	880	733.616196561297	335
0	882	734.193785999775	336
0	884	734.760956446746	337
0	886	735.472701321617	338
0	888	737.205698183684	339
0	892	741.094058786896	340
0	898	747.335773976839	341
0	900	748.616822664979	342
0	902	750.421795878585	343
0	904	752.598785461663	344
0	906	753.269881740353	345
0	908	756.546880089736	346
0	910	756.702304238219	347
0	912	757.285632220241	348
0	914	758.938438175176	349
0	916	759.104274304407	350
0	918	759.520152934062	351
0	920	762.159373764178	352
0	922	763.861853611634	353
0	924	770.370728905529	354
0	926	770.66185599647	355
0	930	776.811612052004	356
0	932	777.753628867371	357
0	934	779.102275992266	358
0	936	779.90326437487	359
0	938	781.903653164351	360
0	940	783.490888073138	361
0	942	786.131864025177	362
0	944	786.573083210999	363
0	946	791.227033587317	364
0	948	791.806537092525	365
0	950	792.16060083408	366
0	952	795.475589797175	367
0	954	796.516942156875	368
0	956	801.719184689416	369
0	958	802.798632166372	370
0	962	807.401557935479	371
0	964	809.78032428953	372
0	966	810.920576555921	373
0	971	812.02681577539	374
0	973	812.069970696464	375
0	975	815.975436548075	376
0	977	819.050613713256	377
0	980	822.804366031506	378
0	982	823.207576763804	379
0	984	823.353146394546	380
0	986	825.071254406671	381
0	988	825.789617471013	382
0	990	826.67084573975	383
0	993	834.457609184868	384
0	995	837.33587022886	385
0	997	837.408424480702	386
0	999	838.930472267879	387
0	1001	840.286566390396	388
0	1004	841.191855038995	389
0	1006	847.280727893522	390
0	1008	848.340296813764	391
0	1010	851.66780794586	392
0	1012	852.233187026929	393
0	1014	852.930403434859	394
0	1016	853.168052314842	395
0	1018	854.98188949859	396
0	1020	855.46088683443	397
0	1022	856.589261761439	398
0	1024	858.994471479502	399
0	1026	860.789397160187	400
0	1030	865.944887987518	401
0	1034	870.42884847181	402
0	1036	874.857340295159	403
0	1038	876.472307977583	404
0	1042	877.349365187653	405
0	1044	878.707327209192	406
0	1046	882.172550245325	407
0	1048	882.941730640806	408
0	1050	883.902634266439	409
0	1052	884.513961929184	410
0	1054	884.58316363034	411
0	1056	886.146161580826	412
0	1058	890.510804059574	413
0	1060	890.682496225776	414
0	1062	892.057454374692	415
0	1066	894.0766621264	416
0	1068	894.129679214963	417
0	1070	897.31292649894	418
0	1072	901.760866135206	419
0	1076	907.951861049704	420
0	1078	917.761937329992	421
0	1080	920.069918450982	422
0	1082	920.7276229591	423
0	1084	922.067629783002	424
0	1086	923.250636532796	425
0	1088	924.579422890241	426
0	1090	928.395556307671	427
0	1092	935.199526714431	428
0	1094	936.485691424608	429
0	1096	936.96055137834	430
0	1099	937.610525445771	431
0	1101	938.671385649894	432
0	1103	942.357391957068	433
0	1107	951.501942728886	434
0	1109	951.936079247077	435
0	1111	951.993725806771	436
0	1114	955.873978434928	437
0	1116	958.290787103869	438
0	1118	959.026523869543	439
0	1120	959.077511448761	440
0	1123	959.321454239567	441
0	1125	960.095374201861	442
0	1127	960.62344392129	443
0	1129	960.776184818591	444
0	1131	961.197905419394	445
0	1133	961.323539161891	446
0	1135	965.867170480128	447
0	1137	966.103400868678	448
0	1139	968.599016730936	449
0	1141	968.96991499353	450
0	1143	969.605703964602	451
0	1145	971.581740842221	452
0	1147	972.386892787684	453
0	1149	973.540799067484	454
0	1151	973.827267122986	455
0	1153	977.381841730349	456
0	1155	978.658373184305	457
0	1157	979.206700065571	458
0	1159	983.373419078131	459
0	1161	983.794991284541	460
0	1163	985.936410081468	461
0	1165	988.425302975996	462
0	1167	991.111578478866	463
0	1169	995.019593081004	464
0	1171	998.578738044635	465
0	1173	1000.21641230211	466
0	1175	1003.335096862547	467
0	1177	1005.772731127198	468
0	1179	1008.60510684568	469
0	1181	1010.463413220433	470
0	1184	1012.25984977011	471
0	1186	1013.898256231672	472
0	1188	1014.391512495473	473
0	1190	1018.329377417616	474
0	1192	1019.668295592058	475
0	1194	1024.713646215799	476
0	1196	1026.653801438701	477
0	1198	1030.442812581939	478
0	1200	1036.668529688599	479
0	1202	1037.255840197904	480
0	1204	1037.820823450881	481
0	1208	1042.02101900712	482
0	1210	1042.186778815373	483
0	1212	1043.329098804182	484
0	1214	1044.708950206991	485
0	1216	1047.32387472742	486
0	1219	1048.468449928108	487
0	1221	1049.532687269948	488
0	1223	1050.243847319772	489
0	1225	1050.667354765079	490
0	1227	1052.011246661883	491
0	1229	1054.459730475942	492
0	1233	1058.91406899879	493
0	1235	1059.464608709349	494
0	1237	1060.880869289564	495
0	1239	1064.692846763861	496
0	1243	1065.586755394401	497
0	1245	1069.062460675692	498
0	1247	1073.746908050789	499
0	1249	1075.236680940517	500
0	1253	1077.769426836923	501
0	1257	1078.746057927728	502
0	1259	1080.820091271086	503
0	1262	1082.60758868512	504
0	1264	1083.186382584841	505
0	1266	1083.482277616582	506
0	1268	1083.782238758733	507
0	1270	1087.085577291791	508
0	1272	1089.913689226099	509
0	1277	1096.666258578051	510
0	1279	1098.335046748002	511
0	1281	1101.361446777103	512
0	1283	1101.681965753359	513
0	1285	1102.22909041515	514
0	1289	1108.204397277188	515
0	1291	1112.243129420132	516
0	1293	1112.77042254502	517
0	1296	1116.072140696598	518
0	1298	1126.078421822211	519
0	1300	1126.210020177343	520
0	1303	1129.524726239956	521
0	1305	1130.050648720692	522
0	1307	1131.979109850915	523
0	1309	1133.760772278814	524
0	1311	1134.108640924583	525
0	1313	1134.404450918223	526
0	1315	1137.499547809911	527
0	1317	1139.768694448024	528
0	1320	1144.908591107159	529
0	1322	1154.613469637588	530
0	1324	1154.800970226139	531
0	1326	1155.474020276243	532
0	1328	1155.854977460259	533
0	1330	1158.716830999282	534
0	1334	1161.878523673184	535
0	1336	1161.973812364334	536
0	1340	1164.625522260504	537
0	1342	1165.434061626416	538
0	1344	1169.252864660319	539
0	1346	1175.037512311922	540
0	1348	1176.809570964582	541
0	1350	1178.833616702421	542
0	1352	1179.067805230655	543
0	1354	1180.909651151279	544
0	1356	1182.356820584431	545
0	1358	1187.624135590513	546
0	1360	1187.858224464106	547
0	1362	1188.259226654515	548
0	1364	1190.964946853209	549
0	1366	1191.00091471691	550
0	1368	1191.618768489628	551
0	1370	1192.040388764036	552
0	1372	1194.065686230807	553
0	1374	1195.541439000165	554
0	1376	1195.564151045772	555
0	1378	1196.933802775078	556
0	1380	1198.09500712089	557
0	1382	1201.31880102555	558
0	1388	1205.835413185649	559
0	1392	1209.759602446874	560
0	1394	1209.932541203885	561
0	1396	1210.411483534249	562
0	1398	1213.745552515319	563
0	1400	1214.895459079716	564
0	1402	1215.999788101263	565
0	1406	1217.094827873749	566
0	1408	1217.423163006478	567
0	1410	1217.535705663469	568
0	1412	1217.605007611072	569
0	1414	1217.62497432782	570
0	1417	1220.796097992818	571
0	1419	1223.915163105317	572
0	1421	1224.200262075195	573
0	1423	1224.844293555649	574
0	1425	1227.354953224743	575
0	1427	1229.884806543431	576
0	1431	1232.323089763268	577
0	1433	1233.417225185936	578
0	1437	1234.793587023834	579
0	1439	1235.103005743485	580
0	1441	1235.321344730392	581
0	1443	1235.749022878724	582
0	1445	1237.192787646095	583
0	1447	1237.946004336598	584
0	1449	1239.922023196384	585
0	1452	1243.193280737648	586
0	1454	1244.65049114555	587
0	1456	1244.675903581234	588
0	1458	1245.290841755032	589
0	1460	1245.391547075559	590
0	1462	1245.572920018307	591
0	1464	1247.242343274649	592
0	1468	1249.787021970486	593
0	1470	1252.108916916373	594
0	1472	1252.565081843633	595
0	1477	1255.160263975415	596
0	1479	1256.058044373093	597
0	1481	1257.364719795653	598
0	1483	1260.372043501095	599
0	1485	1261.288689243528	600
0	1489	1265.546662555082	601
0	1491	1269.211451749695	602
0	1493	1269.932799588167	603
0	1495	1271.143671385453	604
0	1497	1271.469610101755	605
0	1499	1272.244956260576	606
0	1501	1274.925007190761	607
0	1503	1275.119615231834	608
0	1509	1279.984068929219	609
0	1511	1280.108751716858	610
0	1513	1285.614527669467	611
0	1515	1285.805240602819	612
0	1517	1285.846972067338	613
0	1520	1288.142827939077	614
0	1522	1289.422944794592	615
0	1524	1291.706417236706	616
0	1526	1291.800669727355	617
0	1528	1292.357913987829	618
0	1530	1292.468316558676	619
0	1532	1294.514184253462	620
0	1534	1296.545223052845	621
0	1536	1296.688514079458	622
0	1538	1296.840135638225	623
0	1540	1300.966011884742	624
0	1544	1310.485135469002	625
0	1546	1310.71732002569	626
0	1548	1313.741305867562	627
0	1550	1314.111691040413	628
0	1552	1316.517185866854	629
0	1554	1317.777072433936	630
0	1556	1318.053294434418	631
0	1558	1321.045059542508	632
0	1560	1321.679128028698	633
0	1565	1325.53352384267	634
0	1567	1327.366070356981	635
0	1569	1327.838493602333	636
0	1571	1329.766545575391	637
0	1573	1329.926021793712	638
0	1575	1331.581415160908	639
0	1577	1334.69240201802	640
0	1581	1336.807966081145	641
0	1583	1338.393901113282	642
0	1585	1338.927717745749	643
0	1587	1342.013659566592	644
0	1589	1342.773360581683	645
0	1595	1347.825994195319	646
0	1598	1350.563804993038	647
0	1600	1351.875402821291	648
0	1602	1355.998072012178	649
0	1605	1357.228791907143	650
0	1607	1358.547553913432	651
0	1610	1360.375037650089	652
0	1612	1361.29280827933	653
0	1615	1363.121986559951	654
0	1617	1363.325041549996	655
0	1619	1364.728906678121	656
0	1621	1367.059140068745	657
0	1623	1367.792240103538	658
0	1625	1367.861726077631	659
0	1627	1369.420674873095	660
0	1629	1369.562564182796	661
0	1631	1374.741151192306	662
0	1635	1379.546122846302	663
0	1637	1386.596299770183	664
0	1639	1388.225003837322	665
0	1641	1389.232686026566	666
0	1643	1389.931861072361	667
0	1645	1393.138228765496	668
0	1647	1395.780128923588	669
0	1651	1397.796327840899	670
0	1653	1398.428100497626	671
0	1655	1398.950749937337	672
0	1658	1403.027837325708	673
0	1660	1403.132966776424	674
0	1663	1405.299715468223	675
0	1665	1405.357468986082	676
0	1667	1406.361039621941	677
0	1669	1406.62318902972	678
0	1671	1406.949242710963	679
0	1673	1407.446710409228	680
0	1676	1410.885109556614	681
0	1678	1414.417559117787	682
0	1680	1415.657456752233	683
0	1682	1416.329778432681	684
0	1684	1417.624087963259	685
0	1686	1420.662040340621	686
0	1688	1422.460658659563	687
0	1690	1423.865703893484	688
0	1694	1426.770572661049	689
0	1696	1427.068614519395	690
0	1698	1437.091402200086	691
0	1700	1440.101887337738	692
0	1702	1440.979578371191	693
0	1704	1446.064610802695	694
0	1706	1446.189495203892	695
0	1708	1451.919557144988	696
0	1710	1452.5044523323	697
0	1712	1454.942190730038	698
0	1714	1455.466570557358	699
0	1718	1457.834364858982	700
0	1720	1460.479970376266	701
0	1722	1462.061718897165	702
0	1724	1464.020527234798	703
0	1726	1464.942114708704	704
0	1728	1467.44475168211	705
0	1732	1475.53215816607	706
0	1734	1478.032381743702	707
0	1738	1478.168102823559	708
0	1740	1478.547325837177	709
0	1743	1483.106593084668	710
0	1745	1483.945837430137	711
0	1747	1484.558700218057	712
0	1749	1487.000981054825	713
0	1751	1488.709848177917	714
0	1753	1489.444047539473	715
0	1755	1490.882480712313	716
0	1760	1491.51570603351	717
0	1762	1493.13271797972	718
0	1764	1494.181576971746	719
0	1766	1496.265099665627	720
0	1771	1501.167962088815	721
0	1773	1501.578260343188	722
0	1775	1502.103596805506	723
0	1777	1502.738445387954	724
0	1779	1504.825993058835	725
0	1781	1505.147360551454	726
0	1783	1506.134661877226	727
0	1785	1506.196207541305	728
0	1787	1511.406440194981	729
0	1791	1517.008600379715	730
0	1793	1518.460821250553	731
0	1795	1519.312424641301	732
0	1797	1520.80917932125	733
0	1799	1521.041268784456	734
0	1802	1521.64109652979	735
0	1804	1522.591778596345	736
0	1806	1525.798177294513	737
0	1808	1526.767451936802	738
0	1810	1527.672589511053	739
0	1812	1529.862370080002	740
0	1814	1531.459079506913	741
0	1816	1532.019806501165	742
0	1818	1532.118357960968	743
0	1820	1534.28470792482	744
0	1822	1535.357444715616	745
0	1824	1535.56481940822	746
0	1826	1535.746226924158	747
0	1828	1537.485340613051	748
0	1830	1538.119375988788	749
0	1832	1538.345412188616	750
0	1834	1538.889518597496	751
0	1836	1540.478791270282	752
0	1839	1541.363803066077	753
0	1841	1542.830707142542	754
0	1843	1543.640992446427	755
0	1845	1544.343611504844	756
0	1847	1544.935110431425	757
0	1850	1546.151726587205	758
0	1853	1549.458097752058	759
0	1855	1549.536965584036	760
0	1857	1550.850429212631	761
0	1859	1552.678032002647	762
0	1861	1552.813866149218	763
0	1863	1552.814839906565	764
0	1865	1555.594255163014	765
0	1867	1556.987817088604	766
0	1870	1558.091067671099	767
0	1872	1559.484278471746	768
0	1874	1559.766714473495	769
0	1876	1559.891890673269	770
0	1878	1562.618268870768	771
0	1881	1568.603221455412	772
0	1883	1574.33847832812	773
0	1885	1576.214830522992	774
0	1887	1576.576235131314	775
0	1889	1578.805734861708	776
0	1892	1579.924660272071	777
0	1894	1581.167331312835	778
0	1897	1586.452945389632	779
0	1899	1588.889583134304	780
0	1904	1591.537837555325	781
0	1906	1591.937343920471	782
0	1908	1592.658624354013	783
0	1910	1594.744499989259	784
0	1912	1596.275238491908	785
0	1914	1597.954401325082	786
0	1918	1600.042177378192	787
0	1920	1606.206427859692	788
0	1922	1609.185913107273	789
0	1924	1612.371962201732	790
0	1926	1615.422464728446	791
0	1928	1617.182914701404	792
0	1930	1617.359671758368	793
0	1932	1618.574913790002	794
0	1934	1618.8171715679	795
0	1936	1621.499442885694	796
0	1938	1623.693029714185	797
0	1940	1627.038171466965	798
0	1942	1630.551055304557	799
0	1946	1635.79364030085	800
0	1948	1637.214728697607	801
0	1950	1640.716450685002	802
0	1952	1641.76759465163	803
0	1954	1641.828423577201	804
0	1956	1643.125604989133	805
0	1958	1646.089479015626	806
0	1962	1651.561779009627	807
0	1964	1653.037136911594	808
0	1966	1653.730428325172	809
0	1968	1658.062822281019	810
0	1970	1658.349174380152	811
0	1974	1659.576226599055	812
0	1976	1659.795544767244	813
0	1978	1661.351746445879	814
0	1980	1663.453970575111	815
0	1984	1668.220801814833	816
0	1986	1670.183035115156	817
0	1988	1671.808293606121	818
0	1990	1674.022896057037	819
0	1992	1674.437226622967	820
0	1994	1679.066572347309	821
0	1998	1681.352399038265	822
0	2001	1681.97212888825	823
0	2003	1682.000015769274	824
0	2005	1684.140922730065	825
0	2007	1685.097290006303	826
0	2009	1687.857960624055	827
0	2011	1691.165623217922	828
0	2013	1696.618324605802	829
0	2015	1698.334959880551	830
0	2017	1702.880719431067	831
0	2019	1703.209960546768	832
0	2021	1704.05199975436	833
0	2023	1704.852521386032	834
0	2025	1706.271568470759	835
0	2027	1712.33524702998	836
0	2029	1712.903796765171	837
0	2031	1712.965508586273	838
0	2033	1714.29993453412	839
0	2035	1717.311654207997	840
0	2038	1720.577248577897	841
0	2040	1720.977528572837	842
0	2042	1722.635144657745	843
0	2044	1723.115868708037	844
0	2046	1724.329948828565	845
0	2048	1726.44448395572	846
0	2050	1727.281537597694	847
0	2052	1727.592722232937	848
0	2054	1729.54577567854	849
0	2056	1730.505099200942	850
0	2058	1730.982527128788	851
0	2060	1732.02338541621	852
0	2062	1732.308917085728	853
0	2064	1734.460459975513	854
0	2066	1735.688642245404	855
0	2068	1737.122795376641	856
0	2070	1738.16018751449	857
0	2072	1739.478007966875	858
0	2074	1739.937900060101	859
0	2076	1741.422666502086	860
0	2078	1741.839549050917	861
0	2080	1745.122292654881	862
0	2082	1745.173203252761	863
0	2084	1748.436479120116	864
0	2086	1749.068360564251	865
0	2088	1749.387994990696	866
0	2091	1755.741924639789	867
0	2093	1765.799596592695	868
0	2100	1774.864194057436	869
0	2102	1775.004540621607	870
0	2104	1776.490178891104	871
0	2110	1787.443063977859	872
0	2112	1787.691877046619	873
0	2114	1787.955399404719	874
0	2116	1788.585438576613	875
0	2118	1788.713298284428	876
0	2120	1789.271359776767	877
0	2122	1791.706390898266	878
0	2124	1792.819951650469	879
0	2128	1799.307295862683	880
0	2130	1801.567006094655	881
0	2132	1804.057644205057	882
0	2134	1804.555845049754	883
0	2136	1806.731672405486	884
0	2138	1808.378752357605	885
0	2140	1808.665742577337	886
0	2142	1811.213580927319	887
0	2144	1811.61132484634	888
0	2148	1815.685689718047	889
0	2150	1816.026592375305	890
0	2152	1820.080968878616	891
0	2154	1820.270631139754	892
0	2156	1820.48467760409	893
0	2158	1827.626241316909	894
0	2160	1828.44989030343	895
0	2162	1829.876023330954	896
0	2164	1831.271745067111	897
0	2166	1832.470612440248	898
0	2168	1833.761236069149	899
0	2170	1834.561298809621	900
0	2172	1835.145409460341	901
0	2174	1836.505918940126	902
0	2176	1836.555572129651	903
0	2178	1836.865609858609	904
0	2180	1843.116276863661	905
0	2182	1843.443481287885	906
0	2184	1845.021511855686	907
0	2186	1848.399974390296	908
0	2188	1850.715758157022	909
0	2190	1851.190450744075	910
0	2192	1852.248116612727	911
0	2194	1852.429153068628	912
0	2196	1856.714159502603	913
0	2198	1857.693780219359	914
0	2200	1860.328715419044	915
0	2204	1864.806122953525	916
0	2206	1865.886947048377	917
0	2208	1867.006430193207	918
0	2210	1868.705181318354	919
0	2212	1871.612649737439	920
0	2215	1872.890393242405	921
0	2219	1883.596112766877	922
0	2221	1883.627930457239	923
0	2223	1883.668464151456	924
0	2225	1884.282451253124	925
0	2227	1884.511474058597	926
0	2229	1885.620297813118	927
0	2231	1887.993498127423	928
0	2233	1892.866281061176	929
0	2235	1897.292941150744	930
0	2237	1897.904784466205	931
0	2239	1899.261208306838	932
0	2241	1899.893605545526	933
0	2243	1900.039323351852	934
0	2245	1900.083833303173	935
0	2247	1900.269023247158	936
0	2249	1900.509630827214	937
0	2251	1900.734195567334	938
0	2253	1903.375404406323	939
0	2255	1903.824841194398	940
0	2257	1904.774831804885	941
0	2259	1908.971901256645	942
0	2262	1910.07678914349	943
0	2264	1915.814019498605	944
0	2266	1916.373494576643	945
0	2268	1916.66501749692	946
0	2270	1917.306566054337	947
0	2275	1921.220687908087	948
0	2277	1921.785265411412	949
0	2280	1924.615956252927	950
0	2282	1925.653949470305	951
0	2284	1927.971767453543	952
0	2286	1928.205576217313	953
0	2288	1932.086931465921	954
0	2290	1932.301040468927	955
0	2292	1932.826051175259	956
0	2294	1933.992140137942	957
0	2296	1935.457321969317	958
0	2298	1937.466882999972	959
0	2300	1938.308040826309	960
0	2302	1944.647977173657	961
0	2306	1946.798391423447	962
0	2308	1950.545547885296	963
0	2310	1951.210321786252	964
0	2312	1952.148798473657	965
0	2314	1953.544982988618	966
0	2316	1953.835243558827	967
0	2318	1954.557979784297	968
0	2320	1956.534876786353	969
0	2322	1958.143165758226	970
0	2324	1962.170545848075	971
0	2326	1962.521937984692	972
0	2330	1966.862615873831	973
0	2332	1968.543818381676	974
0	2334	1969.222662866029	975
0	2336	1970.552598278436	976
0	2339	1977.227428002237	977
0	2341	1977.500258058911	978
0	2343	1978.542015897563	979
0	2345	1980.111191145895	980
0	2347	1982.424397367339	981
0	2349	1982.87191136125	982
0	2351	1991.972196415172	983
0	2353	1994.190496815571	984
0	2355	1994.238466698792	985
0	2357	1995.871865319437	986
0	2359	1998.563243264982	987
0	2361	1999.092159803052	988
0	2363	2002.415584392892	989
0	2365	2003.86522539022	990
0	2367	2004.124329611436	991
0	2369	2004.880979066348	992
0	2371	2004.902073141495	993
0	2374	2008.65138880354	994
0	2376	2009.876218506712	995
0	2378	2011.062374372091	996
0	2380	2015.666030142636	997
0	2382	2015.876940570676	998
0	2384	2016.982415321911	999
0	2386	2021.619683383389	1000
0	2388	2022.288893856382	1001
0	2390	2026.166003881362	1002
0	2392	2028.496173652712	1003
0	2394	2029.170842527611	1004
0	2398	2029.460824852515	1005
0	2400	2030.060374036435	1006
0	2402	2030.077888930208	1007
0	2404	2030.215241988437	1008
0	2411	2036.8208827508	1009
0	2413	2037.585254139509	1010
0	2415	2038.317944658617	1011
0	2417	2038.42441501217	1012
0	2419	2038.494161828542	1013
0	2421	2044.265705889472	1014
0	2423	2047.735025336054	1015
0	2425	2050.261178358521	1016
0	2429	2053.136613638757	1017
0	2431	2054.749958605193	1018
0	2434	2060.125508931002	1019
0	2436	2061.017285705101	1020
0	2438	2063.25383712444	1021
0	2440	2063.600597943952	1022
0	2445	2066.715718080077	1023
0	2449	2067.850362036119	1024
0	2451	2069.70541899212	1025
0	2453	2070.360656181125	1026
0	2455	2072.602247178019	1027
0	2457	2079.092565261409	1028
0	2459	2080.526331524064	1029
0	2461	2080.732906081505	1030
0	2464	2091.955675222313	1031
0	2466	2093.000781993642	1032
0	2468	2093.87038723485	1033
0	2470	2093.887210683355	1034
0	2472	2095.489019526717	1035
0	2474	2097.167951733034	1036
0	2476	2101.783754391864	1037
0	2478	2103.502676374699	1038
0	2480	2103.611287282248	1039
0	2482	2103.906302821327	1040
0	2484	2104.26358401427	1041
0	2486	2106.494400513906	1042
0	2488	2108.61413066798	1043
0	2490	2108.922470732533	1044
0	2492	2109.111772588193	1045
0	2496	2110.535338081154	1046
0	2498	2112.306027396521	1047
0	2500	2113.226171866663	1048
0	2502	2114.390949121461	1049
0	2504	2114.963934378285	1050
0	2507	2118.481133505106	1051
0	2509	2118.774151692282	1052
0	2511	2121.860832609397	1053
0	2513	2122.114888929043	1054
0	2515	2124.690550583265	1055
0	2517	2124.798171133709	1056
0	2519	2125.532271446133	1057
0	2523	2126.673774152487	1058
0	2525	2131.904480367334	1059
0	2527	2134.849975512262	1060
0	2529	2135.151002261382	1061
0	2531	2138.957468687084	1062
0	2533	2139.592927264625	1063
0	2535	2141.534857626044	1064
0	2537	2141.676087368712	1065
0	2539	2142.631796698289	1066
0	2541	2143.762943267028	1067
0	2543	2146.041255881594	1068
0	2545	2147.638480888679	1069
0	2547	2148.391552648721	1070
0	2549	2148.616801342234	1071
0	2553	2151.210717930921	1072
0	2555	2151.551514110335	1073
0	2557	2156.469598886845	1074
0	2559	2156.92073773523	1075
0	2561	2157.120147437179	1076
0	2563	2160.575813121146	1077
0	2565	2162.76292502098	1078
0	2567	2164.847144873875	1079
0	2569	2165.729970361273	1080
0	2574	2167.575406764048	1081
0	2576	2170.448822184854	1082
0	2578	2171.446089012664	1083
0	2582	2177.247140203922	1084
0	2584	2180.60428777623	1085
0	2586	2181.110828986937	1086
0	2588	2181.376589209109	1087
0	2590	2181.494504328115	1088
0	2592	2181.512557448621	1089
0	2594	2183.571486649275	1090
0	2596	2188.031793117361	1091
0	2598	2188.217728604076	1092
0	2600	2191.522140391274	1093
0	2604	2193.727010064221	1094
0	2606	2195.133568733845	1095
0	2608	2197.002587012507	1096
0	2610	2199.446269404429	1097
0	2612	2199.485858290507	1098
0	2614	2200.140424974055	1099
0	2616	2201.141493627886	1100
0	2620	2209.091132022243	1101
0	2622	2210.321680331376	1102
0	2624	2210.684577828141	1103
0	2626	2210.727302972581	1104
0	2628	2211.925401456334	1105
0	2630	2212.86122396971	1106
0	2632	2215.65634219518	1107
0	2634	2217.323769914278	1108
0	2636	2217.663916264399	1109
0	2638	2217.681745859655	1110
0	2640	2217.870506087381	1111
0	2642	2218.225998994686	1112
0	2644	2219.273197807005	1113
0	2647	2223.841347486733	1114
0	2649	2224.24116948626	1115
0	2651	2225.119523475404	1116
0	2653	2226.410013480141	1117
0	2655	2227.151426524771	1118
0	2657	2227.24517335465	1119
0	2659	2228.990470845651	1120
0	2661	2231.375224245176	1121
0	2663	2232.852202251171	1122
0	2667	2233.291495295851	1123
0	2669	2237.573376523529	1124
0	2671	2238.672788682812	1125
0	2673	2239.308643695368	1126
0	2675	2240.034034857376	1127
0	2677	2240.746870670177	1128
0	2680	2244.293491055935	1129
0	2682	2245.030947674723	1130
0	2684	2245.312695643125	1131
0	2686	2245.5256496371	1132
0	2688	2249.555980486071	1133
0	2690	2250.25515700089	1134
0	2692	2250.452512907769	1135
0	2694	2253.063083338736	1136
0	2696	2253.309995440237	1137
0	2698	2254.146728066133	1138
0	2700	2254.673086330766	1139
0	2702	2255.347021872992	1140
0	2706	2259.704747715145	1141
0	2708	2265.967742016793	1142
0	2710	2270.047365486218	1143
0	2716	2285.167469315827	1144
0	2718	2288.939764703565	1145
0	2720	2289.762787156428	1146
0	2722	2290.872486761745	1147
0	2724	2292.161663899416	1148
0	2726	2296.361122288355	1149
0	2732	2299.900918599574	1150
0	2734	2300.922278446326	1151
0	2736	2301.13167800612	1152
0	2740	2305.465203425394	1153
0	2742	2306.884222612965	1154
0	2746	2309.844831076245	1155
0	2748	2313.434397977776	1156
0	2750	2314.665122734889	1157
0	2752	2317.605544496141	1158
0	2754	2318.825061713179	1159
0	2756	2322.21070453554	1160
0	2758	2331.703734111925	1161
0	2760	2331.809586473411	1162
0	2762	2334.305681734714	1163
0	2765	2336.592841108443	1164
0	2767	2340.265519112292	1165
0	2769	2346.875129072922	1166
0	2771	2350.018726931377	1167
0	2773	2352.432998944783	1168
0	2775	2352.574929554946	1169
0	2777	2353.629674667689	1170
0	2779	2354.274895910092	1171
0	2781	2354.738862393456	1172
0	2783	2355.888624101386	1173
0	2785	2362.136786197541	1174
0	2787	2362.768495508321	1175
0	2789	2363.810285047563	1176
0	2791	2366.518897287504	1177
0	2794	2369.042667104065	1178
0	2796	2370.126472475035	1179
0	2798	2372.357977621943	1180
0	2800	2372.577280176341	1181
0	2802	2376.26933690523	1182
0	2804	2377.953856366293	1183
0	2807	2383.605511096042	1184
0	2809	2383.798499117551	1185
0	2811	2385.067505273087	1186
0	2813	2385.400295354288	1187
0	2815	2385.628238155402	1188
0	2817	2385.848762299045	1189
0	2819	2387.521344812873	1190
0	2823	2389.995964866624	1191
0	2825	2397.79783685387	1192
0	2828	2402.404864543083	1193
0	2830	2403.54288556153	1194
0	2832	2404.515737999523	1195
0	2834	2407.923613655602	1196
0	2836	2409.27228686222	1197
0	2838	2410.42212502728	1198
0	2840	2411.586154443576	1199
0	2842	2414.913249013183	1200
0	2844	2415.157108496065	1201
0	2846	2415.67882131237	1202
0	2848	2417.564059434175	1203
0	2850	2418.622643405294	1204
0	2854	2423.27249602774	1205
0	2856	2425.898220615331	1206
0	2858	2426.515077042005	1207
0	2860	2428.543514931063	1208
0	2862	2430.515563273416	1209
0	2866	2433.447474174047	1210
0	2868	2433.720657360612	1211
0	2873	2439.977998393023	1212
0	2875	2441.030622731745	1213
0	2877	2441.973853907613	1214
0	2879	2445.991461792888	1215
0	2882	2450.512456865633	1216
0	2884	2453.731048606536	1217
0	2886	2454.198650119783	1218
0	2888	2455.429073075649	1219
0	2890	2455.559636406719	1220
0	2892	2457.353679361407	1221
0	2894	2457.901031703421	1222
0	2898	2465.131369055113	1223
0	2903	2468.16143669393	1224
0	2905	2469.824706093397	1225
0	2907	2470.76815773633	1226
0	2909	2471.530912712286	1227
0	2911	2473.272991745245	1228
0	2913	2473.374519383604	1229
0	2915	2473.9278774029	1230
0	2919	2475.325729326202	1231
0	2921	2476.480210787423	1232
0	2923	2477.023801536005	1233
0	2925	2477.421806832298	1234
0	2927	2477.671569613888	1235
0	2929	2478.605571400257	1236
0	2931	2479.849895666072	1237
0	2934	2483.839117130218	1238
0	2936	2487.609960269042	1239
0	2938	2491.485756373805	1240
0	2940	2492.148023082775	1241
0	2942	2497.77749801316	1242
0	2944	2498.440286192934	1243
0	2946	2499.481162836068	1244
1	473	350.142549661861	161
1	475	351.061590894461	162
1	477	353.111020891696	163
1	479	354.0059352795	164
1	481	354.452531419881	165
1	484	358.693366615062	166
1	486	360.837062812062	167
1	488	361.478967103779	168
1	490	364.491730145092	169
1	492	365.000434101238	170
1	494	368.025041964484	171
1	496	371.388770808912	172
1	498	373.273671434147	173
1	500	373.39359771025	174
1	502	374.132829617057	175
1	504	376.752633050417	176
1	506	379.145534802755	177
1	508	379.211984754749	178
1	510	383.138764915698	179
1	512	384.971282534112	180
1	514	386.934668510166	181
1	516	386.996702916293	182
1	518	395.077305212483	183
1	520	399.003894373522	184
1	522	406.505414640029	185
1	526	407.664264368695	186
1	528	408.028973398842	187
1	531	409.672956710048	188
1	533	409.71985865438	189
1	535	413.120830921563	190
1	537	413.471311228241	191
1	539	413.657749815206	192
1	542	418.798595915088	193
1	544	421.216484374786	194
1	546	427.355235595255	195
1	548	428.329363051826	196
1	550	428.803286267246	197
1	552	428.838438482789	198
1	554	429.732654771035	199
1	556	429.837277919578	200
1	559	431.431518625821	201
1	561	432.573631674039	202
1	563	433.208075484243	203
1	566	440.739066761562	204
1	568	441.973668517416	205
1	570	442.170622176446	206
1	572	444.55314055342	207
1	574	446.156920729012	208
1	576	447.544639164542	209
1	578	449.605256057224	210
1	582	452.123318146247	211
1	586	453.283864756585	212
1	588	454.776774734869	213
1	592	457.887373440334	214
1	594	457.890173437485	215
1	596	460.328058968666	216
1	598	461.33212205498	217
1	602	463.881330107077	218
1	605	465.236535234348	219
1	607	466.609977906925	220
1	609	467.641253373327	221
1	611	470.286732850792	222
1	613	471.161568142072	223
1	617	475.312985279244	224
1	619	476.701738426207	225
1	622	478.34324237755	226
1	624	479.521453313166	227
1	626	481.802915305452	228
1	628	481.992488070027	229
1	630	482.91158374843	230
1	632	483.550790553711	231
1	634	485.339500696058	232
1	639	491.085719497559	233
1	641	492.389970864988	234
1	643	492.443777493559	235
1	645	493.640966924321	236
1	647	493.722608188837	237
1	649	494.288780942981	238
1	651	494.954531372854	239
1	653	498.044613708293	240
1	655	499.790808840244	241
1	657	500.952375326315	242
1	659	510.349755631336	243
1	661	512.758515030351	244
1	667	522.582512775246	245
1	669	526.023955797798	246
1	673	535.981465391105	247
1	675	536.911053667842	248
1	677	537.14422990464	249
1	679	543.239297612534	250
1	681	545.423453642663	251
1	683	552.836304436616	252
1	685	554.320923974828	253
1	687	555.434430671177	254
1	689	555.814694404072	255
1	691	557.192737017418	256
1	694	562.920750673222	257
1	696	565.118885370938	258
1	698	565.672660034316	259
1	700	566.204807167568	260
1	704	579.889245061451	261
1	706	581.486354237371	262
1	708	583.234224366251	263
1	713	592.266967684906	264
1	715	592.671883158586	265
1	717	592.784487318638	266
1	719	593.762763743038	267
1	721	595.682242020123	268
1	723	596.102878151413	269
1	725	596.341190940053	270
1	727	597.399070575909	271
1	729	598.64067899284	272
1	731	600.446836108912	273
1	733	603.10190888999	274
1	737	605.623602659764	275
1	739	606.442796528835	276
1	741	607.77733236282	277
1	745	609.357246959627	278
1	747	610.098185735254	279
1	755	616.195655937687	280
1	757	617.918510094413	281
1	759	618.160935783328	282
1	761	619.326681427709	283
1	763	627.400790698711	284
1	765	628.29235922257	285
1	767	631.005013973458	286
1	769	631.780260207906	287
1	771	635.54897633354	288
1	773	636.015887498169	289
1	776	638.651368636184	290
1	778	639.851624704589	291
1	780	640.459208460611	292
1	782	641.813137731346	293
1	784	647.747396197629	294
1	788	652.334177580287	295
1	790	652.9642148092	296
1	794	655.578149709493	297
1	796	662.758329017962	298
1	798	665.698461739135	299
1	800	667.960634374901	300
1	802	668.902047703406	301
1	804	672.221401766526	302
1	806	673.063796810577	303
1	808	674.234425507802	304
1	810	676.363051369295	305
1	812	676.594414178982	306
1	814	679.077334285764	307
1	816	686.116783644076	308
1	818	686.357816732528	309
1	822	687.341431440567	310
1	824	687.626930226165	311
1	826	688.810058191576	312
1	828	690.027813865296	313
1	830	690.45211002139	314
1	832	690.800188858352	315
1	835	695.235947443474	316
1	837	701.757526784346	317
1	841	703.043300464511	318
1	843	706.678880142332	319
1	845	707.156358678455	320
1	847	708.624966656938	321
1	849	710.503825030224	322
1	851	710.9963225429	323
1	855	712.454714268745	324
1	859	712.744577889952	325
1	861	713.776123506177	326
1	866	721.509300375509	327
1	868	722.289527313167	328
1	870	724.744989552048	329
1	872	726.521244668113	330
1	874	730.453121223381	331
1	876	731.437722842444	332
1	878	732.417066828941	333
1	880	733.616196561297	334
1	882	734.193785999775	335
1	884	734.760956446746	336
1	886	735.472701321617	337
1	888	737.205698183684	338
1	892	741.094058786896	339
1	898	747.335773976839	340
1	900	748.616822664979	341
1	902	750.421795878585	342
1	904	752.598785461663	343
1	906	753.269881740353	344
1	908	756.546880089736	345
1	910	756.702304238219	346
1	912	757.285632220241	347
1	914	758.938438175176	348
1	916	759.104274304407	349
1	918	759.520152934062	350
1	920	762.159373764178	351
1	922	763.861853611634	352
1	924	770.370728905529	353
1	926	770.66185599647	354
1	930	776.811612052004	355
1	932	777.753628867371	356
1	934	779.102275992266	357
1	936	779.90326437487	358
1	938	781.903653164351	359
1	940	783.490888073138	360
1	942	786.131864025177	361
1	944	786.573083210999	362
1	946	791.227033587317	363
1	948	791.806537092525	364
1	950	792.16060083408	365
1	952	795.475589797175	366
1	954	796.516942156875	367
1	956	801.719184689416	368
1	958	802.798632166372	369
1	962	807.401557935479	370
1	964	809.78032428953	371
1	966	810.920576555921	372
1	971	812.02681577539	373
1	973	812.069970696464	374
1	975	815.975436548075	375
1	977	819.050613713256	376
1	980	822.804366031506	377
1	982	823.207576763804	378
1	984	823.353146394546	379
1	986	825.071254406671	380
1	988	825.789617471013	381
1	990	826.67084573975	382
1	993	834.457609184868	383
1	995	837.33587022886	384
1	997	837.408424480702	385
1	999	838.930472267879	386
1	1001	840.286566390396	387
1	1004	841.191855038995	388
1	1006	847.280727893522	389
1	1008	848.340296813764	390
1	1010	851.66780794586	391
1	1012	852.233187026929	392
1	1014	852.930403434859	393
1	1016	853.168052314842	394
1	1018	854.98188949859	395
1	1020	855.46088683443	396
1	1022	856.589261761439	397
1	1024	858.994471479502	398
1	1026	860.789397160187	399
1	1030	865.944887987518	400
1	1034	870.42884847181	401
1	1036	874.857340295159	402
1	1038	876.472307977583	403
1	1042	877.349365187653	404
1	1044	878.707327209192	405
1	1046	882.172550245325	406
1	1048	882.941730640806	407
1	1050	883.902634266439	408
1	1052	884.513961929184	409
1	1054	884.58316363034	410
1	1056	886.146161580826	411
1	1058	890.510804059574	412
1	1060	890.682496225776	413
1	1062	892.057454374692	414
1	1066	894.0766621264	415
1	1068	894.129679214963	416
1	1070	897.31292649894	417
1	1072	901.760866135206	418
1	1076	907.951861049704	419
1	1078	917.761937329992	420
1	1080	920.069918450982	421
1	1082	920.7276229591	422
1	1084	922.067629783002	423
1	1086	923.250636532796	424
1	1088	924.579422890241	425
1	1090	928.395556307671	426
1	1092	935.199526714431	427
1	1094	936.485691424608	428
1	1096	936.96055137834	429
1	1099	937.610525445771	430
1	1101	938.671385649894	431
1	1103	942.357391957068	432
1	1107	951.501942728886	433
1	1109	951.936079247077	434
1	1111	951.993725806771	435
1	1114	955.873978434928	436
1	1116	958.290787103869	437
1	1118	959.026523869543	438
1	1120	959.077511448761	439
1	1123	959.321454239567	440
1	1125	960.095374201861	441
1	1127	960.62344392129	442
1	1129	960.776184818591	443
1	1131	961.197905419394	444
1	1133	961.323539161891	445
1	1135	965.867170480128	446
1	1137	966.103400868678	447
1	1139	968.599016730936	448
1	1141	968.96991499353	449
1	1143	969.605703964602	450
1	1145	971.581740842221	451
1	1147	972.386892787684	452
1	1149	973.540799067484	453
1	1151	973.827267122986	454
1	1153	977.381841730349	455
1	1155	978.658373184305	456
1	1157	979.206700065571	457
1	1159	983.373419078131	458
1	1161	983.794991284541	459
1	1163	985.936410081468	460
1	1165	988.425302975996	461
1	1167	991.111578478866	462
1	1169	995.019593081004	463
1	1171	998.578738044635	464
1	1173	1000.21641230211	465
1	1175	1003.335096862547	466
1	1177	1005.772731127198	467
1	1179	1008.60510684568	468
1	1181	1010.463413220433	469
1	1184	1012.25984977011	470
1	1186	1013.898256231672	471
1	1188	1014.391512495473	472
1	1190	1018.329377417616	473
1	1192	1019.668295592058	474
1	1194	1024.713646215799	475
1	1196	1026.653801438701	476
1	1198	1030.442812581939	477
1	1200	1036.668529688599	478
1	1202	1037.255840197904	479
1	1204	1037.820823450881	480
1	1208	1042.02101900712	481
1	1210	1042.186778815373	482
1	1212	1043.329098804182	483
1	1214	1044.708950206991	484
1	1216	1047.32387472742	485
1	1219	1048.468449928108	486
1	1221	1049.532687269948	487
1	1223	1050.243847319772	488
1	1225	1050.667354765079	489
1	1227	1052.011246661883	490
1	1229	1054.459730475942	491
1	1233	1058.91406899879	492
1	1235	1059.464608709349	493
1	1237	1060.880869289564	494
1	1239	1064.692846763861	495
1	1243	1065.586755394401	496
1	1245	1069.062460675692	497
1	1247	1073.746908050789	498
1	1249	1075.236680940517	499
1	1253	1077.769426836923	500
1	1257	1078.746057927728	501
1	1259	1080.820091271086	502
1	1262	1082.60758868512	503
1	1264	1083.186382584841	504
1	1266	1083.482277616582	505
1	1268	1083.782238758733	506
1	1270	1087.085577291791	507
1	1272	1089.913689226099	508
1	1277	1096.666258578051	509
1	1279	1098.335046748002	510
1	1281	1101.361446777103	511
1	1283	1101.681965753359	512
1	1285	1102.22909041515	513
1	1289	1108.204397277188	514
1	1291	1112.243129420132	515
1	1293	1112.77042254502	516
1	1296	1116.072140696598	517
1	1298	1126.078421822211	518
1	1300	1126.210020177343	519
1	1303	1129.524726239956	520
1	1305	1130.050648720692	521
1	1307	1131.979109850915	522
1	1309	1133.760772278814	523
1	1311	1134.108640924583	524
1	1313	1134.404450918223	525
1	1315	1137.499547809911	526
1	1317	1139.768694448024	527
1	1320	1144.908591107159	528
1	1322	1154.613469637588	529
1	1324	1154.800970226139	530
1	1326	1155.474020276243	531
1	1328	1155.854977460259	532
1	1330	1158.716830999282	533
1	1334	1161.878523673184	534
1	1336	1161.973812364334	535
1	1340	1164.625522260504	536
1	1342	1165.434061626416	537
1	1344	1169.252864660319	538
1	1346	1175.037512311922	539
1	1348	1176.809570964582	540
1	1350	1178.833616702421	541
1	1352	1179.067805230655	542
1	1354	1180.909651151279	543
1	1356	1182.356820584431	544
1	1358	1187.624135590513	545
1	1360	1187.858224464106	546
1	1362	1188.259226654515	547
1	1364	1190.964946853209	548
1	1366	1191.00091471691	549
1	1368	1191.618768489628	550
1	1370	1192.040388764036	551
1	1372	1194.065686230807	552
1	1374	1195.541439000165	553
1	1376	1195.564151045772	554
1	1378	1196.933802775078	555
1	1380	1198.09500712089	556
1	1382	1201.31880102555	557
1	1388	1205.835413185649	558
1	1392	1209.759602446874	559
1	1394	1209.932541203885	560
1	1396	1210.411483534249	561
1	1398	1213.745552515319	562
1	1400	1214.895459079716	563
1	1402	1215.999788101263	564
1	1406	1217.094827873749	565
1	1408	1217.423163006478	566
1	1410	1217.535705663469	567
1	1412	1217.605007611072	568
1	1414	1217.62497432782	569
1	1417	1220.796097992818	570
1	1419	1223.915163105317	571
1	1421	1224.200262075195	572
1	1423	1224.844293555649	573
1	1425	1227.354953224743	574
1	1427	1229.884806543431	575
1	1431	1232.323089763268	576
1	1433	1233.417225185936	577
1	1437	1234.793587023834	578
1	1439	1235.103005743485	579
1	1441	1235.321344730392	580
1	1443	1235.749022878724	581
1	1445	1237.192787646095	582
1	1447	1237.946004336598	583
1	1449	1239.922023196384	584
1	1452	1243.193280737648	585
1	1454	1244.65049114555	586
1	1456	1244.675903581234	587
1	1458	1245.290841755032	588
1	1460	1245.391547075559	589
1	1462	1245.572920018307	590
1	1464	1247.242343274649	591
1	1468	1249.787021970486	592
1	1470	1252.108916916373	593
1	1472	1252.565081843633	594
1	1477	1255.160263975415	595
1	1479	1256.058044373093	596
1	1481	1257.364719795653	597
1	1483	1260.372043501095	598
1	1485	1261.288689243528	599
1	1489	1265.546662555082	600
1	1491	1269.211451749695	601
1	1493	1269.932799588167	602
1	1495	1271.143671385453	603
1	1497	1271.469610101755	604
1	1499	1272.244956260576	605
1	1501	1274.925007190761	606
1	1503	1275.119615231834	607
1	1509	1279.984068929219	608
1	1511	1280.108751716858	609
1	1513	1285.614527669467	610
1	1515	1285.805240602819	611
1	1517	1285.846972067338	612
1	1520	1288.142827939077	613
1	1522	1289.422944794592	614
1	1524	1291.706417236706	615
1	1526	1291.800669727355	616
1	1528	1292.357913987829	617
1	1530	1292.468316558676	618
1	1532	1294.514184253462	619
1	1534	1296.545223052845	620
1	1536	1296.688514079458	621
1	1538	1296.840135638225	622
1	1540	1300.966011884742	623
1	1544	1310.485135469002	624
1	1546	1310.71732002569	625
1	1548	1313.741305867562	626
1	1550	1314.111691040413	627
1	1552	1316.517185866854	628
1	1554	1317.777072433936	629
1	1556	1318.053294434418	630
1	1558	1321.045059542508	631
1	1560	1321.679128028698	632
1	1565	1325.53352384267	633
1	1567	1327.366070356981	634
1	1569	1327.838493602333	635
1	1571	1329.766545575391	636
1	1573	1329.926021793712	637
1	1575	1331.581415160908	638
1	1577	1334.69240201802	639
1	1581	1336.807966081145	640
1	1583	1338.393901113282	641
1	1585	1338.927717745749	642
1	1587	1342.013659566592	643
1	1589	1342.773360581683	644
1	1595	1347.825994195319	645
1	1598	1350.563804993038	646
1	1600	1351.875402821291	647
1	1602	1355.998072012178	648
1	1605	1357.228791907143	649
1	1607	1358.547553913432	650
1	1610	1360.375037650089	651
1	1612	1361.29280827933	652
1	1615	1363.121986559951	653
1	1617	1363.325041549996	654
1	1619	1364.728906678121	655
1	1621	1367.059140068745	656
1	1623	1367.792240103538	657
1	1625	1367.861726077631	658
1	1627	1369.420674873095	659
1	1629	1369.562564182796	660
1	1631	1374.741151192306	661
1	1635	1379.546122846302	662
1	1637	1386.596299770183	663
1	1639	1388.225003837322	664
1	1641	1389.232686026566	665
1	1643	1389.931861072361	666
1	1645	1393.138228765496	667
1	1647	1395.780128923588	668
1	1651	1397.796327840899	669
1	1653	1398.428100497626	670
1	1655	1398.950749937337	671
1	1658	1403.027837325708	672
1	1660	1403.132966776424	673
1	1663	1405.299715468223	674
1	1665	1405.357468986082	675
1	1667	1406.361039621941	676
1	1669	1406.62318902972	677
1	1671	1406.949242710963	678
1	1673	1407.446710409228	679
1	1676	1410.885109556614	680
1	1678	1414.417559117787	681
1	1680	1415.657456752233	682
1	1682	1416.329778432681	683
1	1684	1417.624087963259	684
1	1686	1420.662040340621	685
1	1688	1422.460658659563	686
1	1690	1423.865703893484	687
1	1694	1426.770572661049	688
1	1696	1427.068614519395	689
1	1698	1437.091402200086	690
1	1700	1440.101887337738	691
1	1702	1440.979578371191	692
1	1704	1446.064610802695	693
1	1706	1446.189495203892	694
1	1708	1451.919557144988	695
1	1710	1452.5044523323	696
1	1712	1454.942190730038	697
1	1714	1455.466570557358	698
1	1718	1457.834364858982	699
1	1720	1460.479970376266	700
1	1722	1462.061718897165	701
1	1724	1464.020527234798	702
1	1726	1464.942114708704	703
1	1728	1467.44475168211	704
1	1732	1475.53215816607	705
1	1734	1478.032381743702	706
1	1738	1478.168102823559	707
1	1740	1478.547325837177	708
1	1743	1483.106593084668	709
1	1745	1483.945837430137	710
1	1747	1484.558700218057	711
1	1749	1487.000981054825	712
1	1751	1488.709848177917	713
1	1753	1489.444047539473	714
1	1755	1490.882480712313	715
1	1760	1491.51570603351	716
1	1762	1493.13271797972	717
1	1764	1494.181576971746	718
1	1766	1496.265099665627	719
1	1771	1501.167962088815	720
1	1773	1501.578260343188	721
1	1775	1502.103596805506	722
1	1777	1502.738445387954	723
1	1779	1504.825993058835	724
1	1781	1505.147360551454	725
1	1783	1506.134661877226	726
1	1785	1506.196207541305	727
1	1787	1511.406440194981	728
1	1791	1517.008600379715	729
1	1793	1518.460821250553	730
1	1795	1519.312424641301	731
1	1797	1520.80917932125	732
1	1799	1521.041268784456	733
1	1802	1521.64109652979	734
1	1804	1522.591778596345	735
1	1806	1525.798177294513	736
1	1808	1526.767451936802	737
1	1810	1527.672589511053	738
1	1812	1529.862370080002	739
1	1814	1531.459079506913	740
1	1816	1532.019806501165	741
1	1818	1532.118357960968	742
1	1820	1534.28470792482	743
1	1822	1535.357444715616	744
1	1824	1535.56481940822	745
1	1826	1535.746226924158	746
1	1828	1537.485340613051	747
1	1830	1538.119375988788	748
1	1832	1538.345412188616	749
1	1834	1538.889518597496	750
1	1836	1540.478791270282	751
1	1839	1541.363803066077	752
1	1841	1542.830707142542	753
1	1843	1543.640992446427	754
1	1845	1544.343611504844	755
1	1847	1544.935110431425	756
1	1850	1546.151726587205	757
1	1853	1549.458097752058	758
1	1855	1549.536965584036	759
1	1857	1550.850429212631	760
1	1859	1552.678032002647	761
1	1861	1552.813866149218	762
1	1863	1552.814839906565	763
1	1865	1555.594255163014	764
1	1867	1556.987817088604	765
1	1870	1558.091067671099	766
1	1872	1559.484278471746	767
1	1874	1559.766714473495	768
1	1876	1559.891890673269	769
1	1878	1562.618268870768	770
1	1881	1568.603221455412	771
1	1883	1574.33847832812	772
1	1885	1576.214830522992	773
1	1887	1576.576235131314	774
1	1889	1578.805734861708	775
1	1892	1579.924660272071	776
1	1894	1581.167331312835	777
1	1897	1586.452945389632	778
1	1899	1588.889583134304	779
1	1904	1591.537837555325	780
1	1906	1591.937343920471	781
1	1908	1592.658624354013	782
1	1910	1594.744499989259	783
1	1912	1596.275238491908	784
1	1914	1597.954401325082	785
1	1918	1600.042177378192	786
1	1920	1606.206427859692	787
1	1922	1609.185913107273	788
1	1924	1612.371962201732	789
1	1926	1615.422464728446	790
1	1928	1617.182914701404	791
1	1930	1617.359671758368	792
1	1932	1618.574913790002	793
1	1934	1618.8171715679	794
1	1936	1621.499442885694	795
1	1938	1623.693029714185	796
1	1940	1627.038171466965	797
1	1942	1630.551055304557	798
1	1946	1635.79364030085	799
1	1948	1637.214728697607	800
1	1950	1640.716450685002	801
1	1952	1641.76759465163	802
1	1954	1641.828423577201	803
1	1956	1643.125604989133	804
1	1958	1646.089479015626	805
1	1962	1651.561779009627	806
1	1964	1653.037136911594	807
1	1966	1653.730428325172	808
1	1968	1658.062822281019	809
1	1970	1658.349174380152	810
1	1974	1659.576226599055	811
1	1976	1659.795544767244	812
1	1978	1661.351746445879	813
1	1980	1663.453970575111	814
1	1984	1668.220801814833	815
1	1986	1670.183035115156	816
1	1988	1671.808293606121	817
1	1990	1674.022896057037	818
1	1992	1674.437226622967	819
1	1994	1679.066572347309	820
1	1998	1681.352399038265	821
1	2001	1681.97212888825	822
1	2003	1682.000015769274	823
1	2005	1684.140922730065	824
1	2007	1685.097290006303	825
1	2009	1687.857960624055	826
1	2011	1691.165623217922	827
1	2013	1696.618324605802	828
1	2015	1698.334959880551	829
1	2017	1702.880719431067	830
1	2019	1703.209960546768	831
1	2021	1704.05199975436	832
1	2023	1704.852521386032	833
1	2025	1706.271568470759	834
1	2027	1712.33524702998	835
1	2029	1712.903796765171	836
1	2031	1712.965508586273	837
1	2033	1714.29993453412	838
1	2035	1717.311654207997	839
1	2038	1720.577248577897	840
1	2040	1720.977528572837	841
1	2042	1722.635144657745	842
1	2044	1723.115868708037	843
1	2046	1724.329948828565	844
1	2048	1726.44448395572	845
1	2050	1727.281537597694	846
1	2052	1727.592722232937	847
1	2054	1729.54577567854	848
1	2056	1730.505099200942	849
1	2058	1730.982527128788	850
1	2060	1732.02338541621	851
1	2062	1732.308917085728	852
1	2064	1734.460459975513	853
1	2066	1735.688642245404	854
1	2068	1737.122795376641	855
1	2070	1738.16018751449	856
1	2072	1739.478007966875	857
1	2074	1739.937900060101	858
1	2076	1741.422666502086	859
1	2078	1741.839549050917	860
1	2080	1745.122292654881	861
1	2082	1745.173203252761	862
1	2084	1748.436479120116	863
1	2086	1749.068360564251	864
1	2088	1749.387994990696	865
1	2091	1755.741924639789	866
1	2093	1765.799596592695	867
1	2100	1774.864194057436	868
1	2102	1775.004540621607	869
1	2104	1776.490178891104	870
1	2110	1787.443063977859	871
1	2112	1787.691877046619	872
1	2114	1787.955399404719	873
1	2116	1788.585438576613	874
1	2118	1788.713298284428	875
1	2120	1789.271359776767	876
1	2122	1791.706390898266	877
1	2124	1792.819951650469	878
1	2128	1799.307295862683	879
1	2130	1801.567006094655	880
1	2132	1804.057644205057	881
1	2134	1804.555845049754	882
1	2136	1806.731672405486	883
1	2138	1808.378752357605	884
1	2140	1808.665742577337	885
1	2142	1811.213580927319	886
1	2144	1811.61132484634	887
1	2148	1815.685689718047	888
1	2150	1816.026592375305	889
1	2152	1820.080968878616	890
1	2154	1820.270631139754	891
1	2156	1820.48467760409	892
1	2158	1827.626241316909	893
1	2160	1828.44989030343	894
1	2162	1829.876023330954	895
1	2164	1831.271745067111	896
1	2166	1832.470612440248	897
1	2168	1833.761236069149	898
1	2170	1834.561298809621	899
1	2172	1835.145409460341	900
1	2174	1836.505918940126	901
1	2176	1836.555572129651	902
1	2178	1836.865609858609	903
1	2180	1843.116276863661	904
1	2182	1843.443481287885	905
1	2184	1845.021511855686	906
1	2186	1848.399974390296	907
1	2188	1850.715758157022	908
1	2190	1851.190450744075	909
1	2192	1852.248116612727	910
1	2194	1852.429153068628	911
1	2196	1856.714159502603	912
1	2198	1857.693780219359	913
1	2200	1860.328715419044	914
1	2204	1864.806122953525	915
1	2206	1865.886947048377	916
1	2208	1867.006430193207	917
1	2210	1868.705181318354	918
1	2212	1871.612649737439	919
1	2215	1872.890393242405	920
1	2219	1883.596112766877	921
1	2221	1883.627930457239	922
1	2223	1883.668464151456	923
1	2225	1884.282451253124	924
1	2227	1884.511474058597	925
1	2229	1885.620297813118	926
1	2231	1887.993498127423	927
1	2233	1892.866281061176	928
1	2235	1897.292941150744	929
1	2237	1897.904784466205	930
1	2239	1899.261208306838	931
1	2241	1899.893605545526	932
1	2243	1900.039323351852	933
1	2245	1900.083833303173	934
1	2247	1900.269023247158	935
1	2249	1900.509630827214	936
1	2251	1900.734195567334	937
1	2253	1903.375404406323	938
1	2255	1903.824841194398	939
1	2257	1904.774831804885	940
1	2259	1908.971901256645	941
1	2262	1910.07678914349	942
1	2264	1915.814019498605	943
1	2266	1916.373494576643	944
1	2268	1916.66501749692	945
1	2270	1917.306566054337	946
1	2275	1921.220687908087	947
1	2277	1921.785265411412	948
1	2280	1924.615956252927	949
1	2282	1925.653949470305	950
1	2284	1927.971767453543	951
1	2286	1928.205576217313	952
1	2288	1932.086931465921	953
1	2290	1932.301040468927	954
1	2292	1932.826051175259	955
1	2294	1933.992140137942	956
1	2296	1935.457321969317	957
1	2298	1937.466882999972	958
1	2300	1938.308040826309	959
1	2302	1944.647977173657	960
1	2306	1946.798391423447	961
1	2308	1950.545547885296	962
1	2310	1951.210321786252	963
1	2312	1952.148798473657	964
1	2314	1953.544982988618	965
1	2316	1953.835243558827	966
1	2318	1954.557979784297	967
1	2320	1956.534876786353	968
1	2322	1958.143165758226	969
1	2324	1962.170545848075	970
1	2326	1962.521937984692	971
1	2330	1966.862615873831	972
1	2332	1968.543818381676	973
1	2334	1969.222662866029	974
1	2336	1970.552598278436	975
1	2339	1977.227428002237	976
1	2341	1977.500258058911	977
1	2343	1978.542015897563	978
1	2345	1980.111191145895	979
1	2347	1982.424397367339	980
1	2349	1982.87191136125	981
1	2351	1991.972196415172	982
1	2353	1994.190496815571	983
1	2355	1994.238466698792	984
1	2357	1995.871865319437	985
1	2359	1998.563243264982	986
1	2361	1999.092159803052	987
1	2363	2002.415584392892	988
1	2365	2003.86522539022	989
1	2367	2004.124329611436	990
1	2369	2004.880979066348	991
1	2371	2004.902073141495	992
1	2374	2008.65138880354	993
1	2376	2009.876218506712	994
1	2378	2011.062374372091	995
1	2380	2015.666030142636	996
1	2382	2015.876940570676	997
1	2384	2016.982415321911	998
1	2386	2021.619683383389	999
1	2388	2022.288893856382	1000
1	2390	2026.166003881362	1001
1	2392	2028.496173652712	1002
1	2394	2029.170842527611	1003
1	2398	2029.460824852515	1004
1	2400	2030.060374036435	1005
1	2402	2030.077888930208	1006
1	2404	2030.215241988437	1007
1	2411	2036.8208827508	1008
1	2413	2037.585254139509	1009
1	2415	2038.317944658617	1010
1	2417	2038.42441501217	1011
1	2419	2038.494161828542	1012
1	2421	2044.265705889472	1013
1	2423	2047.735025336054	1014
1	2425	2050.261178358521	1015
1	2429	2053.136613638757	1016
1	2431	2054.749958605193	1017
1	2434	2060.125508931002	1018
1	2436	2061.017285705101	1019
1	2438	2063.25383712444	1020
1	2440	2063.600597943952	1021
1	2445	2066.715718080077	1022
1	2449	2067.850362036119	1023
1	2451	2069.70541899212	1024
1	2453	2070.360656181125	1025
1	2455	2072.602247178019	1026
1	2457	2079.092565261409	1027
1	2459	2080.526331524064	1028
1	2461	2080.732906081505	1029
1	2464	2091.955675222313	1030
1	2466	2093.000781993642	1031
1	2468	2093.87038723485	1032
1	2470	2093.887210683355	1033
1	2472	2095.489019526717	1034
1	2474	2097.167951733034	1035
1	2476	2101.783754391864	1036
1	2478	2103.502676374699	1037
1	2480	2103.611287282248	1038
1	2482	2103.906302821327	1039
1	2484	2104.26358401427	1040
1	2486	2106.494400513906	1041
1	2488	2108.61413066798	1042
1	2490	2108.922470732533	1043
1	2492	2109.111772588193	1044
1	2496	2110.535338081154	1045
1	2498	2112.306027396521	1046
1	2500	2113.226171866663	1047
1	2502	2114.390949121461	1048
1	2504	2114.963934378285	1049
1	2507	2118.481133505106	1050
1	2509	2118.774151692282	1051
1	2511	2121.860832609397	1052
1	2513	2122.114888929043	1053
1	2515	2124.690550583265	1054
1	2517	2124.798171133709	1055
1	2519	2125.532271446133	1056
1	2523	2126.673774152487	1057
1	2525	2131.904480367334	1058
1	2527	2134.849975512262	1059
1	2529	2135.151002261382	1060
1	2531	2138.957468687084	1061
1	2533	2139.592927264625	1062
1	2535	2141.534857626044	1063
1	2537	2141.676087368712	1064
1	2539	2142.631796698289	1065
1	2541	2143.762943267028	1066
1	2543	2146.041255881594	1067
1	2545	2147.638480888679	1068
1	2547	2148.391552648721	1069
1	2549	2148.616801342234	1070
1	2553	2151.210717930921	1071
1	2555	2151.551514110335	1072
1	2557	2156.469598886845	1073
1	2559	2156.92073773523	1074
1	2561	2157.120147437179	1075
1	2563	2160.575813121146	1076
1	2565	2162.76292502098	1077
1	2567	2164.847144873875	1078
1	2569	2165.729970361273	1079
1	2574	2167.575406764048	1080
1	2576	2170.448822184854	1081
1	2578	2171.446089012664	1082
1	2582	2177.247140203922	1083
1	2584	2180.60428777623	1084
1	2586	2181.110828986937	1085
1	2588	2181.376589209109	1086
1	2590	2181.494504328115	1087
1	2592	2181.512557448621	1088
1	2594	2183.571486649275	1089
1	2596	2188.031793117361	1090
1	2598	2188.217728604076	1091
1	2600	2191.522140391274	1092
1	2604	2193.727010064221	1093
1	2606	2195.133568733845	1094
1	2608	2197.002587012507	1095
1	2610	2199.446269404429	1096
1	2612	2199.485858290507	1097
1	2614	2200.140424974055	1098
1	2616	2201.141493627886	1099
1	2620	2209.091132022243	1100
1	2622	2210.321680331376	1101
1	2624	2210.684577828141	1102
1	2626	2210.727302972581	1103
1	2628	2211.925401456334	1104
1	2630	2212.86122396971	1105
1	2632	2215.65634219518	1106
1	2634	2217.323769914278	1107
1	2636	2217.663916264399	1108
1	2638	2217.681745859655	1109
1	2640	2217.870506087381	1110
1	2642	2218.225998994686	1111
1	2644	2219.273197807005	1112
1	2647	2223.841347486733	1113
1	2649	2224.24116948626	1114
1	2651	2225.119523475404	1115
1	2653	2226.410013480141	1116
1	2655	2227.151426524771	1117
1	2657	2227.24517335465	1118
1	2659	2228.990470845651	1119
1	2661	2231.375224245176	1120
1	2663	2232.852202251171	1121
1	2667	2233.291495295851	1122
1	2669	2237.573376523529	1123
1	2671	2238.672788682812	1124
1	2673	2239.308643695368	1125
1	2675	2240.034034857376	1126
1	2677	2240.746870670177	1127
1	2680	2244.293491055935	1128
1	2682	2245.030947674723	1129
1	2684	2245.312695643125	1130
1	2686	2245.5256496371	1131
1	2688	2249.555980486071	1132
1	2690	2250.25515700089	1133
1	2692	2250.452512907769	1134
1	2694	2253.063083338736	1135
1	2696	2253.309995440237	1136
1	2698	2254.146728066133	1137
1	2700	2254.673086330766	1138
1	2702	2255.347021872992	1139
1	2706	2259.704747715145	1140
1	2708	2265.967742016793	1141
1	2710	2270.047365486218	1142
1	2716	2285.167469315827	1143
1	2718	2288.939764703565	1144
1	2720	2289.762787156428	1145
1	2722	2290.872486761745	1146
1	2724	2292.161663899416	1147
1	2726	2296.361122288355	1148
1	2732	2299.900918599574	1149
1	2734	2300.922278446326	1150
1	2736	2301.13167800612	1151
1	2740	2305.465203425394	1152
1	2742	2306.884222612965	1153
1	2746	2309.844831076245	1154
1	2748	2313.434397977776	1155
1	2750	2314.665122734889	1156
1	2752	2317.605544496141	1157
1	2754	2318.825061713179	1158
1	2756	2322.21070453554	1159
1	2758	2331.703734111925	1160
1	2760	2331.809586473411	1161
1	2762	2334.305681734714	1162
1	2765	2336.592841108443	1163
1	2767	2340.265519112292	1164
1	2769	2346.875129072922	1165
1	2771	2350.018726931377	1166
1	2773	2352.432998944783	1167
1	2775	2352.574929554946	1168
1	2777	2353.629674667689	1169
1	2779	2354.274895910092	1170
1	2781	2354.738862393456	1171
1	2783	2355.888624101386	1172
1	2785	2362.136786197541	1173
1	2787	2362.768495508321	1174
1	2789	2363.810285047563	1175
1	2791	2366.518897287504	1176
1	2794	2369.042667104065	1177
1	2796	2370.126472475035	1178
1	2798	2372.357977621943	1179
1	2800	2372.577280176341	1180
1	2802	2376.26933690523	1181
1	2804	2377.953856366293	1182
1	2807	2383.605511096042	1183
1	2809	2383.798499117551	1184
1	2811	2385.067505273087	1185
1	2813	2385.400295354288	1186
1	2815	2385.628238155402	1187
1	2817	2385.848762299045	1188
1	2819	2387.521344812873	1189
1	2823	2389.995964866624	1190
1	2825	2397.79783685387	1191
1	2828	2402.404864543083	1192
1	2830	2403.54288556153	1193
1	2832	2404.515737999523	1194
1	2834	2407.923613655602	1195
1	2836	2409.27228686222	1196
1	2838	2410.42212502728	1197
1	2840	2411.586154443576	1198
1	2842	2414.913249013183	1199
1	2844	2415.157108496065	1200
1	2846	2415.67882131237	1201
1	2848	2417.564059434175	1202
1	2850	2418.622643405294	1203
1	2854	2423.27249602774	1204
1	2856	2425.898220615331	1205
1	2858	2426.515077042005	1206
1	2860	2428.543514931063	1207
1	2862	2430.515563273416	1208
1	2866	2433.447474174047	1209
1	2868	2433.720657360612	1210
1	2873	2439.977998393023	1211
1	2875	2441.030622731745	1212
1	2877	2441.973853907613	1213
1	2879	2445.991461792888	1214
1	2882	2450.512456865633	1215
1	2884	2453.731048606536	1216
1	2886	2454.198650119783	1217
1	2888	2455.429073075649	1218
1	2890	2455.559636406719	1219
1	2892	2457.353679361407	1220
1	2894	2457.901031703421	1221
1	2898	2465.131369055113	1222
1	2903	2468.16143669393	1223
1	2905	2469.824706093397	1224
1	2907	2470.76815773633	1225
1	2909	2471.530912712286	1226
1	2911	2473.272991745245	1227
1	2913	2473.374519383604	1228
1	2915	2473.9278774029	1229
1	2919	2475.325729326202	1230
1	2921	2476.480210787423	1231
1	2923	2477.023801536005	1232
1	2925	2477.421806832298	1233
1	2927	2477.671569613888	1234
1	2929	2478.605571400257	1235
1	2931	2479.849895666072	1236
1	2934	2483.839117130218	1237
1	2936	2487.609960269042	1238
1	2938	2491.485756373805	1239
1	2940	2492.148023082775	1240
1	2942	2497.77749801316	1241
1	2944	2498.440286192934	1242
1	2946	2499.481162836068	1243
2	482	355.829589662138	15
2	529	409.553497076803	16
2	540	418.725967591331	17
2	557	430.625891583044	18
2	564	436.232445273562	19
2	603	464.858717468704	20
2	620	477.764407937971	21
2	637	488.545648945748	22
2	692	562.405287922825	23
2	709	584.318331770096	24
2	750	612.613079898594	25
2	753	614.694073789184	26
2	774	638.168674838776	27
2	833	691.816344941225	28
2	862	719.712597779839	29
2	895	745.981497334433	30
2	896	746.18186325797	31
2	967	811.328373091299	32
2	978	821.586291332345	33
2	991	829.957674924282	34
2	1002	841.008529175137	35
2	1097	937.363684321791	36
2	1112	954.004902587136	37
2	1121	959.236932871357	38
2	1182	1011.888227545592	39
2	1217	1047.357619435143	40
2	1260	1082.510730558332	41
2	1273	1090.072986130857	42
2	1294	1114.960728125999	43
2	1301	1128.376641054133	44
2	1318	1140.186149547369	45
2	1415	1219.535415950776	46
2	1450	1241.835224230513	47
2	1473	1253.268030151366	48
2	1518	1286.689330101164	49
2	1563	1325.525281924117	50
2	1596	1348.192856490756	51
2	1603	1356.401350045183	52
2	1608	1358.827331802788	53
2	1613	1362.91290755567	54
2	1632	1375.778351101956	55
2	1633	1376.832799699227	56
2	1656	1399.103644311106	57
2	1661	1405.086754753875	58
2	1674	1408.152611646712	59
2	1741	1478.759718761024	60
2	1756	1491.043230302501	61
2	1767	1497.702970457773	62
2	1768	1499.243512013088	63
2	1769	1499.310562258379	64
2	1800	1521.234779690014	65
2	1837	1541.136913597428	66
2	1848	1545.696714660316	67
2	1851	1546.560719199887	68
2	1868	1557.257144700711	69
2	1879	1565.679807243304	70
2	1890	1579.379979664579	71
2	1895	1583.461124880439	72
2	1902	1590.635645135921	73
2	1999	1681.659919645404	74
2	2036	1718.396689128534	75
2	2089	1754.526258484457	76
2	2098	1774.561846793233	77
2	2125	1794.780769433452	78
2	2126	1795.446866205119	79
2	2213	1872.888701066565	80
2	2260	1909.73689338141	81
2	2271	1919.537636539046	82
2	2278	1921.983953352576	83
2	2337	1975.962372899992	84
2	2372	2006.295802390682	85
2	2405	2033.752573543485	86
2	2432	2055.412652219759	87
2	2443	2065.474799712299	88
2	2462	2088.333228679758	89
2	2505	2117.604552605776	90
2	2570	2166.274560577084	91
2	2645	2220.992062859604	92
2	2678	2241.019820322034	93
2	2711	2273.343985137753	94
2	2712	2275.492302338477	95
2	2763	2334.839408564276	96
2	2792	2367.898540264355	97
2	2805	2380.53790496459	98
2	2826	2399.61950890783	99
2	2869	2437.27545586279	100
2	2880	2447.742598415487	101
2	2899	2467.638685612941	102
2	2932	2483.586753756346	103
3	482	355.829589662138	6
3	524	407.023051346512	6
3	529	409.553497076803	6
3	540	418.725967591331	5
3	557	430.625891583044	4
3	564	436.232445273562	3
3	580	451.986862219571	3
3	584	452.241254781419	4
3	590	456.269153484022	5
3	600	462.788085686888	6
3	603	464.858717468704	6
3	615	471.750175842528	6
3	620	477.764407937971	6
3	636	485.838955213216	6
3	637	488.545648945748	6
3	663	519.115936014759	6
3	665	522.251961692532	7
3	671	530.364669045925	8
3	692	562.405287922825	8
3	702	572.603760894772	8
3	709	584.318331770096	8
3	711	587.239462929909	8
3	735	603.134950270608	9
3	743	609.200889985245	10
3	749	610.173953034799	11
3	750	612.613079898594	11
3	752	612.980541173579	11
3	753	614.694073789184	11
3	774	638.168674838776	10
3	786	652.09946073414	10
3	792	654.711139710773	11
3	820	686.391080063499	12
3	833	691.816344941225	12
3	839	702.435029905981	12
3	853	711.955453553369	13
3	857	712.551934658254	14
3	862	719.712597779839	14
3	864	721.347548185523	14
3	890	739.812602447366	15
3	894	744.908658692014	16
3	895	745.981497334433	16
3	896	746.18186325797	15
3	928	772.705257103947	15
3	960	806.13012311482	16
3	967	811.328373091299	16
3	969	811.858998937252	16
3	978	821.586291332345	16
3	991	829.957674924282	15
3	1002	841.008529175137	14
3	1028	863.28509472209	14
3	1032	867.68999344566	15
3	1040	876.537854406773	16
3	1064	893.602110190585	17
3	1074	901.844889125823	18
3	1097	937.363684321791	18
3	1105	948.259548206261	18
3	1112	954.004902587136	18
3	1121	959.236932871357	17
3	1182	1011.888227545592	16
3	1206	1041.233624618206	16
3	1217	1047.357619435143	16
3	1231	1055.755977745646	16
3	1241	1065.018720876321	17
3	1251	1075.275228128681	18
3	1255	1078.450599689527	19
3	1260	1082.510730558332	19
3	1273	1090.072986130857	18
3	1275	1093.025662129838	18
3	1287	1106.189148516697	19
3	1294	1114.960728125999	19
3	1301	1128.376641054133	18
3	1318	1140.186149547369	17
3	1332	1161.606097471778	17
3	1338	1163.578442419488	18
3	1384	1201.575345488697	19
3	1386	1205.21468365384	20
3	1390	1209.074318248075	21
3	1404	1216.39044955247	22
3	1415	1219.535415950776	22
3	1429	1231.062298958818	22
3	1435	1234.247326850965	23
3	1450	1241.835224230513	23
3	1466	1248.342184019664	23
3	1473	1253.268030151366	23
3	1475	1253.386172667756	23
3	1487	1261.957583257431	24
3	1505	1277.467176934737	25
3	1507	1278.936722892472	26
3	1518	1286.689330101164	26
3	1542	1306.576914852068	26
3	1562	1323.736502562113	27
3	1563	1325.525281924117	27
3	1579	1334.919738381796	27
3	1591	1345.193422541783	28
3	1593	1347.404884195096	29
3	1596	1348.192856490756	29
3	1603	1356.401350045183	28
3	1608	1358.827331802788	27
3	1613	1362.91290755567	26
3	1632	1375.778351101956	25
3	1633	1376.832799699227	24
3	1649	1395.880752839439	24
3	1656	1399.103644311106	24
3	1661	1405.086754753875	23
3	1674	1408.152611646712	22
3	1692	1423.878087902705	22
3	1716	1456.975740307744	23
3	1730	1475.209722097707	24
3	1736	1478.042304220319	25
3	1741	1478.759718761024	25
3	1756	1491.043230302501	24
3	1758	1491.383258494281	24
3	1767	1497.702970457773	24
3	1768	1499.243512013088	23
3	1769	1499.310562258379	22
3	1789	1516.479068035088	22
3	1800	1521.234779690014	22
3	1837	1541.136913597428	21
3	1848	1545.696714660316	20
3	1851	1546.560719199887	19
3	1868	1557.257144700711	18
3	1879	1565.679807243304	17
3	1890	1579.379979664579	16
3	1895	1583.461124880439	15
3	1901	1590.50042477963	15
3	1902	1590.635645135921	15
3	1916	1599.013666144167	15
3	1944	1631.434037847915	16
3	1960	1650.493728198422	17
3	1972	1658.593476369919	18
3	1982	1665.372692648625	19
3	1996	1681.278513467016	20
3	1999	1681.659919645404	20
3	2036	1718.396689128534	19
3	2089	1754.526258484457	18
3	2095	1766.04703695457	18
3	2097	1773.520726651988	19
3	2098	1774.561846793233	19
3	2106	1779.875668708269	19
3	2108	1781.162383615031	20
3	2125	1794.780769433452	20
3	2126	1795.446866205119	19
3	2146	1815.390857124158	19
3	2202	1862.080332632237	20
3	2213	1872.888701066565	20
3	2217	1880.381953975635	20
3	2260	1909.73689338141	20
3	2271	1919.537636539046	19
3	2273	1919.782592244217	19
3	2278	1921.983953352576	19
3	2304	1945.274415883366	19
3	2328	1965.142792458315	20
3	2337	1975.962372899992	20
3	2372	2006.295802390682	19
3	2396	2029.457987501145	19
3	2405	2033.752573543485	19
3	2407	2034.339112489427	19
3	2409	2036.288220455867	20
3	2427	2052.514086448142	21
3	2432	2055.412652219759	21
3	2442	2064.672210610458	21
3	2443	2065.474799712299	21
3	2447	2066.987813455407	21
3	2462	2088.333228679758	21
3	2494	2109.822365075834	21
3	2505	2117.604552605776	21
3	2521	2125.829693711752	21
3	2551	2149.756655770248	22
3	2570	2166.274560577084	22
3	2572	2167.166571253802	22
3	2580	2174.916574713006	23
3	2602	2192.895363616005	24
3	2618	2201.892852908397	25
3	2645	2220.992062859604	25
3	2665	2232.882083632135	25
3	2678	2241.019820322034	25
3	2704	2259.340022759345	25
3	2711	2273.343985137753	25
3	2712	2275.492302338477	24
3	2714	2277.162737970621	24
3	2728	2296.648678655655	25
3	2730	2298.575357641728	26
3	2738	2303.500581520958	27
3	2744	2307.262137981784	28
3	2763	2334.839408564276	28
3	2792	2367.898540264355	27
3	2805	2380.53790496459	26
3	2821	2388.40867807511	26
3	2826	2399.61950890783	26
3	2852	2422.686534544323	26
3	2864	2432.913250480392	27
3	2869	2437.27545586279	27
3	2871	2438.546595932053	27
3	2880	2447.742598415487	27
3	2896	2463.754640204455	27
3	2899	2467.638685612941	27
3	2901	2467.837102292445	27
3	2917	2475.119593842137	28
3	2932	2483.586753756346	28
4	482	355.829589662138	151.39248371302
4	529	409.553497076803	191.68778059908
4	540	418.725967591331	191.99904382364
4	557	430.625891583044	142.67445819764
4	564	436.232445273562	134.74548165476
4	603	464.858717468704	158.10614155308
4	620	477.764407937971	157.53716542271
4	637	488.545648945748	81.522597599236
4	692	562.405287922825	110.41842570325
4	709	584.318331770096	132.07707698868
4	750	612.613079898594	156.34392641457
4	753	614.694073789184	151.9059881023
4	774	638.168674838776	166.41849899625
4	833	691.816344941225	205.97738972801
4	862	719.712597779839	200.59666176508
4	895	745.981497334433	223.7295356419
4	896	746.18186325797	215.81719421204
4	967	811.328373091299	238.72461219653
4	978	821.586291332345	234.34682840244
4	991	829.957674924282	226.82272465367
4	1002	841.008529175137	231.80763918989
4	1097	937.363684321791	327.18973128699
4	1112	954.004902587136	341.02436141356
4	1121	959.236932871357	307.13747213722
4	1182	1011.888227545592	357.17708783482
4	1217	1047.357619435143	360.96653937164
4	1260	1082.510730558332	380.07570065235
4	1273	1090.072986130857	378.11753257749
4	1294	1114.960728125999	402.40879346774
4	1301	1128.376641054133	407.02909286861
4	1318	1140.186149547369	400.3735471
4	1415	1219.535415950776	474.62675725876
4	1450	1241.835224230513	469.12996712657
4	1473	1253.268030151366	447.13790703655
4	1518	1286.689330101164	474.83033116391
4	1563	1325.525281924117	462.24018720203
4	1596	1348.192856490756	480.5028630451
4	1603	1356.401350045183	479.86349563841
4	1608	1358.827331802788	465.2252216122
4	1613	1362.91290755567	461.06801842985
4	1632	1375.778351101956	427.51880289569
4	1633	1376.832799699227	335.59917508102
4	1656	1399.103644311106	343.34766656546
4	1661	1405.086754753875	340.06803387755
4	1674	1408.152611646712	332.87738351803
4	1741	1478.759718761024	400.3091190715
4	1756	1491.043230302501	398.01756817266
4	1767	1497.702970457773	391.51382194108
4	1768	1499.243512013088	337.63741454131
4	1769	1499.310562258379	335.73211983889
4	1800	1521.234779690014	319.65943420132
4	1837	1541.136913597428	335.92222994359
4	1848	1545.696714660316	336.62239641224
4	1851	1546.560719199887	330.17026964742
4	1868	1557.257144700711	326.19484574189
4	1879	1565.679807243304	331.43248039234
4	1890	1579.379979664579	331.03779564491
4	1895	1583.461124880439	330.07495221268
4	1902	1590.635645135921	328.67806187849
4	1999	1681.659919645404	404.19274271067
4	2036	1718.396689128534	439.45996623606
4	2089	1754.526258484457	447.94934363239
4	2098	1774.561846793233	450.82534423112
4	2125	1794.780769433452	459.86103105166
4	2126	1795.446866205119	450.25344366334
4	2213	1872.888701066565	525.48381687147
4	2260	1909.73689338141	513.85614054197
4	2271	1919.537636539046	495.65954863634
4	2278	1921.983953352576	465.00821304483
4	2337	1975.962372899992	500.75265080229
4	2372	2006.295802390682	528.25349817036
4	2405	2033.752573543485	542.3693150492
4	2432	2055.412652219759	538.93358418467
4	2443	2065.474799712299	474.97437493267
4	2462	2088.333228679758	489.31956253559
4	2505	2117.604552605776	486.17051475786
4	2570	2166.274560577084	515.78083237866
4	2645	2220.992062859604	562.39858648969
4	2678	2241.019820322034	575.64712767341
4	2711	2273.343985137753	592.06547167074
4	2712	2275.492302338477	509.44526538391
4	2763	2334.839408564276	561.31868191229
4	2792	2367.898540264355	588.02287155609
4	2805	2380.53790496459	599.37552134956
4	2826	2399.61950890783	584.22865178367
4	2869	2437.27545586279	575.19512323055
4	2880	2447.742598415487	567.36064443985
4	2899	2467.638685612941	547.85609336872
4	2932	2483.586753756346	538.31233787298
5	482	355.829589662138	137.96387318442
5	529	409.553497076803	182.82657330911
5	540	418.725967591331	130.77453420592
5	557	430.625891583044	129.13892796425
5	564	436.232445273562	129.47986935794
5	603	464.858717468704	144.63147495345
5	620	477.764407937971	70.741356591459
5	637	488.545648945748	36.558786726177
5	692	562.405287922825	110.16403314141
5	709	584.318331770096	128.04917828607
5	750	612.613079898594	149.82499421171
5	753	614.694073789184	142.94389794666
5	774	638.168674838776	152.32971962556
5	833	691.816344941225	172.70040892647
5	862	719.712597779839	197.46063608731
5	895	745.981497334433	215.61682828851
5	896	746.18186325797	173.5781023632
5	967	811.328373091299	224.08891016139
5	978	821.586291332345	218.45134106174
5	991	829.957674924282	220.75678493904
5	1002	841.008529175137	230.83457614034
5	1097	937.363684321791	324.38314314821
5	1112	954.004902587136	301.905441853
5	1121	959.236932871357	304.52579316058
5	1182	1011.888227545592	325.49714748209
5	1217	1047.357619435143	344.92258952916
5	1260	1082.510730558332	370.55527700496
5	1273	1090.072986130857	377.5210514726
5	1294	1114.960728125999	393.61317994048
5	1301	1128.376641054133	388.56403860677
5	1318	1140.186149547369	395.27749085535
5	1415	1219.535415950776	446.83015884683
5	1450	1241.835224230513	435.70510111569
5	1473	1253.268030151366	441.40903121411
5	1518	1286.689330101164	423.40423537907
5	1563	1325.525281924117	457.83528847846
5	1596	1348.192856490756	471.65500208398
5	1603	1356.401350045183	462.7992398546
5	1608	1358.827331802788	456.98244267696
5	1613	1362.91290755567	414.65335934941
5	1632	1375.778351101956	334.54472648375
5	1633	1376.832799699227	321.07682195358
5	1656	1399.103644311106	334.08492343478
5	1661	1405.086754753875	329.81152662519
5	1674	1408.152611646712	329.70201195718
5	1741	1478.759718761024	385.73405663119
5	1756	1491.043230302501	384.8540817858
5	1767	1497.702970457773	336.09687298599
5	1768	1499.243512013088	335.6650695936
5	1769	1499.310562258379	297.73521676968
5	1800	1521.234779690014	316.02009603617
5	1837	1541.136913597428	332.06259534935
5	1848	1545.696714660316	329.30626510785
5	1851	1546.560719199887	315.49842024107
5	1868	1557.257144700711	323.00981784975
5	1879	1565.679807243304	317.33762322364
5	1890	1579.379979664579	325.99380699682
5	1895	1583.461124880439	321.50354162301
5	1902	1590.635645135921	313.16846820118
5	1999	1681.659919645404	402.72319675293
5	2036	1718.396689128534	411.81977427647
5	2089	1754.526258484457	430.78975592234
5	2098	1774.561846793233	439.64210841144
5	2125	1794.780769433452	449.58734689167
5	2126	1795.446866205119	448.04198201002
5	2213	1872.888701066565	477.00794822713
5	2260	1909.73689338141	485.8588054787
5	2271	1919.537636539046	462.5618962313
5	2278	1921.983953352576	446.77423125487
5	2337	1975.962372899992	497.92006867967
5	2372	2006.295802390682	514.9125438964
5	2405	2033.752573543485	517.2735055084
5	2432	2055.412652219759	464.91222744013
5	2443	2065.474799712299	466.46113356813
5	2462	2088.333228679758	456.89919083184
5	2505	2117.604552605776	467.11082440735
5	2570	2166.274560577084	507.68108420716
5	2645	2220.992062859604	555.61937021098
5	2678	2241.019820322034	559.74130685502
5	2711	2273.343985137753	507.29694818318
5	2712	2275.492302338477	501.97157568649
5	2763	2334.839408564276	554.96373985601
5	2792	2367.898540264355	586.73615664932
5	2805	2380.53790496459	565.14704784043
5	2826	2399.61950890783	537.53917627559
5	2869	2437.27545586279	556.89350188716
5	2880	2447.742598415487	527.96000617127
5	2899	2467.638685612941	522.36426972957
5	2932	2483.586753756346	518.44396129803
6	524	407.023051346512	7
6	580	451.986862219571	4
6	584	452.241254781419	5
6	590	456.269153484022	6
6	600	462.788085686888	7
6	615	471.750175842528	7
6	636	485.838955213216	7
6	663	519.115936014759	7
6	665	522.251961692532	8
6	671	530.364669045925	9
6	702	572.603760894772	9
6	711	587.239462929909	9
6	735	603.134950270608	10
6	743	609.200889985245	11
6	749	610.173953034799	12
6	752	612.980541173579	12
6	786	652.09946073414	11
6	792	654.711139710773	12
6	820	686.391080063499	13
6	839	702.435029905981	13
6	853	711.955453553369	14
6	857	712.551934658254	15
6	864	721.347548185523	15
6	890	739.812602447366	16
6	894	744.908658692014	17
6	928	772.705257103947	16
6	960	806.13012311482	17
6	969	811.858998937252	17
6	1028	863.28509472209	15
6	1032	867.68999344566	16
6	1040	876.537854406773	17
6	1064	893.602110190585	18
6	1074	901.844889125823	19
6	1105	948.259548206261	19
6	1206	1041.233624618206	17
6	1231	1055.755977745646	17
6	1241	1065.018720876321	18
6	1251	1075.275228128681	19
6	1255	1078.450599689527	20
6	1275	1093.025662129838	19
6	1287	1106.189148516697	20
6	1332	1161.606097471778	18
6	1338	1163.578442419488	19
6	1384	1201.575345488697	20
6	1386	1205.21468365384	21
6	1390	1209.074318248075	22
6	1404	1216.39044955247	23
6	1429	1231.062298958818	23
6	1435	1234.247326850965	24
6	1466	1248.342184019664	24
6	1475	1253.386172667756	24
6	1487	1261.957583257431	25
6	1505	1277.467176934737	26
6	1507	1278.936722892472	27
6	1542	1306.576914852068	27
6	1562	1323.736502562113	28
6	1579	1334.919738381796	28
6	1591	1345.193422541783	29
6	1593	1347.404884195096	30
6	1649	1395.880752839439	25
6	1692	1423.878087902705	23
6	1716	1456.975740307744	24
6	1730	1475.209722097707	25
6	1736	1478.042304220319	26
6	1758	1491.383258494281	25
6	1789	1516.479068035088	23
6	1901	1590.50042477963	16
6	1916	1599.013666144167	16
6	1944	1631.434037847915	17
6	1960	1650.493728198422	18
6	1972	1658.593476369919	19
6	1982	1665.372692648625	20
6	1996	1681.278513467016	21
6	2095	1766.04703695457	19
6	2097	1773.520726651988	20
6	2106	1779.875668708269	20
6	2108	1781.162383615031	21
6	2146	1815.390857124158	20
6	2202	1862.080332632237	21
6	2217	1880.381953975635	21
6	2273	1919.782592244217	20
6	2304	1945.274415883366	20
6	2328	1965.142792458315	21
6	2396	2029.457987501145	20
6	2407	2034.339112489427	20
6	2409	2036.288220455867	21
6	2427	2052.514086448142	22
6	2442	2064.672210610458	22
6	2447	2066.987813455407	22
6	2494	2109.822365075834	22
6	2521	2125.829693711752	22
6	2551	2149.756655770248	23
6	2572	2167.166571253802	23
6	2580	2174.916574713006	24
6	2602	2192.895363616005	25
6	2618	2201.892852908397	26
6	2665	2232.882083632135	26
6	2704	2259.340022759345	26
6	2714	2277.162737970621	25
6	2728	2296.648678655655	26
6	2730	2298.575357641728	27
6	2738	2303.500581520958	28
6	2744	2307.262137981784	29
6	2821	2388.40867807511	27
6	2852	2422.686534544323	27
6	2864	2432.913250480392	28
6	2871	2438.546595932053	28
6	2896	2463.754640204455	28
6	2901	2467.837102292445	28
6	2917	2475.119593842137	29
7	2947	2500	0.0124
8	2947	2500	0.0412

