version 2
run factors_calibration_bosses-12-20230303-16:36:28-7699
attr configname factors_calibration_bosses
attr datetime 20230303-16:36:28
attr experiment factors_calibration_bosses
attr inifile omnetpp.ini
attr iterationvars $0=1
attr iterationvarsf 1-
attr measurement $0=1
attr network Network
attr processid 7699
attr repetition 12
attr replication #12
attr resultdir results
attr runnumber 12
attr seedset 12
param *.minion.arrival_mean 2
param *.minion.service_mean 1
param *.boss.arrival_mean 20
param *.boss.service_mean 1
param *.player.recover_rate_x 100
param **.minion.arrival_distribution 0
param **.minion.service_distribution 0
param **.boss.arrival_distribution 0
param **.boss.service_distribution 0

vector 0 Network.player minion_defeated_stat:vector ETV
attr source signal_minion_defeated
vector 1 Network.player minion_jobs_queue_number_stat:vector ETV
attr source signal_minion_jobs_queue_number
vector 2 Network.player minion_response_time_stat:vector ETV
attr source signal_minion_response_time
vector 3 Network.player minion_waiting_time_stat:vector ETV
attr source signal_minion_waiting_time
vector 4 Network.player minion_jobs_number_stat:vector ETV
attr source signal_minion_jobs_number
vector 5 Network.player boss_jobs_number_stat:vector ETV
attr source signal_boss_jobs_number
vector 6 Network.player boss_jobs_queue_number_stat:vector ETV
attr source signal_boss_jobs_queue_number
vector 7 Network.player boss_waiting_time_stat:vector ETV
attr source signal_boss_waiting_time
vector 8 Network.player boss_defeated_stat:vector ETV
attr source signal_boss_defeated
vector 9 Network.player boss_response_time_stat:vector ETV
attr source signal_boss_response_time
vector 10 Network.player minion_recovered_stat:vector ETV
attr source signal_minion_recovered
vector 11 Network.player minion_throughput:vector ETV
attr source signal_minion_throughput
vector 12 Network.player boss_throughput:vector ETV
attr source signal_boss_throughput
0	625	350.075963263564	191
0	626	350.172879408487	192
0	629	351.105992439209	193
0	630	351.387757155058	194
0	636	359.452904057448	195
0	639	360.965902034827	196
0	645	363.884783470501	197
0	648	366.191821302579	198
0	651	366.848342012277	199
0	657	373.253135937257	200
0	662	379.259101310191	201
0	667	380.225317350611	202
0	673	383.479386384943	203
0	676	385.131208753587	204
0	677	385.614206932743	205
0	678	385.752841981053	206
0	681	387.869274643804	207
0	687	389.208076723078	208
0	693	392.957485875755	209
0	702	396.082962093841	210
0	709	397.88976770604	211
0	710	398.565578657971	212
0	711	400.052259323037	213
0	717	401.099033452711	214
0	718	401.605673242909	215
0	719	402.936184678259	216
0	726	404.867469481246	217
0	729	407.865200267679	218
0	730	408.678519127805	219
0	733	409.596037402935	220
0	736	412.259053413042	221
0	741	413.836162300855	222
0	742	414.38712464621	223
0	743	415.752114077288	224
0	746	416.285093384726	225
0	747	416.886613348041	226
0	753	421.161306049307	227
0	761	431.686072203003	228
0	762	433.281419137566	229
0	775	437.008712265834	230
0	776	437.068282596202	231
0	779	438.129041239046	232
0	784	438.959421730351	233
0	785	438.984672994352	234
0	786	439.403040853677	235
0	787	440.306384975738	236
0	788	440.687727113579	237
0	789	440.908557001277	238
0	794	444.680726938061	239
0	795	445.159917268267	240
0	800	446.542526576744	241
0	801	447.231144841741	242
0	804	456.787127681481	243
0	807	459.555070529826	244
0	812	459.867147623394	245
0	815	460.927769198051	246
0	818	463.604856338488	247
0	819	465.074519772295	248
0	824	467.798570265159	249
0	825	468.372306500397	250
0	830	472.590460437415	251
0	831	472.701644480305	252
0	836	480.751042922314	253
0	839	481.364013921512	254
0	840	483.039040904624	255
0	843	485.35666567161	256
0	846	487.144612054328	257
0	857	489.271220322511	258
0	858	489.411445654249	259
0	859	489.595985986534	260
0	860	489.662080161506	261
0	861	490.168739445749	262
0	866	493.445535645766	263
0	867	494.881398558401	264
0	870	497.935930495985	265
0	876	499.10123234169	266
0	879	499.952693787933	267
0	882	501.134012790159	268
0	885	503.701158527668	269
0	890	505.334130607047	270
0	891	505.923305912214	271
0	894	508.997198264576	272
0	897	512.043846098113	273
0	906	516.487810797196	274
0	909	517.55168473649	275
0	912	519.260215219282	276
0	913	519.639941833422	277
0	914	519.780795706869	278
0	915	519.807437641603	279
0	918	523.65958329536	280
0	923	528.675626896873	281
0	924	530.152215503046	282
0	927	531.392179503156	283
0	936	539.008814614306	284
0	937	539.443468439063	285
0	938	540.448663301676	286
0	939	540.736501090347	287
0	942	541.407343884747	288
0	945	543.739774047017	289
0	948	547.802644916601	290
0	951	551.343495486316	291
0	954	552.501615172027	292
0	957	552.778748081456	293
0	964	555.66294259525	294
0	965	556.588056345458	295
0	970	559.078365818546	296
0	973	560.06643539822	297
0	976	561.296139490256	298
0	977	561.543006400691	299
0	978	561.555585313707	300
0	981	562.450620671349	301
0	984	563.19606689654	302
0	987	565.81592771697	303
0	994	568.419937260885	304
0	995	568.705864249458	305
0	996	569.736847282825	306
0	1009	574.879009008694	307
0	1010	576.256094467854	308
0	1011	576.32843568993	309
0	1014	579.857409680324	310
0	1017	581.985700782881	311
0	1022	584.377913188453	312
0	1023	584.525576369087	313
0	1026	586.363326454339	314
0	1029	591.606832993966	315
0	1032	592.64040345466	316
0	1037	596.738635509125	317
0	1038	596.855473905725	318
0	1041	599.270204858203	319
0	1044	601.498510733855	320
0	1047	606.462673441896	321
0	1050	609.042501087946	322
0	1055	611.610093891354	323
0	1058	612.279553014047	324
0	1059	612.780129084967	325
0	1068	615.261339305508	326
0	1069	615.582282210498	327
0	1070	615.899148676215	328
0	1071	616.181784272502	329
0	1077	621.702754892092	330
0	1080	623.212273685841	331
0	1083	624.127760939108	332
0	1091	632.177403648068	333
0	1094	633.436437129715	334
0	1095	633.576224205636	335
0	1100	636.486768452602	336
0	1101	636.865698097978	337
0	1104	639.260106263412	338
0	1107	639.601929506771	339
0	1110	640.377027938997	340
0	1116	646.875782278631	341
0	1119	647.426345810154	342
0	1125	656.121443539547	343
0	1131	657.889755742471	344
0	1134	660.367457125266	345
0	1139	662.774869366921	346
0	1142	663.945715594396	347
0	1143	664.607491745469	348
0	1146	668.139763945664	349
0	1162	676.526408220202	350
0	1163	677.094538034384	351
0	1166	679.513518916881	352
0	1167	679.542134822453	353
0	1168	680.549568100739	354
0	1173	681.665368033215	355
0	1176	682.49916197958	356
0	1177	683.93379320166	357
0	1178	684.977123887778	358
0	1183	687.125185794472	359
0	1184	689.777252015828	360
0	1185	690.332724734687	361
0	1190	696.680627020078	362
0	1193	698.376420319396	363
0	1194	698.380445239816	364
0	1197	703.187076775952	365
0	1200	705.6909368392	366
0	1207	706.825939995795	367
0	1214	709.330569642531	368
0	1219	712.187356925457	369
0	1220	713.120194538451	370
0	1221	713.239017189665	371
0	1222	713.76086775173	372
0	1233	718.987672866694	373
0	1238	720.476544790595	374
0	1239	720.540530037181	375
0	1240	721.070876247619	376
0	1241	721.364265515205	377
0	1242	721.857092552332	378
0	1245	725.465561570159	379
0	1248	732.2124965947	380
0	1251	736.580481306889	381
0	1259	739.245714478858	382
0	1260	739.911432962399	383
0	1263	742.740846320683	384
0	1269	749.971760400433	385
0	1272	751.781354791158	386
0	1278	756.893042011237	387
0	1283	758.50359249254	388
0	1284	758.983018673671	389
0	1287	762.588318173597	390
0	1290	763.459958058975	391
0	1297	765.195213432166	392
0	1298	765.44003687176	393
0	1301	766.920315649432	394
0	1302	768.341326921776	395
0	1305	771.822977349791	396
0	1311	777.236028009923	397
0	1314	781.32946132699	398
0	1317	783.347859046141	399
0	1324	786.726752285737	400
0	1327	787.963580360902	401
0	1328	788.107325811594	402
0	1333	790.079734222886	403
0	1343	792.680560009853	404
0	1344	793.250264858958	405
0	1347	795.880097691768	406
0	1348	799.001146453913	407
0	1349	799.356429137928	408
0	1350	799.831393490691	409
0	1353	802.835949452985	410
0	1356	807.560011539276	411
0	1359	811.264011736509	412
0	1362	813.691896814687	413
0	1367	814.920844027644	414
0	1368	815.350529849003	415
0	1371	816.143910307631	416
0	1387	824.547076682969	417
0	1392	824.900492801781	418
0	1393	826.175681050628	419
0	1400	829.000334220074	420
0	1401	829.094226397894	421
0	1402	829.17635534451	422
0	1403	829.565569641594	423
0	1404	830.430448003774	424
0	1405	830.460929519832	425
0	1406	831.509302729441	426
0	1407	831.97510125023	427
0	1410	834.541049618014	428
0	1415	835.691182280266	429
0	1416	835.925642101444	430
0	1432	839.858886181812	431
0	1433	843.068321075084	432
0	1434	844.111885731293	433
0	1435	844.419925557107	434
0	1436	844.434811371517	435
0	1437	844.990542951756	436
0	1440	845.617333634168	437
0	1450	851.201792280476	438
0	1451	851.980835527832	439
0	1452	852.872106534022	440
0	1457	853.596804455108	441
0	1458	853.659946682299	442
0	1461	854.712378604028	443
0	1470	862.630576146928	444
0	1471	862.803696935965	445
0	1472	863.223076755779	446
0	1475	863.583357529218	447
0	1476	864.080740718966	448
0	1479	869.698295683315	449
0	1484	873.79353344956	450
0	1485	874.467928848762	451
0	1488	876.312412457734	452
0	1491	878.243388370746	453
0	1494	882.100504801427	454
0	1497	886.750685376176	455
0	1500	894.056746830631	456
0	1509	895.188509474157	457
0	1512	896.867660452473	458
0	1517	897.819796895771	459
0	1523	899.189800197744	460
0	1531	901.68491229235	461
0	1532	902.76284371132	462
0	1537	904.924059741822	463
0	1538	906.149664532027	464
0	1541	908.773449348056	465
0	1542	909.860191450754	466
0	1543	910.01388167722	467
0	1544	911.958179199485	468
0	1545	913.295263788134	469
0	1566	921.714204112125	470
0	1567	924.460060428351	471
0	1568	926.0549468414	472
0	1569	926.085871968024	473
0	1570	926.301973912794	474
0	1571	926.434430605478	475
0	1572	929.167320486635	476
0	1575	929.282066493108	477
0	1580	930.781550037464	478
0	1581	931.146613356667	479
0	1584	932.163439774746	480
0	1587	937.057432093576	481
0	1590	940.972316144036	482
0	1593	941.401772221697	483
0	1607	948.173903777814	484
0	1610	948.548459289044	485
0	1611	948.819711707841	486
0	1614	953.322570176133	487
0	1617	956.580118687964	488
0	1620	961.486671711359	489
0	1623	962.557124391524	490
0	1626	963.956539636928	491
0	1629	964.204064432807	492
0	1638	974.524547799548	493
0	1641	974.763328513683	494
0	1644	975.119904821855	495
0	1650	977.861888120049	496
0	1651	977.998321474671	497
0	1652	979.763526332042	498
0	1653	980.305161956683	499
0	1656	982.346503158675	500
0	1664	987.28627393931	501
0	1667	987.97661513161	502
0	1668	989.025080644749	503
0	1679	994.696961326158	504
0	1680	994.911422820963	505
0	1683	999.562397100646	506
0	1688	1002.325307481576	507
0	1691	1003.126715246901	508
0	1692	1003.227047228052	509
0	1695	1004.32722155097	510
0	1698	1008.207670391658	511
0	1707	1011.409182877186	512
0	1708	1011.561622518104	513
0	1709	1011.738164340784	514
0	1712	1014.457137694485	515
0	1717	1017.364955222673	516
0	1718	1017.67905689714	517
0	1719	1017.925912369431	518
0	1722	1020.667848696212	519
0	1731	1025.941370668167	520
0	1734	1030.091735645402	521
0	1735	1030.137267376436	522
0	1738	1030.827523159117	523
0	1739	1030.918761707092	524
0	1747	1032.616387171539	525
0	1750	1033.524218991388	526
0	1751	1033.547474621169	527
0	1752	1033.986655772313	528
0	1760	1036.047849980766	529
0	1761	1036.846659741819	530
0	1764	1038.204615427477	531
0	1769	1041.82170798755	532
0	1770	1041.859213636691	533
0	1773	1043.737427255265	534
0	1776	1045.892904735233	535
0	1783	1049.073620152659	536
0	1787	1051.511517929919	537
0	1788	1051.844513676995	538
0	1791	1058.482191867259	539
0	1800	1065.71496649999	540
0	1801	1067.150545726524	541
0	1802	1067.747893939572	542
0	1803	1069.03574289156	543
0	1806	1070.367034625182	544
0	1809	1073.351529430572	545
0	1812	1075.39947326204	546
0	1815	1077.540965501727	547
0	1818	1079.533780403668	548
0	1821	1079.822238249306	549
0	1826	1083.825066790015	550
0	1827	1084.001386158992	551
0	1830	1084.253852371967	552
0	1833	1085.015740801321	553
0	1836	1085.89973296751	554
0	1839	1087.36107387768	555
0	1842	1091.012287455971	556
0	1845	1094.054896517655	557
0	1848	1097.734461034274	558
0	1853	1098.803372963052	559
0	1854	1098.849970649238	560
0	1859	1099.793897418474	561
0	1860	1100.583526388512	562
0	1863	1101.375135207738	563
0	1871	1104.717535163099	564
0	1876	1105.996702227646	565
0	1877	1106.464988233196	566
0	1878	1106.869611877383	567
0	1883	1109.448697287411	568
0	1884	1110.791842182778	569
0	1887	1116.00586476149	570
0	1890	1119.658999856934	571
0	1893	1119.946641881964	572
0	1898	1122.270640935284	573
0	1899	1123.566828983203	574
0	1905	1128.730685856284	575
0	1910	1133.759280362664	576
0	1913	1134.699094083934	577
0	1916	1134.76171135964	578
0	1917	1136.528503808251	579
0	1922	1142.262863632444	580
0	1925	1145.001561023146	581
0	1930	1147.142248676309	582
0	1931	1147.169203145957	583
0	1932	1147.174647155079	584
0	1941	1151.001304287372	585
0	1942	1152.587134242305	586
0	1945	1153.034537165783	587
0	1948	1154.818571450508	588
0	1951	1155.661186264581	589
0	1954	1155.969741096749	590
0	1957	1157.266642922133	591
0	1966	1159.093772781004	592
0	1967	1161.465440513943	593
0	1968	1161.924267282548	594
0	1969	1162.1941290142	595
0	1972	1162.916706421239	596
0	1973	1163.566989450684	597
0	1974	1164.098067298725	598
0	1977	1166.429000874933	599
0	1984	1168.983803030575	600
0	1985	1169.822216944029	601
0	1986	1170.896817296977	602
0	1989	1175.429985771609	603
0	1994	1178.967849777238	604
0	1995	1179.300132696382	605
0	2008	1186.261731456357	606
0	2009	1186.839864760365	607
0	2010	1187.409129055531	608
0	2015	1192.735283885772	609
0	2018	1193.65352722934	610
0	2021	1194.345497671909	611
0	2022	1194.553195392483	612
0	2025	1195.763639603578	613
0	2030	1197.156971373749	614
0	2033	1197.763184192474	615
0	2034	1197.862839334008	616
0	2037	1200.820202222996	617
0	2044	1206.789494809742	618
0	2045	1207.146228711863	619
0	2046	1207.695146696557	620
0	2052	1210.112018958327	621
0	2055	1212.668889441041	622
0	2060	1219.879528172979	623
0	2061	1219.948201778587	624
0	2064	1220.901655704864	625
0	2067	1224.834610718701	626
0	2072	1226.075440192503	627
0	2073	1228.195979474133	628
0	2078	1231.534336657402	629
0	2079	1232.280540945627	630
0	2082	1234.888306985733	631
0	2092	1238.719496793273	632
0	2095	1239.769868781909	633
0	2098	1241.90409039196	634
0	2099	1242.661044121037	635
0	2100	1243.318339406951	636
0	2105	1245.654773765363	637
0	2106	1245.698691164206	638
0	2109	1247.053943357758	639
0	2112	1249.335821123111	640
0	2115	1250.63819063789	641
0	2118	1254.489070131299	642
0	2121	1255.191800880641	643
0	2126	1258.717214089151	644
0	2127	1259.052736046606	645
0	2145	1267.072280629368	646
0	2146	1267.218528251716	647
0	2155	1268.357770939257	648
0	2171	1275.671487218751	649
0	2176	1276.686889955457	650
0	2177	1276.927318686347	651
0	2178	1279.162466469966	652
0	2179	1279.625092392168	653
0	2182	1280.538695294902	654
0	2189	1282.498476577636	655
0	2190	1282.850316669624	656
0	2191	1282.873600269614	657
0	2192	1283.905950938112	658
0	2193	1284.811522183089	659
0	2194	1284.876665139875	660
0	2195	1285.239539750264	661
0	2196	1286.255888334909	662
0	2199	1287.416161961996	663
0	2200	1288.646873323926	664
0	2201	1289.63779814498	665
0	2202	1289.983211662128	666
0	2205	1291.703786829016	667
0	2210	1295.837359374068	668
0	2211	1297.915161731504	669
0	2214	1299.155921535725	670
0	2217	1300.140514650894	671
0	2220	1304.417085544455	672
0	2225	1305.503906536181	673
0	2228	1308.602271456088	674
0	2231	1309.722173935834	675
0	2232	1309.981199109127	676
0	2235	1312.125336758519	677
0	2238	1318.590038061845	678
0	2245	1323.764263561144	679
0	2246	1323.782297203158	680
0	2247	1324.307624035856	681
0	2252	1328.094736362632	682
0	2253	1328.129346122841	683
0	2256	1330.921429424345	684
0	2259	1334.07297291578	685
0	2269	1336.675207764951	686
0	2270	1340.384626910498	687
0	2271	1340.460297852068	688
0	2274	1341.84052825774	689
0	2280	1348.173752482655	690
0	2283	1350.181039946191	691
0	2291	1355.110559797672	692
0	2292	1355.32091474589	693
0	2295	1357.01851187827	694
0	2298	1360.497249030027	695
0	2301	1362.893080038197	696
0	2304	1363.463119988692	697
0	2309	1365.363898064686	698
0	2314	1372.10490140864	699
0	2315	1372.303210391147	700
0	2322	1374.500574043241	701
0	2326	1376.751778071535	702
0	2329	1377.147865795977	703
0	2330	1379.429237843704	704
0	2331	1379.63887434599	705
0	2336	1383.045474874072	706
0	2339	1385.972069223235	707
0	2340	1386.139925406812	708
0	2343	1390.763981009923	709
0	2346	1392.382779524037	710
0	2351	1397.61096907228	711
0	2357	1399.508085673154	712
0	2364	1402.235794000971	713
0	2365	1402.48480783188	714
0	2368	1402.704852793444	715
0	2376	1407.398350637162	716
0	2377	1407.53450689742	717
0	2380	1409.92144927932	718
0	2383	1411.057004662586	719
0	2384	1411.16215452735	720
0	2385	1412.579256951773	721
0	2388	1416.355738590737	722
0	2391	1419.221595008027	723
0	2394	1420.740934930524	724
0	2397	1422.17884906983	725
0	2400	1423.590488482519	726
0	2411	1433.34144948702	727
0	2412	1433.54865235423	728
0	2415	1435.018004248187	729
0	2420	1439.35432953694	730
0	2421	1439.387826078193	731
0	2424	1440.18566586876	732
0	2427	1447.288527468558	733
0	2430	1448.006711504591	734
0	2440	1451.363009710161	735
0	2441	1451.483684197865	736
0	2442	1452.216580755367	737
0	2445	1455.097813313419	738
0	2448	1456.869681201808	739
0	2451	1458.203928546281	740
0	2454	1459.04752598785	741
0	2457	1460.738584361156	742
0	2464	1466.782091551533	743
0	2465	1467.239133909302	744
0	2466	1467.543149202588	745
0	2469	1472.478768265138	746
0	2474	1478.49635138147	747
0	2477	1479.604106295095	748
0	2478	1480.037810414166	749
0	2481	1481.377913376441	750
0	2484	1484.582940974196	751
0	2489	1487.40383047654	752
0	2490	1487.569896063268	753
0	2493	1488.901269548478	754
0	2496	1490.879270582585	755
0	2504	1496.751272414639	756
0	2505	1496.883805873548	757
0	2511	1500.75405708828	758
0	2516	1502.800265684662	759
0	2523	1503.950197054951	760
0	2526	1505.608822867569	761
0	2527	1505.982992990739	762
0	2530	1507.937424907204	763
0	2531	1509.023058561494	764
0	2532	1509.592689599623	765
0	2537	1516.121483755058	766
0	2540	1518.226356337415	767
0	2541	1518.57843011435	768
0	2544	1520.418791607275	769
0	2549	1523.028429317887	770
0	2557	1525.158633246812	771
0	2558	1527.149140000287	772
0	2559	1529.34557456105	773
0	2566	1534.142814867507	774
0	2567	1534.62466935854	775
0	2568	1534.685860532819	776
0	2573	1539.889310174379	777
0	2578	1542.796765562279	778
0	2579	1544.227917805002	779
0	2580	1544.275077152289	780
0	2590	1547.903085325549	781
0	2591	1550.039943045429	782
0	2596	1553.193384375648	783
0	2597	1554.450470347415	784
0	2598	1554.623846795154	785
0	2601	1558.938676773653	786
0	2604	1561.135675306285	787
0	2609	1563.111235578141	788
0	2612	1563.671511476761	789
0	2615	1564.373355760783	790
0	2616	1564.601615421715	791
0	2619	1565.743978680165	792
0	2622	1574.507558271132	793
0	2631	1577.671302463392	794
0	2634	1578.023779937645	795
0	2635	1578.027274197533	796
0	2636	1578.105567407209	797
0	2639	1578.622524739752	798
0	2640	1578.949465686221	799
0	2643	1579.723983216581	800
0	2646	1582.115311903915	801
0	2649	1583.636647834071	802
0	2652	1586.711966414141	803
0	2655	1587.053940088069	804
0	2658	1589.287571974429	805
0	2661	1590.260324639607	806
0	2664	1590.552019371919	807
0	2667	1595.349711590894	808
0	2670	1597.5044900598	809
0	2676	1602.80107829614	810
0	2679	1604.028368543002	811
0	2682	1605.602451451446	812
0	2689	1610.081505515621	813
0	2690	1611.198279620802	814
0	2691	1611.918886270713	815
0	2696	1614.306689380894	816
0	2697	1614.446371602173	817
0	2702	1615.517677169763	818
0	2703	1615.726204750675	819
0	2710	1621.590302234571	820
0	2713	1623.273575613122	821
0	2714	1624.026433951922	822
0	2715	1625.961044955171	823
0	2718	1628.541363443692	824
0	2721	1635.249900833693	825
0	2724	1637.778282623004	826
0	2727	1639.908844685216	827
0	2733	1642.911581322897	828
0	2744	1647.240309554271	829
0	2747	1648.502314433671	830
0	2748	1648.577117636633	831
0	2749	1649.348479149243	832
0	2752	1649.553937365409	833
0	2755	1650.977503375117	834
0	2756	1652.03250579174	835
0	2759	1655.419738946137	836
0	2760	1657.152357473295	837
0	2767	1659.247723938068	838
0	2768	1659.385465935125	839
0	2769	1660.324851081298	840
0	2778	1667.961470419697	841
0	2781	1668.35512367576	842
0	2784	1669.558843105369	843
0	2785	1670.83045604901	844
0	2786	1672.305079291787	845
0	2789	1673.106921923244	846
0	2796	1677.823176056828	847
0	2799	1678.169084196955	848
0	2804	1679.797806093587	849
0	2805	1681.004153363985	850
0	2806	1681.399134544496	851
0	2807	1681.479436586643	852
0	2808	1682.868258910234	853
0	2811	1683.275924270152	854
0	2814	1685.778145437856	855
0	2819	1690.865606664337	856
0	2822	1691.979391743027	857
0	2823	1692.794838133936	858
0	2826	1697.152090095899	859
0	2829	1700.732133539918	860
0	2832	1706.173579767369	861
0	2835	1711.58216100137	862
0	2840	1714.810905636143	863
0	2841	1717.94551638519	864
0	2844	1722.304555704357	865
0	2847	1727.34824425339	866
0	2850	1727.798671655116	867
0	2853	1732.127640776583	868
0	2856	1733.430277338965	869
0	2862	1742.266911189939	870
0	2865	1742.984688108967	871
0	2870	1744.099154203643	872
0	2871	1744.476167585388	873
0	2876	1747.819388898715	874
0	2877	1747.964455199741	875
0	2880	1749.40995869506	876
0	2885	1750.962198704744	877
0	2890	1751.275991870836	878
0	2891	1753.007069975797	879
0	2894	1756.756370259185	880
0	2895	1756.950937457872	881
0	2898	1757.24115453341	882
0	2901	1762.41434005111	883
0	2904	1763.422236548611	884
0	2907	1764.663010559063	885
0	2910	1765.551053763628	886
0	2918	1769.425035652199	887
0	2921	1770.643471541288	888
0	2924	1771.248306618822	889
0	2927	1771.834478263528	890
0	2930	1772.558777637956	891
0	2931	1773.70884722718	892
0	2936	1776.522876990929	893
0	2937	1776.998053054955	894
0	2940	1777.255307226421	895
0	2943	1779.676277464272	896
0	2946	1780.563951746505	897
0	2949	1782.322845345674	898
0	2952	1787.97247617869	899
0	2955	1789.394721665996	900
0	2958	1790.2043584238	901
0	2963	1793.039589725921	902
0	2964	1793.681846226418	903
0	2969	1797.780598898172	904
0	2972	1800.243260756543	905
0	2973	1801.003466139566	906
0	2982	1806.253788143611	907
0	2983	1806.557218318844	908
0	2986	1807.467448630843	909
0	2987	1808.143773712045	910
0	2992	1810.539537317417	911
0	2993	1811.535021994715	912
0	2994	1811.932495203063	913
0	2997	1814.016212929577	914
0	3000	1817.572884752473	915
0	3005	1820.58989762667	916
0	3019	1826.325813778268	917
0	3022	1827.233773793713	918
0	3023	1827.467949143543	919
0	3026	1828.418721969952	920
0	3027	1828.85647264106	921
0	3030	1830.019842424306	922
0	3031	1830.788396094013	923
0	3032	1831.008377990002	924
0	3033	1831.674841156644	925
0	3036	1833.285029068173	926
0	3042	1834.128376058879	927
0	3045	1837.125104912545	928
0	3048	1837.783008804809	929
0	3056	1838.494575304298	930
0	3061	1840.370520156459	931
0	3064	1841.253740463225	932
0	3065	1841.975082226705	933
0	3068	1842.562519019771	934
0	3069	1844.055790893251	935
0	3072	1845.089504049767	936
0	3079	1846.948689166817	937
0	3080	1847.073177619194	938
0	3081	1847.483449237694	939
0	3084	1849.231052872658	940
0	3091	1851.187602886622	941
0	3092	1852.086811905758	942
0	3093	1852.111822415344	943
0	3096	1855.931826651636	944
0	3101	1857.019894402129	945
0	3102	1857.14160471502	946
0	3105	1858.264776993086	947
0	3108	1861.788087444438	948
0	3113	1865.285239008191	949
0	3116	1866.279048045389	950
0	3117	1866.821645876651	951
0	3120	1867.457909054574	952
0	3123	1871.499102598169	953
0	3126	1876.4873751406	954
0	3131	1881.875015741411	955
0	3132	1882.255385854999	956
0	3142	1888.295655023612	957
0	3145	1888.664918058907	958
0	3146	1890.753928328897	959
0	3147	1890.849757668791	960
0	3153	1891.531254009005	961
0	3158	1894.889674183061	962
0	3159	1895.610596511754	963
0	3162	1900.638599701441	964
0	3165	1904.47451173468	965
0	3168	1906.269777134157	966
0	3171	1906.605074391375	967
0	3174	1907.523043424719	968
0	3177	1908.099688379821	969
0	3186	1912.33353556268	970
0	3187	1912.380584841421	971
0	3188	1912.499862192798	972
0	3189	1913.993668829509	973
0	3192	1914.98130037352	974
0	3195	1916.21513525609	975
0	3209	1924.542897516527	976
0	3210	1924.901554396624	977
0	3211	1925.831484557939	978
0	3218	1928.658076675604	979
0	3219	1930.597492317537	980
0	3222	1932.389941142019	981
0	3223	1932.686223098337	982
0	3224	1936.09550198335	983
0	3225	1936.944180498332	984
0	3228	1944.849833301181	985
0	3231	1949.181424463313	986
0	3236	1952.434323646811	987
0	3237	1954.079030854738	988
0	3240	1957.397787345699	989
0	3243	1964.3418470749	990
0	3249	1970.332431471484	991
0	3256	1971.942632801689	992
0	3259	1974.911990028988	993
0	3266	1975.608621455434	994
0	3267	1978.529473533045	995
0	3268	1978.562816533053	996
0	3271	1979.532175206113	997
0	3272	1980.236269250639	998
0	3275	1981.625998587693	999
0	3278	1982.458151797885	1000
0	3283	1984.208020352735	1001
0	3284	1984.209989606004	1002
0	3287	1984.561149194663	1003
0	3288	1985.408947598935	1004
0	3291	1987.359765386536	1005
0	3300	1992.121883735583	1006
0	3306	1994.646878035212	1007
0	3307	1995.319911332745	1008
0	3308	1996.668547739858	1009
0	3309	1996.800378520274	1010
0	3314	1999.845004397698	1011
0	3315	2000.459740097347	1012
0	3320	2001.658583861099	1013
0	3323	2003.040375946248	1014
0	3324	2003.701878515698	1015
0	3327	2005.119096717466	1016
0	3336	2011.241544633758	1017
0	3339	2012.514800879659	1018
0	3345	2015.817853772722	1019
0	3348	2016.367353745426	1020
0	3351	2017.222169972936	1021
0	3358	2023.528531002898	1022
0	3359	2023.856174166734	1023
0	3360	2024.005176205087	1024
0	3363	2024.570715813634	1025
0	3366	2028.369812167694	1026
0	3369	2029.206435032785	1027
0	3372	2030.015567533943	1028
0	3377	2030.886060273815	1029
0	3378	2031.244821259616	1030
0	3381	2033.119138922809	1031
0	3384	2034.434662025828	1032
0	3387	2038.633795439096	1033
0	3390	2039.351932996994	1034
0	3403	2042.581403114603	1035
0	3404	2042.699402407767	1036
0	3405	2042.739917085697	1037
0	3406	2042.769232011142	1038
0	3411	2043.767388732772	1039
0	3414	2046.071087398386	1040
0	3415	2046.393773196934	1041
0	3420	2048.864474504499	1042
0	3421	2049.783678828019	1043
0	3422	2050.958305814054	1044
0	3423	2051.300395246092	1045
0	3426	2052.838083033533	1046
0	3431	2055.82980132395	1047
0	3432	2056.524082619568	1048
0	3435	2058.272527395347	1049
0	3440	2059.15135034354	1050
0	3441	2061.031056512681	1051
0	3451	2065.922400667153	1052
0	3456	2066.490586865704	1053
0	3457	2066.779511747054	1054
0	3458	2067.113903775189	1055
0	3459	2068.959459272924	1056
0	3462	2069.319497527676	1057
0	3468	2072.300228599104	1058
0	3471	2073.762868913936	1059
0	3474	2076.062993164992	1060
0	3477	2078.377945929442	1061
0	3480	2078.846213527396	1062
0	3490	2084.863243379576	1063
0	3495	2086.90658718418	1064
0	3496	2087.703327398774	1065
0	3501	2088.834706266703	1066
0	3502	2088.889564364602	1067
0	3503	2089.085732088687	1068
0	3508	2091.338139717743	1069
0	3509	2092.85439865876	1070
0	3510	2093.220003329591	1071
0	3513	2095.409070061287	1072
0	3520	2098.270187932481	1073
0	3523	2099.04640079295	1074
0	3524	2099.086963375305	1075
0	3534	2104.736563505442	1076
0	3537	2105.295550152427	1077
0	3538	2108.242072731531	1078
0	3539	2108.707841560394	1079
0	3542	2109.973319384059	1080
0	3552	2113.652169424553	1081
0	3553	2114.101468535221	1082
0	3554	2114.137551959096	1083
0	3557	2114.514211729403	1084
0	3562	2116.259478948796	1085
0	3563	2116.361622778211	1086
0	3564	2116.406233418058	1087
0	3567	2117.238913447986	1088
0	3572	2117.713323879559	1089
0	3573	2117.857865669975	1090
0	3576	2120.109436731435	1091
0	3579	2121.988317958685	1092
0	3585	2128.15871540597	1093
0	3588	2128.8246222194	1094
0	3591	2131.954676883773	1095
0	3596	2136.987797404585	1096
0	3599	2137.773588741112	1097
0	3600	2140.936180950882	1098
0	3603	2141.833722044248	1099
0	3613	2149.114663176723	1100
0	3616	2149.558020034377	1101
0	3617	2150.123095931963	1102
0	3618	2150.202775383705	1103
0	3628	2151.622581048789	1104
0	3629	2151.879840967012	1105
0	3632	2153.664529747283	1106
0	3633	2154.191110992636	1107
0	3642	2159.91465755094	1108
0	3643	2160.491455389439	1109
0	3644	2160.954023391887	1110
0	3645	2161.208898886382	1111
0	3648	2162.942731895823	1112
0	3654	2166.678655699037	1113
0	3657	2170.324640216084	1114
0	3660	2171.088523634767	1115
0	3663	2172.309704774951	1116
0	3666	2172.487997997785	1117
0	3671	2173.69147172488	1118
0	3672	2175.409816631064	1119
0	3675	2190.937267614423	1120
0	3678	2192.143048194098	1121
0	3681	2200.690276575995	1122
0	3686	2207.406502380588	1123
0	3687	2207.509532813551	1124
0	3690	2208.517112275068	1125
0	3693	2210.231245071507	1126
0	3705	2214.802276888164	1127
0	3706	2216.495232832879	1128
0	3707	2216.526657463024	1129
0	3715	2218.761262872031	1130
0	3724	2222.505320234903	1131
0	3727	2223.431218338277	1132
0	3728	2223.436329437727	1133
0	3729	2223.571534823775	1134
0	3730	2224.562767697556	1135
0	3731	2226.011499697926	1136
0	3734	2227.184025786384	1137
0	3737	2228.752551998861	1138
0	3738	2229.001120734038	1139
0	3745	2232.324692712549	1140
0	3746	2234.992506230307	1141
0	3747	2236.934565731114	1142
0	3750	2239.201448773686	1143
0	3753	2240.602498586389	1144
0	3758	2245.806808592988	1145
0	3759	2245.937044130258	1146
0	3762	2248.092928219906	1147
0	3767	2252.41138730533	1148
0	3768	2253.304905596322	1149
0	3771	2255.03491738463	1150
0	3774	2256.675158014413	1151
0	3779	2262.12599103259	1152
0	3780	2262.521381855948	1153
0	3783	2263.057463608467	1154
0	3786	2264.176042657292	1155
0	3793	2265.767383778311	1156
0	3794	2266.127834622799	1157
0	3795	2266.406516008291	1158
0	3798	2274.482443572172	1159
0	3808	2281.601303618282	1160
0	3811	2282.06432324172	1161
0	3814	2283.786826044729	1162
0	3815	2283.821668131505	1163
0	3816	2284.32494889634	1164
0	3819	2286.958773796067	1165
0	3822	2289.761224270187	1166
0	3825	2289.990132957383	1167
0	3830	2293.902969808445	1168
0	3831	2293.976649928164	1169
0	3834	2295.183404121534	1170
0	3837	2301.666220737876	1171
0	3850	2306.415752494044	1172
0	3853	2309.290528492562	1173
0	3858	2310.4544621924	1174
0	3859	2311.871645859787	1175
0	3860	2311.921780344493	1176
0	3864	2314.791442343708	1177
0	3865	2315.909029299218	1178
0	3866	2316.486707121072	1179
0	3873	2320.300691742473	1180
0	3874	2320.630644496433	1181
0	3875	2321.568908284707	1182
0	3876	2323.218830698551	1183
0	3881	2336.717314916609	1184
0	3882	2337.091019759829	1185
0	3885	2338.270979766498	1186
0	3888	2344.560870712916	1187
0	3891	2346.32205456529	1188
0	3896	2350.042533680799	1189
0	3897	2350.729923704327	1190
0	3900	2351.56789982165	1191
0	3905	2352.647167647443	1192
0	3906	2352.697527934707	1193
0	3911	2355.03191995706	1194
0	3912	2355.322847679759	1195
0	3915	2361.53254886066	1196
0	3922	2362.225422170292	1197
0	3923	2362.289973130003	1198
0	3924	2362.943709115275	1199
0	3927	2368.157668933629	1200
0	3934	2373.249753275211	1201
0	3939	2375.517975556433	1202
0	3940	2377.074154360147	1203
0	3941	2378.976827853775	1204
0	3942	2379.033973074285	1205
0	3945	2381.070719846699	1206
0	3948	2383.583504503042	1207
0	3951	2385.018583995861	1208
0	3954	2385.930999761632	1209
0	3957	2386.231768996276	1210
0	3960	2389.540379760292	1211
0	3963	2395.641839550219	1212
0	3974	2400.747642666385	1213
0	3975	2401.737572341122	1214
0	3978	2403.840841192961	1215
0	3981	2404.099399510721	1216
0	3984	2406.462964549392	1217
0	3993	2412.3318171496	1218
0	3994	2412.369510014293	1219
0	3997	2413.245125713785	1220
0	4003	2416.28485670914	1221
0	4004	2416.724035762309	1222
0	4005	2416.939167347224	1223
0	4008	2418.210228520299	1224
0	4011	2419.693142408285	1225
0	4017	2421.77022744047	1226
0	4020	2426.468651879933	1227
0	4025	2431.566487631911	1228
0	4028	2431.967165263592	1229
0	4029	2432.986984250091	1230
0	4040	2435.031122055114	1231
0	4041	2435.260093440303	1232
0	4052	2441.229150195457	1233
0	4053	2442.283222819439	1234
0	4056	2443.459252559842	1235
0	4057	2444.019516416853	1236
0	4058	2444.790016189729	1237
0	4059	2445.461943706106	1238
0	4060	2445.686087161974	1239
0	4061	2446.544657205304	1240
0	4062	2447.949931796087	1241
0	4069	2449.217858300909	1242
0	4070	2449.553800703265	1243
0	4077	2451.327882900328	1244
0	4078	2452.316832899809	1245
0	4079	2452.570959985943	1246
0	4080	2452.829551089077	1247
0	4083	2455.30866808027	1248
0	4086	2460.347563748565	1249
0	4089	2463.025327274567	1250
0	4098	2466.566659120445	1251
0	4099	2466.636583570825	1252
0	4100	2466.672536180585	1253
0	4103	2467.614995310614	1254
0	4104	2467.991590522546	1255
0	4107	2469.467038534314	1256
0	4112	2472.077220005419	1257
0	4113	2472.181066956918	1258
0	4118	2477.504796673721	1259
0	4119	2477.660584393192	1260
0	4122	2478.73980087023	1261
0	4127	2479.851954677164	1262
0	4130	2481.247708994694	1263
0	4135	2482.158650768634	1264
0	4136	2482.318041641967	1265
0	4137	2482.725814201901	1266
0	4140	2485.908281168798	1267
0	4143	2488.407530304038	1268
0	4146	2488.832852936113	1269
0	4159	2493.773075311663	1270
0	4160	2495.237387533368	1271
0	4161	2495.267222913612	1272
0	4166	2497.318346911053	1273
0	4167	2497.464141641736	1274
0	4170	2497.807502983113	1275
0	4175	2499.20085045939	1276
1	625	350.075963263564	2
1	626	350.172879408487	1
1	628	350.563008340612	1
1	629	351.105992439209	1
1	630	351.387757155058	0
1	635	359.441718240152	0
1	636	359.452904057448	0
1	638	360.897141892245	0
1	639	360.965902034827	0
1	644	363.404959221656	0
1	645	363.884783470501	0
1	647	364.533443469734	0
1	648	366.191821302579	0
1	650	366.402961088924	0
1	651	366.848342012277	0
1	656	372.745604752478	0
1	657	373.253135937257	0
1	659	378.065000466012	0
1	661	378.582284299245	1
1	662	379.259101310191	1
1	664	379.581971344138	1
1	666	380.04574587285	2
1	667	380.225317350611	2
1	671	380.478994515192	2
1	673	383.479386384943	2
1	675	384.621183469963	2
1	676	385.131208753587	2
1	677	385.614206932743	1
1	678	385.752841981053	0
1	680	387.386037647056	0
1	681	387.869274643804	0
1	686	389.105405480814	0
1	687	389.208076723078	0
1	689	390.305903194696	0
1	693	392.957485875755	0
1	695	395.624375510378	0
1	697	395.868249493239	1
1	699	395.952486727996	2
1	701	396.010865163352	3
1	702	396.082962093841	3
1	704	396.160811114799	3
1	706	396.815103569135	4
1	708	397.426876371864	5
1	709	397.88976770604	5
1	710	398.565578657971	4
1	711	400.052259323037	3
1	716	400.903314264318	3
1	717	401.099033452711	3
1	718	401.605673242909	2
1	719	402.936184678259	1
1	721	403.282897856052	1
1	723	403.871045155935	2
1	725	404.259237968537	3
1	726	404.867469481246	3
1	728	405.408525581749	3
1	729	407.865200267679	3
1	730	408.678519127805	2
1	732	409.312113208551	2
1	733	409.596037402935	2
1	735	409.861878598026	2
1	736	412.259053413042	2
1	738	412.297153678881	2
1	740	413.367439638013	3
1	741	413.836162300855	3
1	742	414.38712464621	2
1	743	415.752114077288	1
1	745	415.827495006568	1
1	746	416.285093384726	1
1	747	416.886613348041	0
1	752	420.802747718981	0
1	753	421.161306049307	0
1	758	430.616242091962	0
1	760	431.271348008768	1
1	761	431.686072203003	1
1	762	433.281419137566	0
1	764	434.60901820231	0
1	766	434.723201050139	1
1	768	435.006858667878	2
1	770	435.416824231339	3
1	772	436.103476235943	4
1	774	436.373772562041	5
1	775	437.008712265834	5
1	776	437.068282596202	4
1	778	437.815344604536	4
1	779	438.129041239046	4
1	781	438.154261429988	4
1	783	438.474849991872	5
1	784	438.959421730351	5
1	785	438.984672994352	4
1	786	439.403040853677	3
1	787	440.306384975738	2
1	788	440.687727113579	1
1	789	440.908557001277	0
1	791	443.94349574767	0
1	793	444.374246793683	1
1	794	444.680726938061	1
1	795	445.159917268267	0
1	797	446.01434492919	0
1	799	446.187111191583	1
1	800	446.542526576744	1
1	801	447.231144841741	0
1	803	456.586879560812	0
1	804	456.787127681481	0
1	806	457.083280460514	0
1	807	459.555070529826	0
1	809	459.658778582919	0
1	811	459.854943418844	1
1	812	459.867147623394	1
1	814	460.687995897621	1
1	815	460.927769198051	1
1	817	461.0958214597	1
1	818	463.604856338488	1
1	819	465.074519772295	0
1	821	466.460746919385	0
1	823	466.981405072689	1
1	824	467.798570265159	1
1	825	468.372306500397	0
1	827	471.575116370613	0
1	829	471.975004245967	1
1	830	472.590460437415	1
1	831	472.701644480305	0
1	833	479.003658749166	0
1	835	479.311655582927	1
1	836	480.751042922314	1
1	838	480.950906945341	1
1	839	481.364013921512	1
1	840	483.039040904624	0
1	842	485.255362469536	0
1	843	485.35666567161	0
1	845	486.146379051094	0
1	846	487.144612054328	0
1	848	487.236232226584	0
1	850	488.333242806448	1
1	852	488.406558859971	2
1	854	488.634594403201	3
1	856	488.99182706734	4
1	857	489.271220322511	4
1	858	489.411445654249	3
1	859	489.595985986534	2
1	860	489.662080161506	1
1	861	490.168739445749	0
1	863	492.592894416556	0
1	865	492.646322982433	1
1	866	493.445535645766	1
1	867	494.881398558401	0
1	869	497.534396756157	0
1	870	497.935930495985	0
1	875	498.98626620606	0
1	876	499.10123234169	0
1	878	499.759337769117	0
1	879	499.952693787933	0
1	881	500.565013834685	0
1	882	501.134012790159	0
1	884	501.613310197165	0
1	885	503.701158527668	0
1	887	504.224325236492	0
1	889	505.021065680108	1
1	890	505.334130607047	1
1	891	505.923305912214	0
1	893	508.609462979477	0
1	894	508.997198264576	0
1	896	511.893720182873	0
1	897	512.043846098113	0
1	899	512.974173731615	0
1	901	513.834126966669	1
1	903	514.293794065809	2
1	905	515.555326479384	3
1	906	516.487810797196	3
1	908	516.914011603145	3
1	909	517.55168473649	3
1	911	518.982437693514	3
1	912	519.260215219282	3
1	913	519.639941833422	2
1	914	519.780795706869	1
1	915	519.807437641603	0
1	917	523.642336412903	0
1	918	523.65958329536	0
1	920	525.716177868907	0
1	922	526.720341705429	1
1	923	528.675626896873	1
1	924	530.152215503046	0
1	926	530.583227986003	0
1	927	531.392179503156	0
1	929	533.624348693573	0
1	931	536.243242911572	1
1	933	536.540296217507	2
1	935	537.20864516323	3
1	936	539.008814614306	3
1	937	539.443468439063	2
1	938	540.448663301676	1
1	939	540.736501090347	0
1	941	541.104596910016	0
1	942	541.407343884747	0
1	944	543.032104582455	0
1	945	543.739774047017	0
1	947	545.137174633475	0
1	948	547.802644916601	0
1	950	550.502725507143	0
1	951	551.343495486316	0
1	953	551.850610282405	0
1	954	552.501615172027	0
1	956	552.670363018637	0
1	957	552.778748081456	0
1	959	554.274020177098	0
1	961	554.348833610215	1
1	963	555.412869179903	2
1	964	555.66294259525	2
1	965	556.588056345458	1
1	967	557.461253400919	1
1	969	557.612234064517	2
1	970	559.078365818546	2
1	972	559.910138496699	2
1	973	560.06643539822	2
1	975	560.312532978429	2
1	976	561.296139490256	2
1	977	561.543006400691	1
1	978	561.555585313707	0
1	980	561.862785091723	0
1	981	562.450620671349	0
1	983	562.930610783527	0
1	984	563.19606689654	0
1	986	565.382333930801	0
1	987	565.81592771697	0
1	989	565.926723568139	0
1	991	566.895968861881	1
1	993	567.434888320684	2
1	994	568.419937260885	2
1	995	568.705864249458	1
1	996	569.736847282825	0
1	998	569.757999717039	0
1	1006	572.899154819493	1
1	1008	574.766996342004	2
1	1009	574.879009008694	2
1	1010	576.256094467854	1
1	1011	576.32843568993	0
1	1013	579.454560612047	0
1	1014	579.857409680324	0
1	1016	581.054603012643	0
1	1017	581.985700782881	0
1	1019	582.7217735349	0
1	1021	583.653771342783	1
1	1022	584.377913188453	1
1	1023	584.525576369087	0
1	1025	584.928322220314	0
1	1026	586.363326454339	0
1	1028	591.540823088331	0
1	1029	591.606832993966	0
1	1031	592.051879403658	0
1	1032	592.64040345466	0
1	1034	594.127784892894	0
1	1036	594.18111918944	1
1	1037	596.738635509125	1
1	1038	596.855473905725	0
1	1040	598.9568407254	0
1	1041	599.270204858203	0
1	1043	600.13559734613	0
1	1044	601.498510733855	0
1	1046	606.336300191205	0
1	1047	606.462673441896	0
1	1049	608.613377350185	0
1	1050	609.042501087946	0
1	1052	609.155847040442	0
1	1054	611.527748162238	1
1	1055	611.610093891354	1
1	1057	612.043811112841	1
1	1058	612.279553014047	1
1	1059	612.780129084967	0
1	1061	612.903367279333	0
1	1063	613.805468879414	1
1	1065	613.902708197559	2
1	1067	614.868206392127	3
1	1068	615.261339305508	3
1	1069	615.582282210498	2
1	1070	615.899148676215	1
1	1071	616.181784272502	0
1	1076	621.101454253129	0
1	1077	621.702754892092	0
1	1079	623.106049228132	0
1	1080	623.212273685841	0
1	1082	623.968824894964	0
1	1083	624.127760939108	0
1	1088	631.217819626418	0
1	1090	632.029332287866	1
1	1091	632.177403648068	1
1	1093	633.306974011784	1
1	1094	633.436437129715	1
1	1095	633.576224205636	0
1	1097	634.380721099669	0
1	1099	635.451005841341	1
1	1100	636.486768452602	1
1	1101	636.865698097978	0
1	1103	639.214958395978	0
1	1104	639.260106263412	0
1	1106	639.314215824731	0
1	1107	639.601929506771	0
1	1109	639.706353216097	0
1	1110	640.377027938997	0
1	1115	646.875165995834	0
1	1116	646.875782278631	0
1	1118	647.295010826718	0
1	1119	647.426345810154	0
1	1124	655.007113291108	0
1	1125	656.121443539547	0
1	1130	657.744286106131	0
1	1131	657.889755742471	0
1	1133	659.872029988132	0
1	1134	660.367457125266	0
1	1136	662.422651100228	0
1	1138	662.735739634642	1
1	1139	662.774869366921	1
1	1141	663.252098305321	1
1	1142	663.945715594396	1
1	1143	664.607491745469	0
1	1145	667.766807925452	0
1	1146	668.139763945664	0
1	1148	668.957993515093	0
1	1150	670.302657115243	1
1	1155	672.660670403395	2
1	1157	674.603484947049	3
1	1159	675.525867615508	4
1	1161	675.741097886029	5
1	1162	676.526408220202	5
1	1163	677.094538034384	4
1	1165	678.389355195172	4
1	1166	679.513518916881	4
1	1167	679.542134822453	3
1	1168	680.549568100739	2
1	1170	680.995035294893	2
1	1172	681.585285444163	3
1	1173	681.665368033215	3
1	1175	681.853498508288	3
1	1176	682.49916197958	3
1	1177	683.93379320166	2
1	1178	684.977123887778	1
1	1180	685.444212633026	1
1	1182	686.514443908958	2
1	1183	687.125185794472	2
1	1184	689.777252015828	1
1	1185	690.332724734687	0
1	1187	694.339123410752	0
1	1189	696.67124854601	1
1	1190	696.680627020078	1
1	1192	697.548799777715	1
1	1193	698.376420319396	1
1	1194	698.380445239816	0
1	1196	700.951630710656	0
1	1197	703.187076775952	0
1	1199	705.373669154726	0
1	1200	705.6909368392	0
1	1202	705.902020175276	0
1	1204	705.941508343994	1
1	1206	706.761694258751	2
1	1207	706.825939995795	2
1	1209	706.882478420326	2
1	1211	707.858086588404	3
1	1213	708.24443671423	4
1	1214	709.330569642531	4
1	1216	709.618673702749	4
1	1218	710.923800613809	5
1	1219	712.187356925457	5
1	1220	713.120194538451	4
1	1221	713.239017189665	3
1	1222	713.76086775173	2
1	1230	718.600773318542	2
1	1232	718.7191706715	3
1	1233	718.987672866694	3
1	1235	719.894587856083	3
1	1237	720.45832428398	4
1	1238	720.476544790595	4
1	1239	720.540530037181	3
1	1240	721.070876247619	2
1	1241	721.364265515205	1
1	1242	721.857092552332	0
1	1244	724.584917171665	0
1	1245	725.465561570159	0
1	1247	731.99006404691	0
1	1248	732.2124965947	0
1	1250	735.155203498157	0
1	1251	736.580481306889	0
1	1253	737.867261293083	0
1	1255	738.032549429268	1
1	1259	739.245714478858	1
1	1260	739.911432962399	0
1	1262	742.294218666925	0
1	1263	742.740846320683	0
1	1268	749.193068297475	0
1	1269	749.971760400433	0
1	1271	751.545354281278	0
1	1272	751.781354791158	0
1	1277	756.845846968982	0
1	1278	756.893042011237	0
1	1280	758.068409837549	0
1	1282	758.25228793417	1
1	1283	758.50359249254	1
1	1284	758.983018673671	0
1	1286	761.236723163289	0
1	1287	762.588318173597	0
1	1289	762.730701111324	0
1	1290	763.459958058975	0
1	1292	764.371271295102	0
1	1294	764.375844892955	1
1	1296	764.720992706793	2
1	1297	765.195213432166	2
1	1298	765.44003687176	1
1	1300	766.093786443728	1
1	1301	766.920315649432	1
1	1302	768.341326921776	0
1	1304	771.005588859301	0
1	1305	771.822977349791	0
1	1307	776.41463975844	0
1	1311	777.236028009923	0
1	1313	781.022191830161	0
1	1314	781.32946132699	0
1	1316	783.128085579358	0
1	1317	783.347859046141	0
1	1319	783.766429851517	0
1	1321	784.003358540235	1
1	1323	785.943722819035	2
1	1324	786.726752285737	2
1	1326	787.480248600272	2
1	1327	787.963580360902	2
1	1328	788.107325811594	1
1	1330	788.672492396074	1
1	1332	789.368147329513	2
1	1333	790.079734222886	2
1	1335	790.170459849321	2
1	1339	791.547415050529	3
1	1341	791.779614801005	4
1	1343	792.680560009853	4
1	1344	793.250264858958	3
1	1346	793.800575068204	3
1	1347	795.880097691768	3
1	1348	799.001146453913	2
1	1349	799.356429137928	1
1	1350	799.831393490691	0
1	1352	800.926908090818	0
1	1353	802.835949452985	0
1	1355	807.543248501759	0
1	1356	807.560011539276	0
1	1358	809.993653921224	0
1	1359	811.264011736509	0
1	1361	812.707799389908	0
1	1362	813.691896814687	0
1	1364	813.800862673449	0
1	1366	814.750019139834	1
1	1367	814.920844027644	1
1	1368	815.350529849003	0
1	1370	816.080270352829	0
1	1371	816.143910307631	0
1	1373	819.254945332847	0
1	1375	819.362964355695	1
1	1377	820.190945340708	2
1	1379	820.683039718444	3
1	1384	822.960903217932	4
1	1386	823.910023279611	5
1	1387	824.547076682969	5
1	1389	824.696880607674	5
1	1391	824.856428388247	6
1	1392	824.900492801781	6
1	1393	826.175681050628	5
1	1395	826.237327023276	5
1	1397	827.097302751096	6
1	1399	828.482032137886	7
1	1400	829.000334220074	7
1	1401	829.094226397894	6
1	1402	829.17635534451	5
1	1403	829.565569641594	4
1	1404	830.430448003774	3
1	1405	830.460929519832	2
1	1406	831.509302729441	1
1	1407	831.97510125023	0
1	1409	833.665317252567	0
1	1410	834.541049618014	0
1	1412	834.835050361662	0
1	1414	835.344633156475	1
1	1415	835.691182280266	1
1	1416	835.925642101444	0
1	1418	836.246289010665	0
1	1422	836.885619976556	1
1	1424	837.10846384725	2
1	1426	837.444813399814	3
1	1429	838.236237337527	4
1	1431	839.779216252426	5
1	1432	839.858886181812	5
1	1433	843.068321075084	4
1	1434	844.111885731293	3
1	1435	844.419925557107	2
1	1436	844.434811371517	1
1	1437	844.990542951756	0
1	1439	844.999939982417	0
1	1440	845.617333634168	0
1	1445	848.686861107268	0
1	1447	850.126791831785	1
1	1449	850.512674530108	2
1	1450	851.201792280476	2
1	1451	851.980835527832	1
1	1452	852.872106534022	0
1	1454	853.244151151441	0
1	1456	853.285600966356	1
1	1457	853.596804455108	1
1	1458	853.659946682299	0
1	1460	854.627018735837	0
1	1461	854.712378604028	0
1	1463	861.839194659475	0
1	1465	862.027073127995	1
1	1467	862.243454896201	2
1	1469	862.267733517239	3
1	1470	862.630576146928	3
1	1471	862.803696935965	2
1	1472	863.223076755779	1
1	1474	863.525366803809	1
1	1475	863.583357529218	1
1	1476	864.080740718966	0
1	1478	868.14782726064	0
1	1479	869.698295683315	0
1	1481	871.784178878287	0
1	1483	872.753419344782	1
1	1484	873.79353344956	1
1	1485	874.467928848762	0
1	1487	875.073400516529	0
1	1488	876.312412457734	0
1	1490	878.187153572996	0
1	1491	878.243388370746	0
1	1493	881.127814666504	0
1	1494	882.100504801427	0
1	1496	886.18679917844	0
1	1497	886.750685376176	0
1	1499	890.357580150221	0
1	1500	894.056746830631	0
1	1502	894.672344712911	0
1	1504	894.673218458705	1
1	1506	894.901834362903	2
1	1508	895.137224400285	3
1	1509	895.188509474157	3
1	1511	896.203984343369	3
1	1512	896.867660452473	3
1	1514	897.269863685651	3
1	1516	897.344970494282	4
1	1517	897.819796895771	4
1	1522	899.144711811631	4
1	1523	899.189800197744	4
1	1525	899.305035436225	4
1	1527	899.744681219744	5
1	1531	901.68491229235	5
1	1532	902.76284371132	4
1	1534	904.63301358424	4
1	1536	904.771539018934	5
1	1537	904.924059741822	5
1	1538	906.149664532027	4
1	1540	908.528376301758	4
1	1541	908.773449348056	4
1	1542	909.860191450754	3
1	1543	910.01388167722	2
1	1544	911.958179199485	1
1	1545	913.295263788134	0
1	1547	916.295119016994	0
1	1549	917.233098870937	1
1	1551	917.354219310053	2
1	1555	917.699312039126	3
1	1558	919.033665476101	4
1	1560	919.886710352702	5
1	1562	920.060049795381	6
1	1566	921.714204112125	6
1	1567	924.460060428351	5
1	1568	926.0549468414	4
1	1569	926.085871968024	3
1	1570	926.301973912794	2
1	1571	926.434430605478	1
1	1572	929.167320486635	0
1	1574	929.186520408946	0
1	1575	929.282066493108	0
1	1577	929.636458424211	0
1	1579	930.215302294918	1
1	1580	930.781550037464	1
1	1581	931.146613356667	0
1	1583	931.917732535101	0
1	1584	932.163439774746	0
1	1586	933.142774390564	0
1	1587	937.057432093576	0
1	1589	940.290857367486	0
1	1590	940.972316144036	0
1	1592	941.146085851432	0
1	1593	941.401772221697	0
1	1595	942.021964096495	0
1	1597	942.461069720137	1
1	1607	948.173903777814	1
1	1609	948.494443786878	1
1	1610	948.548459289044	1
1	1611	948.819711707841	0
1	1613	952.660499710336	0
1	1614	953.322570176133	0
1	1616	955.879009205547	0
1	1617	956.580118687964	0
1	1619	956.940596304262	0
1	1620	961.486671711359	0
1	1622	961.803211802496	0
1	1623	962.557124391524	0
1	1625	963.165778094085	0
1	1626	963.956539636928	0
1	1628	964.111237893646	0
1	1629	964.204064432807	0
1	1631	970.122532935706	0
1	1633	971.307650745205	1
1	1635	971.316333095624	2
1	1637	971.612816443614	3
1	1638	974.524547799548	3
1	1640	974.704617557793	3
1	1641	974.763328513683	3
1	1643	975.113690726452	3
1	1644	975.119904821855	3
1	1648	975.995171899209	3
1	1650	977.861888120049	3
1	1651	977.998321474671	2
1	1652	979.763526332042	1
1	1653	980.305161956683	0
1	1655	981.778745539506	0
1	1656	982.346503158675	0
1	1661	986.418312732989	0
1	1663	986.734955269643	1
1	1664	987.28627393931	1
1	1666	987.312544437115	1
1	1667	987.97661513161	1
1	1668	989.025080644749	0
1	1672	990.615324219499	0
1	1678	994.481381519318	1
1	1679	994.696961326158	1
1	1680	994.911422820963	0
1	1682	998.820310728311	0
1	1683	999.562397100646	0
1	1685	1000.634239318431	0
1	1687	1001.495154259484	1
1	1688	1002.325307481576	1
1	1690	1002.982161625658	1
1	1691	1003.126715246901	1
1	1692	1003.227047228052	0
1	1694	1003.787059350261	0
1	1695	1004.32722155097	0
1	1697	1006.528182679392	0
1	1698	1008.207670391658	0
1	1700	1008.382440785633	0
1	1702	1008.805269917123	1
1	1704	1009.016741038342	2
1	1706	1011.228390630087	3
1	1707	1011.409182877186	3
1	1708	1011.561622518104	2
1	1709	1011.738164340784	1
1	1711	1012.690713969005	1
1	1712	1014.457137694485	1
1	1714	1014.649607339868	1
1	1716	1015.001756039678	2
1	1717	1017.364955222673	2
1	1718	1017.67905689714	1
1	1719	1017.925912369431	0
1	1721	1019.565777786158	0
1	1722	1020.667848696212	0
1	1724	1022.659444048325	0
1	1726	1023.335649517403	1
1	1728	1024.099226475405	2
1	1730	1025.483629775102	3
1	1731	1025.941370668167	3
1	1733	1029.848970396265	3
1	1734	1030.091735645402	3
1	1735	1030.137267376436	2
1	1737	1030.617100429613	2
1	1738	1030.827523159117	2
1	1739	1030.918761707092	1
1	1743	1031.523996388772	1
1	1745	1031.650117248616	2
1	1747	1032.616387171539	2
1	1749	1032.794832469534	2
1	1750	1033.524218991388	2
1	1751	1033.547474621169	1
1	1752	1033.986655772313	0
1	1754	1034.206050711734	0
1	1758	1035.884959662132	1
1	1760	1036.047849980766	1
1	1761	1036.846659741819	0
1	1763	1037.287072021476	0
1	1764	1038.204615427477	0
1	1766	1041.173127372247	0
1	1768	1041.257428338252	1
1	1769	1041.82170798755	1
1	1770	1041.859213636691	0
1	1772	1043.68314777273	0
1	1773	1043.737427255265	0
1	1775	1044.634816785242	0
1	1776	1045.892904735233	0
1	1778	1047.828222594966	0
1	1780	1048.462025482805	1
1	1782	1048.578029200654	2
1	1783	1049.073620152659	2
1	1787	1051.511517929919	1
1	1788	1051.844513676995	0
1	1790	1055.484400412584	0
1	1791	1058.482191867259	0
1	1793	1062.748469659431	0
1	1795	1064.153551240582	1
1	1797	1064.901115358115	2
1	1799	1064.967966372154	3
1	1800	1065.71496649999	3
1	1801	1067.150545726524	2
1	1802	1067.747893939572	1
1	1803	1069.03574289156	0
1	1805	1070.24245529851	0
1	1806	1070.367034625182	0
1	1808	1072.197059228776	0
1	1809	1073.351529430572	0
1	1811	1075.03690955628	0
1	1812	1075.39947326204	0
1	1814	1076.304285468562	0
1	1815	1077.540965501727	0
1	1817	1079.492676138759	0
1	1818	1079.533780403668	0
1	1820	1079.624237306241	0
1	1821	1079.822238249306	0
1	1823	1080.210693668719	0
1	1825	1080.626315136582	1
1	1826	1083.825066790015	1
1	1827	1084.001386158992	0
1	1829	1084.078511944629	0
1	1830	1084.253852371967	0
1	1832	1084.964013734374	0
1	1833	1085.015740801321	0
1	1835	1085.693156780821	0
1	1836	1085.89973296751	0
1	1838	1087.291721511122	0
1	1839	1087.36107387768	0
1	1841	1090.444184816414	0
1	1842	1091.012287455971	0
1	1844	1093.377637392346	0
1	1845	1094.054896517655	0
1	1847	1097.140549148588	0
1	1848	1097.734461034274	0
1	1850	1098.547574579667	0
1	1852	1098.662819233838	1
1	1853	1098.803372963052	1
1	1854	1098.849970649238	0
1	1856	1099.128265535933	0
1	1858	1099.775622957819	1
1	1859	1099.793897418474	1
1	1860	1100.583526388512	0
1	1862	1100.746698703666	0
1	1863	1101.375135207738	0
1	1865	1101.759861284163	0
1	1870	1103.528561007225	1
1	1871	1104.717535163099	1
1	1873	1104.847010363119	1
1	1875	1104.921775880723	2
1	1876	1105.996702227646	2
1	1877	1106.464988233196	1
1	1878	1106.869611877383	0
1	1880	1109.099875725231	0
1	1882	1109.286755236718	1
1	1883	1109.448697287411	1
1	1884	1110.791842182778	0
1	1886	1115.280371558484	0
1	1887	1116.00586476149	0
1	1889	1118.494495667315	0
1	1890	1119.658999856934	0
1	1892	1119.678372432306	0
1	1893	1119.946641881964	0
1	1895	1122.107318459602	0
1	1897	1122.147656081318	1
1	1898	1122.270640935284	1
1	1899	1123.566828983203	0
1	1903	1127.544543523026	0
1	1905	1128.730685856284	0
1	1907	1130.452538532549	0
1	1909	1131.632913039156	1
1	1910	1133.759280362664	1
1	1912	1134.646741998543	1
1	1913	1134.699094083934	1
1	1915	1134.715843509371	1
1	1916	1134.76171135964	1
1	1917	1136.528503808251	0
1	1919	1138.437105438144	0
1	1921	1139.100561575676	1
1	1922	1142.262863632444	1
1	1924	1144.302274385202	1
1	1925	1145.001561023146	1
1	1927	1145.46584786046	1
1	1929	1147.053408865621	2
1	1930	1147.142248676309	2
1	1931	1147.169203145957	1
1	1932	1147.174647155079	0
1	1934	1147.83855508197	0
1	1936	1148.985914930696	1
1	1938	1150.570442152569	2
1	1940	1150.771290328217	3
1	1941	1151.001304287372	3
1	1942	1152.587134242305	2
1	1944	1152.86292396912	2
1	1945	1153.034537165783	2
1	1947	1153.449385059067	2
1	1948	1154.818571450508	2
1	1950	1154.917157177074	2
1	1951	1155.661186264581	2
1	1953	1155.860024197768	2
1	1954	1155.969741096749	2
1	1956	1157.016645600001	2
1	1957	1157.266642922133	2
1	1959	1157.377653673037	2
1	1961	1157.916334653419	3
1	1963	1158.562676280427	4
1	1965	1158.775801369805	5
1	1966	1159.093772781004	5
1	1967	1161.465440513943	4
1	1968	1161.924267282548	3
1	1969	1162.1941290142	2
1	1971	1162.602290326118	2
1	1972	1162.916706421239	2
1	1973	1163.566989450684	1
1	1974	1164.098067298725	0
1	1976	1165.509818778984	0
1	1977	1166.429000874933	0
1	1979	1167.015589354275	0
1	1981	1167.564384104757	1
1	1983	1167.669358715171	2
1	1984	1168.983803030575	2
1	1985	1169.822216944029	1
1	1986	1170.896817296977	0
1	1988	1175.202913239424	0
1	1989	1175.429985771609	0
1	1991	1176.495624260635	0
1	1993	1176.512172936622	1
1	1994	1178.967849777238	1
1	1995	1179.300132696382	0
1	2002	1183.822229996831	0
1	2004	1184.768806781522	1
1	2007	1186.115497708658	2
1	2008	1186.261731456357	2
1	2009	1186.839864760365	1
1	2010	1187.409129055531	0
1	2012	1192.539710744791	0
1	2014	1192.54120796466	1
1	2015	1192.735283885772	1
1	2017	1193.426996354334	1
1	2018	1193.65352722934	1
1	2020	1193.848480072675	1
1	2021	1194.345497671909	1
1	2022	1194.553195392483	0
1	2024	1195.233258846705	0
1	2025	1195.763639603578	0
1	2027	1196.755574307357	0
1	2029	1197.145131816398	1
1	2030	1197.156971373749	1
1	2032	1197.384854503338	1
1	2033	1197.763184192474	1
1	2034	1197.862839334008	0
1	2036	1199.585135297225	0
1	2037	1200.820202222996	0
1	2039	1202.616793332111	0
1	2041	1202.788063723351	1
1	2043	1203.121348648942	2
1	2044	1206.789494809742	2
1	2045	1207.146228711863	1
1	2046	1207.695146696557	0
1	2050	1208.285206835297	0
1	2052	1210.112018958327	0
1	2054	1212.390174604126	0
1	2055	1212.668889441041	0
1	2057	1218.728504190119	0
1	2059	1219.502453399154	1
1	2060	1219.879528172979	1
1	2061	1219.948201778587	0
1	2063	1220.000761400558	0
1	2064	1220.901655704864	0
1	2066	1224.568370731052	0
1	2067	1224.834610718701	0
1	2069	1225.55061884121	0
1	2071	1225.636846157623	1
1	2072	1226.075440192503	1
1	2073	1228.195979474133	0
1	2075	1229.6910886403	0
1	2077	1230.833576222974	1
1	2078	1231.534336657402	1
1	2079	1232.280540945627	0
1	2081	1233.904276659019	0
1	2082	1234.888306985733	0
1	2084	1235.085999157192	0
1	2086	1236.7630829099	1
1	2091	1238.671214725879	2
1	2092	1238.719496793273	2
1	2094	1239.743417832725	2
1	2095	1239.769868781909	2
1	2097	1240.131783589197	2
1	2098	1241.90409039196	2
1	2099	1242.661044121037	1
1	2100	1243.318339406951	0
1	2102	1243.435839409142	0
1	2104	1245.172982663675	1
1	2105	1245.654773765363	1
1	2106	1245.698691164206	0
1	2108	1247.028883121952	0
1	2109	1247.053943357758	0
1	2111	1249.122776440978	0
1	2112	1249.335821123111	0
1	2114	1250.545523199554	0
1	2115	1250.63819063789	0
1	2117	1253.67194816372	0
1	2118	1254.489070131299	0
1	2120	1255.05871088033	0
1	2121	1255.191800880641	0
1	2123	1256.605364346679	0
1	2125	1257.986589697136	1
1	2126	1258.717214089151	1
1	2127	1259.052736046606	0
1	2129	1259.367476250197	0
1	2131	1260.100573574821	1
1	2133	1260.21210504695	2
1	2135	1263.291306308681	3
1	2137	1263.331063662536	4
1	2141	1265.451670751853	5
1	2143	1265.468368874592	6
1	2145	1267.072280629368	6
1	2146	1267.218528251716	5
1	2148	1267.333251225949	5
1	2150	1267.535872619901	6
1	2152	1267.560099558239	7
1	2154	1268.34210319941	8
1	2155	1268.357770939257	8
1	2160	1270.865637774693	8
1	2162	1271.366374844087	9
1	2164	1273.036261600183	10
1	2166	1273.662642469853	11
1	2168	1274.606407995996	12
1	2170	1274.771566953969	13
1	2171	1275.671487218751	13
1	2173	1276.048403357297	13
1	2175	1276.153275065822	14
1	2176	1276.686889955457	14
1	2177	1276.927318686347	13
1	2178	1279.162466469966	12
1	2179	1279.625092392168	11
1	2181	1280.149020611253	11
1	2182	1280.538695294902	11
1	2189	1282.498476577636	10
1	2190	1282.850316669624	9
1	2191	1282.873600269614	8
1	2192	1283.905950938112	7
1	2193	1284.811522183089	6
1	2194	1284.876665139875	5
1	2195	1285.239539750264	4
1	2196	1286.255888334909	3
1	2198	1286.985551113003	3
1	2199	1287.416161961996	3
1	2200	1288.646873323926	2
1	2201	1289.63779814498	1
1	2202	1289.983211662128	0
1	2204	1290.801433582312	0
1	2205	1291.703786829016	0
1	2207	1293.471820382191	0
1	2209	1295.020290447887	1
1	2210	1295.837359374068	1
1	2211	1297.915161731504	0
1	2213	1298.461725132445	0
1	2214	1299.155921535725	0
1	2216	1299.906420973526	0
1	2217	1300.140514650894	0
1	2219	1303.27819832857	0
1	2220	1304.417085544455	0
1	2222	1304.896398495479	0
1	2224	1305.31980721023	1
1	2225	1305.503906536181	1
1	2227	1305.98178183576	1
1	2228	1308.602271456088	1
1	2230	1308.995618047193	1
1	2231	1309.722173935834	1
1	2232	1309.981199109127	0
1	2234	1311.417858557814	0
1	2235	1312.125336758519	0
1	2237	1318.575510045546	0
1	2238	1318.590038061845	0
1	2240	1321.618761635658	0
1	2242	1322.682464293336	1
1	2244	1323.213821386141	2
1	2245	1323.764263561144	2
1	2246	1323.782297203158	1
1	2247	1324.307624035856	0
1	2249	1325.607931287521	0
1	2251	1327.688743736631	1
1	2252	1328.094736362632	1
1	2253	1328.129346122841	0
1	2255	1330.405325032877	0
1	2256	1330.921429424345	0
1	2258	1333.805327144282	0
1	2259	1334.07297291578	0
1	2261	1334.085833664059	0
1	2266	1336.042212342516	1
1	2268	1336.613092355722	2
1	2269	1336.675207764951	2
1	2270	1340.384626910498	1
1	2271	1340.460297852068	0
1	2273	1341.752748628725	0
1	2274	1341.84052825774	0
1	2279	1347.453318590537	0
1	2280	1348.173752482655	0
1	2282	1350.009779310072	0
1	2283	1350.181039946191	0
1	2285	1352.503374957836	0
1	2289	1352.889607546764	1
1	2291	1355.110559797672	1
1	2292	1355.32091474589	0
1	2294	1356.241813833315	0
1	2295	1357.01851187827	0
1	2297	1359.908260853734	0
1	2298	1360.497249030027	0
1	2300	1362.112539211942	0
1	2301	1362.893080038197	0
1	2303	1363.152652869672	0
1	2304	1363.463119988692	0
1	2306	1364.907256562638	0
1	2308	1365.238842552974	1
1	2309	1365.363898064686	1
1	2311	1366.390876759775	1
1	2313	1368.660820639261	2
1	2314	1372.10490140864	2
1	2315	1372.303210391147	1
1	2317	1372.462323460374	1
1	2319	1372.867105201329	2
1	2321	1373.310042720431	3
1	2322	1374.500574043241	3
1	2326	1376.751778071535	2
1	2328	1377.11495162551	2
1	2329	1377.147865795977	2
1	2330	1379.429237843704	1
1	2331	1379.63887434599	0
1	2333	1382.109780219027	0
1	2335	1382.754978315956	1
1	2336	1383.045474874072	1
1	2338	1383.883838098637	1
1	2339	1385.972069223235	1
1	2340	1386.139925406812	0
1	2342	1390.597627418456	0
1	2343	1390.763981009923	0
1	2345	1391.979885907439	0
1	2346	1392.382779524037	0
1	2348	1396.540889473852	0
1	2350	1397.000376158489	1
1	2351	1397.61096907228	1
1	2353	1397.692949296393	1
1	2357	1399.508085673154	1
1	2359	1401.657943901091	1
1	2361	1401.779999878915	2
1	2363	1401.876204290471	3
1	2364	1402.235794000971	3
1	2365	1402.48480783188	2
1	2367	1402.541420243704	2
1	2368	1402.704852793444	2
1	2372	1406.214741536471	2
1	2374	1406.870862322129	3
1	2376	1407.398350637162	3
1	2377	1407.53450689742	2
1	2379	1408.121023634348	2
1	2380	1409.92144927932	2
1	2382	1410.794101947111	2
1	2383	1411.057004662586	2
1	2384	1411.16215452735	1
1	2385	1412.579256951773	0
1	2387	1414.67311233283	0
1	2388	1416.355738590737	0
1	2390	1417.472119368681	0
1	2391	1419.221595008027	0
1	2393	1420.218530385263	0
1	2394	1420.740934930524	0
1	2396	1421.984683061416	0
1	2397	1422.17884906983	0
1	2399	1422.864200812118	0
1	2400	1423.590488482519	0
1	2407	1431.73908825561	0
1	2410	1432.661563103244	1
1	2411	1433.34144948702	1
1	2412	1433.54865235423	0
1	2414	1434.84236539609	0
1	2415	1435.018004248187	0
1	2417	1437.355891901027	0
1	2419	1438.785035853013	1
1	2420	1439.35432953694	1
1	2421	1439.387826078193	0
1	2423	1440.023686810875	0
1	2424	1440.18566586876	0
1	2426	1447.213905864199	0
1	2427	1447.288527468558	0
1	2429	1447.93345734316	0
1	2430	1448.006711504591	0
1	2435	1448.849581342361	0
1	2437	1449.191587336155	1
1	2439	1451.342719320707	2
1	2440	1451.363009710161	2
1	2441	1451.483684197865	1
1	2442	1452.216580755367	0
1	2444	1452.869981726596	0
1	2445	1455.097813313419	0
1	2447	1456.853948864406	0
1	2448	1456.869681201808	0
1	2450	1458.162010069838	0
1	2451	1458.203928546281	0
1	2453	1459.047056265124	0
1	2454	1459.04752598785	0
1	2456	1460.227900224926	0
1	2457	1460.738584361156	0
1	2459	1462.267452124922	0
1	2461	1463.372707528954	1
1	2463	1466.509850642256	2
1	2464	1466.782091551533	2
1	2465	1467.239133909302	1
1	2466	1467.543149202588	0
1	2468	1471.872992114486	0
1	2469	1472.478768265138	0
1	2471	1476.426670583125	0
1	2473	1476.836782146257	1
1	2474	1478.49635138147	1
1	2476	1478.794519817776	1
1	2477	1479.604106295095	1
1	2478	1480.037810414166	0
1	2480	1480.516252174724	0
1	2481	1481.377913376441	0
1	2483	1483.823696149242	0
1	2484	1484.582940974196	0
1	2486	1485.968970740687	0
1	2488	1486.289966732415	1
1	2489	1487.40383047654	1
1	2490	1487.569896063268	0
1	2492	1488.414866748614	0
1	2493	1488.901269548478	0
1	2495	1490.75466917407	0
1	2496	1490.879270582585	0
1	2500	1492.289418193725	0
1	2502	1492.525969816027	1
1	2504	1496.751272414639	1
1	2505	1496.883805873548	0
1	2510	1500.26287776305	0
1	2511	1500.75405708828	0
1	2513	1501.571668764059	0
1	2515	1502.059839915738	1
1	2516	1502.800265684662	1
1	2518	1503.064789425465	1
1	2520	1503.497050612776	2
1	2522	1503.674565204475	3
1	2523	1503.950197054951	3
1	2525	1505.214480393962	3
1	2526	1505.608822867569	3
1	2527	1505.982992990739	2
1	2529	1506.974505133797	2
1	2530	1507.937424907204	2
1	2531	1509.023058561494	1
1	2532	1509.592689599623	0
1	2534	1515.745865002543	0
1	2536	1516.084848512768	1
1	2537	1516.121483755058	1
1	2539	1516.642284908572	1
1	2540	1518.226356337415	1
1	2541	1518.57843011435	0
1	2543	1519.556249587624	0
1	2544	1520.418791607275	0
1	2546	1522.272065469062	0
1	2548	1523.001966493871	1
1	2549	1523.028429317887	1
1	2554	1523.418726482445	1
1	2556	1524.349683814217	2
1	2557	1525.158633246812	2
1	2558	1527.149140000287	1
1	2559	1529.34557456105	0
1	2561	1531.849850012541	0
1	2563	1532.181549298721	1
1	2565	1533.318489532983	2
1	2566	1534.142814867507	2
1	2567	1534.62466935854	1
1	2568	1534.685860532819	0
1	2570	1538.14810900467	0
1	2572	1539.654090435253	1
1	2573	1539.889310174379	1
1	2575	1540.165750710658	1
1	2577	1540.730803906428	2
1	2578	1542.796765562279	2
1	2579	1544.227917805002	1
1	2580	1544.275077152289	0
1	2582	1545.546075086506	0
1	2584	1545.944117295799	1
1	2586	1546.044006744055	2
1	2590	1547.903085325549	2
1	2591	1550.039943045429	1
1	2593	1550.220796065811	1
1	2595	1550.654144195167	2
1	2596	1553.193384375648	2
1	2597	1554.450470347415	1
1	2598	1554.623846795154	0
1	2600	1558.676886348995	0
1	2601	1558.938676773653	0
1	2603	1559.695568058613	0
1	2604	1561.135675306285	0
1	2606	1563.069535860131	0
1	2608	1563.101637794218	1
1	2609	1563.111235578141	1
1	2611	1563.359307244705	1
1	2612	1563.671511476761	1
1	2614	1564.32475087381	1
1	2615	1564.373355760783	1
1	2616	1564.601615421715	0
1	2618	1564.857924013129	0
1	2619	1565.743978680165	0
1	2621	1574.190576003802	0
1	2622	1574.507558271132	0
1	2624	1575.063307820794	0
1	2626	1576.190849308079	1
1	2628	1576.98719485205	2
1	2630	1577.054541366963	3
1	2631	1577.671302463392	3
1	2633	1577.86621633844	3
1	2634	1578.023779937645	3
1	2635	1578.027274197533	2
1	2636	1578.105567407209	1
1	2638	1578.393673697886	1
1	2639	1578.622524739752	1
1	2640	1578.949465686221	0
1	2642	1579.681144245009	0
1	2643	1579.723983216581	0
1	2645	1580.692660546965	0
1	2646	1582.115311903915	0
1	2648	1583.262991860815	0
1	2649	1583.636647834071	0
1	2651	1586.186382836822	0
1	2652	1586.711966414141	0
1	2654	1586.886471276416	0
1	2655	1587.053940088069	0
1	2657	1588.902179903788	0
1	2658	1589.287571974429	0
1	2660	1589.921081146505	0
1	2661	1590.260324639607	0
1	2663	1590.372901962819	0
1	2664	1590.552019371919	0
1	2666	1595.322974298899	0
1	2667	1595.349711590894	0
1	2669	1597.398854579039	0
1	2670	1597.5044900598	0
1	2674	1599.425024458593	0
1	2676	1602.80107829614	0
1	2678	1603.776581345934	0
1	2679	1604.028368543002	0
1	2681	1605.525086817344	0
1	2682	1605.602451451446	0
1	2684	1606.88358934359	0
1	2686	1608.091750146583	1
1	2688	1609.659195831263	2
1	2689	1610.081505515621	2
1	2690	1611.198279620802	1
1	2691	1611.918886270713	0
1	2693	1612.984329300594	0
1	2695	1613.200458448473	1
1	2696	1614.306689380894	1
1	2697	1614.446371602173	0
1	2699	1614.826783720468	0
1	2701	1615.454793168005	1
1	2702	1615.517677169763	1
1	2703	1615.726204750675	0
1	2705	1619.172930979759	0
1	2707	1619.807664395839	1
1	2709	1620.225128661983	2
1	2710	1621.590302234571	2
1	2712	1623.107802862735	2
1	2713	1623.273575613122	2
1	2714	1624.026433951922	1
1	2715	1625.961044955171	0
1	2717	1628.387158236546	0
1	2718	1628.541363443692	0
1	2720	1630.187684331664	0
1	2721	1635.249900833693	0
1	2723	1635.537576955357	0
1	2724	1637.778282623004	0
1	2726	1638.907262029684	0
1	2727	1639.908844685216	0
1	2731	1640.785468065572	0
1	2733	1642.911581322897	0
1	2735	1644.075271516028	0
1	2737	1645.346802929745	1
1	2739	1645.964040692688	2
1	2741	1647.097997462179	3
1	2743	1647.159247283636	4
1	2744	1647.240309554271	4
1	2746	1647.438535946086	4
1	2747	1648.502314433671	4
1	2748	1648.577117636633	3
1	2749	1649.348479149243	2
1	2751	1649.359682651179	2
1	2752	1649.553937365409	2
1	2754	1650.015358094084	2
1	2755	1650.977503375117	2
1	2756	1652.03250579174	1
1	2758	1653.257284644911	1
1	2759	1655.419738946137	1
1	2760	1657.152357473295	0
1	2762	1658.274108963167	0
1	2764	1658.938420984103	1
1	2766	1659.001046624495	2
1	2767	1659.247723938068	2
1	2768	1659.385465935125	1
1	2769	1660.324851081298	0
1	2771	1666.349247765726	0
1	2773	1666.467948587005	1
1	2775	1666.912266401633	2
1	2777	1667.121837169799	3
1	2778	1667.961470419697	3
1	2780	1668.267329910184	3
1	2781	1668.35512367576	3
1	2783	1668.529335561226	3
1	2784	1669.558843105369	3
1	2785	1670.83045604901	2
1	2786	1672.305079291787	1
1	2788	1672.618609314758	1
1	2789	1673.106921923244	1
1	2791	1676.459873281927	1
1	2793	1677.145343403286	2
1	2795	1677.151204917746	3
1	2796	1677.823176056828	3
1	2798	1678.009205000199	3
1	2799	1678.169084196955	3
1	2801	1678.413086650707	3
1	2803	1678.527900788125	4
1	2804	1679.797806093587	4
1	2805	1681.004153363985	3
1	2806	1681.399134544496	2
1	2807	1681.479436586643	1
1	2808	1682.868258910234	0
1	2810	1682.99669553806	0
1	2811	1683.275924270152	0
1	2813	1685.736514441718	0
1	2814	1685.778145437856	0
1	2816	1690.427812283778	0
1	2818	1690.450687118295	1
1	2819	1690.865606664337	1
1	2821	1691.35810363759	1
1	2822	1691.979391743027	1
1	2823	1692.794838133936	0
1	2825	1696.973496656457	0
1	2826	1697.152090095899	0
1	2828	1700.129161130204	0
1	2829	1700.732133539918	0
1	2831	1704.802500814272	0
1	2832	1706.173579767369	0
1	2834	1710.934231165068	0
1	2835	1711.58216100137	0
1	2837	1714.68155587444	0
1	2839	1714.747756908912	1
1	2840	1714.810905636143	1
1	2841	1717.94551638519	0
1	2843	1722.151514986056	0
1	2844	1722.304555704357	0
1	2846	1727.111947074467	0
1	2847	1727.34824425339	0
1	2849	1727.778545754471	0
1	2850	1727.798671655116	0
1	2852	1731.436609560975	0
1	2853	1732.127640776583	0
1	2855	1733.338382482948	0
1	2856	1733.430277338965	0
1	2861	1741.663897702541	0
1	2862	1742.266911189939	0
1	2864	1742.551139191338	0
1	2865	1742.984688108967	0
1	2867	1743.826628879368	0
1	2869	1743.831532080184	1
1	2870	1744.099154203643	1
1	2871	1744.476167585388	0
1	2873	1747.444060686307	0
1	2875	1747.812859057279	1
1	2876	1747.819388898715	1
1	2877	1747.964455199741	0
1	2879	1749.287361940297	0
1	2880	1749.40995869506	0
1	2882	1749.633530948294	0
1	2884	1749.693485686263	1
1	2885	1750.962198704744	1
1	2887	1751.245096158478	1
1	2889	1751.262505617087	2
1	2890	1751.275991870836	2
1	2891	1753.007069975797	1
1	2893	1753.221285774791	1
1	2894	1756.756370259185	1
1	2895	1756.950937457872	0
1	2897	1757.234221169401	0
1	2898	1757.24115453341	0
1	2900	1762.046095611864	0
1	2901	1762.41434005111	0
1	2903	1763.159194240688	0
1	2904	1763.422236548611	0
1	2906	1764.203340071029	0
1	2907	1764.663010559063	0
1	2909	1765.49074382378	0
1	2910	1765.551053763628	0
1	2912	1766.021396135824	0
1	2914	1766.135475761712	1
1	2918	1769.425035652199	1
1	2920	1770.117416462794	1
1	2921	1770.643471541288	1
1	2923	1770.993047197887	1
1	2924	1771.248306618822	1
1	2926	1771.33183027378	1
1	2927	1771.834478263528	1
1	2929	1772.187428563434	1
1	2930	1772.558777637956	1
1	2931	1773.70884722718	0
1	2933	1774.339327702939	0
1	2935	1774.973874049369	1
1	2936	1776.522876990929	1
1	2937	1776.998053054955	0
1	2939	1777.114909727739	0
1	2940	1777.255307226421	0
1	2942	1779.641287059595	0
1	2943	1779.676277464272	0
1	2945	1779.932326488868	0
1	2946	1780.563951746505	0
1	2948	1780.785149165912	0
1	2949	1782.322845345674	0
1	2951	1784.925506725967	0
1	2952	1787.97247617869	0
1	2954	1788.168596832418	0
1	2955	1789.394721665996	0
1	2957	1789.948305940945	0
1	2958	1790.2043584238	0
1	2960	1791.631990611814	0
1	2962	1792.567157013112	1
1	2963	1793.039589725921	1
1	2964	1793.681846226418	0
1	2966	1795.037473419261	0
1	2968	1797.533757309523	1
1	2969	1797.780598898172	1
1	2971	1798.522742032247	1
1	2972	1800.243260756543	1
1	2973	1801.003466139566	0
1	2975	1802.680231415151	0
1	2977	1802.973565968013	1
1	2979	1804.707593718326	2
1	2981	1805.344282138446	3
1	2982	1806.253788143611	3
1	2983	1806.557218318844	2
1	2985	1807.199146970303	2
1	2986	1807.467448630843	2
1	2987	1808.143773712045	1
1	2989	1808.973361317915	1
1	2991	1809.16450963681	2
1	2992	1810.539537317417	2
1	2993	1811.535021994715	1
1	2994	1811.932495203063	0
1	2996	1814.004599537765	0
1	2997	1814.016212929577	0
1	2999	1815.832703623598	0
1	3000	1817.572884752473	0
1	3002	1818.606947340553	0
1	3004	1819.785942392337	1
1	3005	1820.58989762667	1
1	3007	1820.688083939217	1
1	3009	1821.423698264461	2
1	3011	1822.190719071125	3
1	3015	1824.479654065171	4
1	3018	1825.631287956185	5
1	3019	1826.325813778268	5
1	3021	1826.935013272506	5
1	3022	1827.233773793713	5
1	3023	1827.467949143543	4
1	3025	1828.043846676546	4
1	3026	1828.418721969952	4
1	3027	1828.85647264106	3
1	3029	1829.02690018065	3
1	3030	1830.019842424306	3
1	3031	1830.788396094013	2
1	3032	1831.008377990002	1
1	3033	1831.674841156644	0
1	3035	1832.548518704297	0
1	3036	1833.285029068173	0
1	3038	1833.471471116684	0
1	3042	1834.128376058879	0
1	3044	1836.636263192279	0
1	3045	1837.125104912545	0
1	3047	1837.264473210152	0
1	3048	1837.783008804809	0
1	3052	1837.859836334743	0
1	3054	1837.946014339346	1
1	3056	1838.494575304298	1
1	3058	1838.985394604313	1
1	3060	1839.519728629199	2
1	3061	1840.370520156459	2
1	3063	1841.108069187472	2
1	3064	1841.253740463225	2
1	3065	1841.975082226705	1
1	3067	1842.505180845516	1
1	3068	1842.562519019771	1
1	3069	1844.055790893251	0
1	3071	1844.480435271398	0
1	3072	1845.089504049767	0
1	3074	1845.627111875758	0
1	3076	1845.918799026895	1
1	3078	1846.2841309181	2
1	3079	1846.948689166817	2
1	3080	1847.073177619194	1
1	3081	1847.483449237694	0
1	3083	1848.477740709052	0
1	3084	1849.231052872658	0
1	3086	1850.430822851216	0
1	3088	1850.48148429775	1
1	3090	1850.690090257572	2
1	3091	1851.187602886622	2
1	3092	1852.086811905758	1
1	3093	1852.111822415344	0
1	3095	1855.915213817679	0
1	3096	1855.931826651636	0
1	3098	1856.620396538656	0
1	3100	1856.931575895482	1
1	3101	1857.019894402129	1
1	3102	1857.14160471502	0
1	3104	1858.179325825318	0
1	3105	1858.264776993086	0
1	3107	1859.598524386805	0
1	3108	1861.788087444438	0
1	3110	1862.488917157634	0
1	3112	1863.693361254412	1
1	3113	1865.285239008191	1
1	3115	1866.004838692615	1
1	3116	1866.279048045389	1
1	3117	1866.821645876651	0
1	3119	1867.304037903888	0
1	3120	1867.457909054574	0
1	3122	1869.569151706856	0
1	3123	1871.499102598169	0
1	3125	1875.957501971168	0
1	3126	1876.4873751406	0
1	3128	1879.95285257769	0
1	3130	1881.754147507102	1
1	3131	1881.875015741411	1
1	3132	1882.255385854999	0
1	3134	1885.549398668832	0
1	3136	1887.59332746457	1
1	3140	1887.83882571683	2
1	3142	1888.295655023612	2
1	3144	1888.501439325879	2
1	3145	1888.664918058907	2
1	3146	1890.753928328897	1
1	3147	1890.849757668791	0
1	3151	1891.375220975428	0
1	3153	1891.531254009005	0
1	3155	1893.544306081305	0
1	3157	1893.677765136189	1
1	3158	1894.889674183061	1
1	3159	1895.610596511754	0
1	3161	1900.094345926553	0
1	3162	1900.638599701441	0
1	3164	1904.097403809788	0
1	3165	1904.47451173468	0
1	3167	1905.699511069393	0
1	3168	1906.269777134157	0
1	3170	1906.563193784632	0
1	3171	1906.605074391375	0
1	3173	1906.720836687723	0
1	3174	1907.523043424719	0
1	3176	1907.827571655265	0
1	3177	1908.099688379821	0
1	3179	1910.391145749507	0
1	3181	1910.453738888077	1
1	3183	1911.340595239605	2
1	3185	1912.116309193505	3
1	3186	1912.33353556268	3
1	3187	1912.380584841421	2
1	3188	1912.499862192798	1
1	3189	1913.993668829509	0
1	3191	1914.625959086133	0
1	3192	1914.98130037352	0
1	3194	1915.987711003375	0
1	3195	1916.21513525609	0
1	3197	1919.197219410819	0
1	3199	1919.977443779356	1
1	3203	1923.667816560903	2
1	3205	1923.976443198999	3
1	3207	1924.039161909686	4
1	3209	1924.542897516527	4
1	3210	1924.901554396624	3
1	3211	1925.831484557939	2
1	3213	1925.905010951448	2
1	3215	1926.677545336213	3
1	3217	1928.327848504283	4
1	3218	1928.658076675604	4
1	3219	1930.597492317537	3
1	3221	1930.88809990411	3
1	3222	1932.389941142019	3
1	3223	1932.686223098337	2
1	3224	1936.09550198335	1
1	3225	1936.944180498332	0
1	3227	1944.420473634661	0
1	3228	1944.849833301181	0
1	3230	1947.785083657417	0
1	3231	1949.181424463313	0
1	3233	1951.229882493483	0
1	3235	1951.999922168661	1
1	3236	1952.434323646811	1
1	3237	1954.079030854738	0
1	3239	1955.225470050842	0
1	3240	1957.397787345699	0
1	3242	1962.29548596745	0
1	3243	1964.3418470749	0
1	3248	1968.76383152786	0
1	3249	1970.332431471484	0
1	3251	1970.835961624206	0
1	3253	1971.036447025201	1
1	3255	1971.938419047308	2
1	3256	1971.942632801689	2
1	3258	1974.45464398541	2
1	3259	1974.911990028988	2
1	3261	1974.933160449799	2
1	3263	1975.051202355624	3
1	3265	1975.144297709107	4
1	3266	1975.608621455434	4
1	3267	1978.529473533045	3
1	3268	1978.562816533053	2
1	3270	1979.39238044931	2
1	3271	1979.532175206113	2
1	3272	1980.236269250639	1
1	3274	1980.67022131203	1
1	3275	1981.625998587693	1
1	3277	1982.379279072162	1
1	3278	1982.458151797885	1
1	3280	1983.467291663524	1
1	3282	1983.548674902715	2
1	3283	1984.208020352735	2
1	3284	1984.209989606004	1
1	3286	1984.500689863911	1
1	3287	1984.561149194663	1
1	3288	1985.408947598935	0
1	3290	1987.073889728829	0
1	3291	1987.359765386536	0
1	3293	1988.416667578501	0
1	3295	1988.668718321216	1
1	3297	1988.867089903503	2
1	3299	1989.727571478286	3
1	3300	1992.121883735583	3
1	3302	1992.765745196188	3
1	3306	1994.646878035212	3
1	3307	1995.319911332745	2
1	3308	1996.668547739858	1
1	3309	1996.800378520274	0
1	3311	1997.981120013133	0
1	3313	1998.785080488527	1
1	3314	1999.845004397698	1
1	3315	2000.459740097347	0
1	3317	2001.399318388063	0
1	3319	2001.569264882543	1
1	3320	2001.658583861099	1
1	3322	2001.868466283754	1
1	3323	2003.040375946248	1
1	3324	2003.701878515698	0
1	3326	2004.785878355912	0
1	3327	2005.119096717466	0
1	3335	2011.18403128718	0
1	3336	2011.241544633758	0
1	3338	2012.381356660616	0
1	3339	2012.514800879659	0
1	3343	2015.008043461539	0
1	3345	2015.817853772722	0
1	3347	2016.098360210891	0
1	3348	2016.367353745426	0
1	3350	2017.106702691788	0
1	3351	2017.222169972936	0
1	3353	2019.306016328654	0
1	3355	2019.587816284498	1
1	3357	2022.193246707279	2
1	3358	2023.528531002898	2
1	3359	2023.856174166734	1
1	3360	2024.005176205087	0
1	3362	2024.292045375212	0
1	3363	2024.570715813634	0
1	3365	2028.254197280395	0
1	3366	2028.369812167694	0
1	3368	2029.16176061048	0
1	3369	2029.206435032785	0
1	3371	2029.631443729394	0
1	3372	2030.015567533943	0
1	3374	2030.29337816026	0
1	3376	2030.833593996896	1
1	3377	2030.886060273815	1
1	3378	2031.244821259616	0
1	3380	2031.999629423915	0
1	3381	2033.119138922809	0
1	3383	2034.167016297843	0
1	3384	2034.434662025828	0
1	3386	2038.075692822915	0
1	3387	2038.633795439096	0
1	3389	2038.878682729893	0
1	3390	2039.351932996994	0
1	3392	2039.700111362143	0
1	3394	2039.975878808018	1
1	3396	2040.115705926099	2
1	3398	2040.348987686595	3
1	3400	2040.940923125984	4
1	3402	2041.512279689401	5
1	3403	2042.581403114603	5
1	3404	2042.699402407767	4
1	3405	2042.739917085697	3
1	3406	2042.769232011142	2
1	3408	2042.958244006926	2
1	3410	2043.131386122285	3
1	3411	2043.767388732772	3
1	3413	2044.311000100741	3
1	3414	2046.071087398386	3
1	3415	2046.393773196934	2
1	3417	2047.819642403594	2
1	3419	2048.735630704796	3
1	3420	2048.864474504499	3
1	3421	2049.783678828019	2
1	3422	2050.958305814054	1
1	3423	2051.300395246092	0
1	3425	2052.596589700533	0
1	3426	2052.838083033533	0
1	3428	2055.235725957324	0
1	3430	2055.54286292179	1
1	3431	2055.82980132395	1
1	3432	2056.524082619568	0
1	3434	2057.922380825953	0
1	3435	2058.272527395347	0
1	3437	2058.749272495435	0
1	3439	2059.139963400727	1
1	3440	2059.15135034354	1
1	3441	2061.031056512681	0
1	3443	2064.210151544563	0
1	3445	2064.44219313562	1
1	3450	2065.581480562997	2
1	3451	2065.922400667153	2
1	3453	2065.984700821403	2
1	3455	2066.30850483109	3
1	3456	2066.490586865704	3
1	3457	2066.779511747054	2
1	3458	2067.113903775189	1
1	3459	2068.959459272924	0
1	3461	2069.204796811488	0
1	3462	2069.319497527676	0
1	3466	2070.010914648276	0
1	3468	2072.300228599104	0
1	3470	2073.135849228563	0
1	3471	2073.762868913936	0
1	3473	2075.718172928078	0
1	3474	2076.062993164992	0
1	3476	2078.123040614053	0
1	3477	2078.377945929442	0
1	3479	2078.54886025502	0
1	3480	2078.846213527396	0
1	3485	2084.250414415562	0
1	3487	2084.335929126303	1
1	3489	2084.577806317718	2
1	3490	2084.863243379576	2
1	3492	2086.101747902865	2
1	3494	2086.606997976244	3
1	3495	2086.90658718418	3
1	3496	2087.703327398774	2
1	3498	2087.925081580194	2
1	3500	2088.171028991458	3
1	3501	2088.834706266703	3
1	3502	2088.889564364602	2
1	3503	2089.085732088687	1
1	3505	2089.220877312681	1
1	3507	2090.393998273415	2
1	3508	2091.338139717743	2
1	3509	2092.85439865876	1
1	3510	2093.220003329591	0
1	3512	2093.528149735624	0
1	3513	2095.409070061287	0
1	3515	2096.96192919689	0
1	3517	2097.026767226743	1
1	3519	2097.206935536962	2
1	3520	2098.270187932481	2
1	3522	2098.532719517781	2
1	3523	2099.04640079295	2
1	3524	2099.086963375305	1
1	3526	2099.336848156994	1
1	3528	2100.706297534704	2
1	3530	2102.351717654464	3
1	3534	2104.736563505442	3
[...]
4	3980	2404.015237193505	1
4	3983	2405.981192524327	1
4	3986	2409.502931222892	1
4	3988	2410.006842313362	2
4	3990	2410.613492686164	3
4	3992	2410.825654718483	4
4	3996	2413.145599426608	3
4	3999	2414.30510173308	3
4	4007	2417.61212606212	1
4	4010	2419.521381440849	1
4	4016	2421.323953955635	1
4	4019	2426.153828294506	1
4	4022	2428.644708836044	1
4	4024	2429.169483659139	2
4	4027	2431.750394571906	2
4	4031	2433.882488349685	1
4	4033	2434.025941533768	2
4	4035	2434.32016941105	3
4	4037	2434.719209978584	4
4	4039	2434.980181590628	5
4	4043	2436.79484750099	4
4	4045	2436.847814852325	5
4	4047	2437.408396177768	6
4	4049	2437.43027896135	7
4	4051	2441.225479629824	8
4	4055	2442.619711501606	7
4	4064	2448.456073820078	1
4	4066	2449.057427201295	2
4	4068	2449.113910695785	3
4	4072	2449.687426825716	2
4	4074	2450.433287548386	3
4	4076	2451.29620852233	4
4	4082	2454.591746418533	1
4	4085	2459.658487636981	1
4	4088	2463.001473102531	1
4	4091	2463.326441201533	1
4	4093	2464.387599904512	2
4	4095	2464.869007416157	3
4	4097	2465.262167288899	4
4	4102	2466.843944182127	2
4	4106	2469.318669335267	1
4	4109	2471.294088453707	1
4	4111	2472.036979025209	2
4	4115	2475.481376595608	1
4	4117	2477.212651347907	2
4	4121	2478.361686330302	1
4	4124	2479.414914542993	1
4	4126	2479.838101871909	2
4	4129	2481.14417030419	2
4	4132	2481.349760816943	2
4	4134	2481.981933013205	3
4	4139	2485.867915663778	1
4	4142	2487.561934424039	1
4	4145	2488.621432231437	1
4	4148	2492.054415943457	1
4	4150	2492.078836216348	2
4	4152	2492.933022930807	3
4	4154	2493.106764677942	4
4	4156	2493.220853939927	5
4	4158	2493.321938316877	6
4	4163	2495.775169905555	4
4	4165	2496.332018017206	5
4	4169	2497.77000138524	4
4	4172	2498.387371102467	4
4	4174	2498.624601337695	5
4	4177	2499.838249075046	5
5	632	353.492191333855	1
5	641	361.358890033519	1
5	653	368.78043457168	1
5	669	380.352000414881	1
5	683	388.861516406107	1
5	691	391.757141693541	1
5	713	400.427176001047	1
5	749	418.490878757168	1
5	755	421.634878531556	1
5	872	498.166435993675	1
5	1000	570.157955171208	1
5	1003	572.013697630046	1
5	1073	619.990869827664	1
5	1085	626.951996879465	1
5	1112	643.369658326367	1
5	1121	648.833252517114	1
5	1127	656.358877459783	1
5	1152	670.89757570658	1
5	1224	714.718457972752	1
5	1227	715.659682895607	1
5	1257	738.112029162346	1
5	1265	744.260440483758	1
5	1274	754.18205261004	1
5	1309	776.438308007573	1
5	1337	790.590701076314	1
5	1381	821.734270542422	1
5	1420	836.585368277	1
5	1442	845.649693670463	1
5	1519	898.271736045084	1
5	1529	900.679632703256	1
5	1553	917.623000115617	1
5	1564	921.272436396995	1
5	1599	943.345188572361	1
5	1601	943.713555040912	2
5	1605	944.787028829265	1
5	1646	975.864205792521	1
5	1658	983.786107803526	1
5	1670	990.276985011205	1
5	1675	991.438078315617	1
5	1741	1031.498604334519	1
5	1756	1035.463420870607	1
5	1785	1050.509505621411	1
5	1867	1102.565256430476	1
5	1901	1126.178327443082	1
5	1997	1181.795656424566	1
5	2000	1182.879317771439	1
5	2048	1207.921071308651	1
5	2088	1237.592404539237	1
5	2139	1263.979150557185	1
5	2157	1268.471674512885	1
5	2184	1280.860231261121	1
5	2186	1281.213159268324	2
5	2263	1334.781804229055	1
5	2276	1342.435565038599	1
5	2287	1352.867238912116	1
5	2324	1375.309585504405	1
5	2355	1398.299642162285	1
5	2370	1404.77742651609	1
5	2402	1425.76906201151	1
5	2405	1430.384050855711	1
5	2432	1448.648219502481	1
5	2498	1492.015021764522	1
5	2507	1497.036609395997	1
5	2551	1523.329877500482	1
5	2588	1546.266431360994	1
5	2672	1598.33928803856	1
5	2729	1640.4232040738	1
5	2858	1735.467369980249	1
5	2916	1767.330518862194	1
5	3013	1822.296353712127	1
5	3040	1833.60911008917	1
5	3050	1837.832209965198	1
5	3138	1887.823250840407	1
5	3149	1891.218272816414	1
5	3201	1921.668223527153	1
5	3245	1967.396434143435	1
5	3304	1993.270757791483	1
5	3329	2005.425083293427	1
5	3332	2008.092390160378	1
5	3341	2014.950917893618	1
5	3447	2064.563262874183	1
5	3464	2069.515851758278	1
5	3482	2079.326869143163	1
5	3532	2103.346587578668	1
5	3544	2110.335738409846	1
5	3581	2125.044740041305	1
5	3607	2144.225125355446	1
5	3620	2150.527057442777	1
5	3650	2163.143513135241	1
5	3695	2210.697394252604	1
5	3709	2216.593915740708	1
5	3802	2277.88009486364	1
5	3862	2314.406601838302	1
5	3965	2396.152750829857	1
5	3972	2400.088119842539	1
5	4001	2414.679708258506	1
5	4013	2419.832186906069	1
6	632	353.492191333855	0
6	633	354.383774032691	0
6	641	361.358890033519	0
6	642	362.921831348402	0
6	653	368.78043457168	0
6	654	369.44946645695	0
6	669	380.352000414881	0
6	672	382.171984104185	0
6	683	388.861516406107	0
6	684	389.053092718949	0
6	691	391.757141693541	0
6	692	391.936249835219	0
6	713	400.427176001047	0
6	714	400.673310016518	0
6	749	418.490878757168	0
6	750	419.544225754876	0
6	755	421.634878531556	0
6	756	422.675445170596	0
6	872	498.166435993675	0
6	873	498.937169741107	0
6	1000	570.157955171208	0
6	1001	570.445412483041	0
6	1003	572.013697630046	0
6	1004	572.139399841211	0
6	1073	619.990869827664	0
6	1074	620.518922975679	0
6	1085	626.951996879465	0
6	1086	627.896515278842	0
6	1112	643.369658326367	0
6	1113	643.418560570884	0
6	1121	648.833252517114	0
6	1122	649.008560842816	0
6	1127	656.358877459783	0
6	1128	656.749771685031	0
6	1152	670.89757570658	0
6	1153	671.111039524144	0
6	1224	714.718457972752	0
6	1225	715.064054174669	0
6	1227	715.659682895607	0
6	1228	715.848031872715	0
6	1257	738.112029162346	0
6	1258	738.701556245594	0
6	1265	744.260440483758	0
6	1266	745.573757827421	0
6	1274	754.18205261004	0
6	1275	754.244220404165	0
6	1309	776.438308007573	0
6	1310	777.06773648964	0
6	1337	790.590701076314	0
6	1342	791.995723273387	0
6	1381	821.734270542422	0
6	1382	822.269438521597	0
6	1420	836.585368277	0
6	1427	837.889938272251	0
6	1442	845.649693670463	0
6	1443	845.68098573972	0
6	1519	898.271736045084	0
6	1520	899.103595882662	0
6	1529	900.679632703256	0
6	1530	900.740184099533	0
6	1553	917.623000115617	0
6	1556	918.875188150743	0
6	1564	921.272436396995	0
6	1565	921.506104557521	0
6	1599	943.345188572361	0
6	1601	943.713555040912	1
6	1602	944.218314661702	1
6	1603	944.236917790358	0
6	1605	944.787028829265	0
6	1606	945.806291584605	0
6	1646	975.864205792521	0
6	1649	977.078899642342	0
6	1658	983.786107803526	0
6	1659	985.371822987996	0
6	1670	990.276985011205	0
6	1673	991.34156259677	0
6	1675	991.438078315617	0
6	1676	993.474388048665	0
6	1741	1031.498604334519	0
6	1746	1032.129356773265	0
6	1756	1035.463420870607	0
6	1759	1035.894191325466	0
6	1785	1050.509505621411	0
6	1786	1051.021786877686	0
6	1867	1102.565256430476	0
6	1868	1102.933280860179	0
6	1901	1126.178327443082	0
6	1904	1128.082789180136	0
6	1997	1181.795656424566	0
6	1998	1182.721300586277	0
6	2000	1182.879317771439	0
6	2005	1185.096255189016	0
6	2048	1207.921071308651	0
6	2051	1208.386522406881	0
6	2088	1237.592404539237	0
6	2089	1237.620095416221	0
6	2139	1263.979150557185	0
6	2144	1265.972595268289	0
6	2157	1268.471674512885	0
6	2158	1269.529027058314	0
6	2184	1280.860231261121	0
6	2186	1281.213159268324	1
6	2187	1282.103615327533	1
6	2188	1282.18656541354	0
6	2263	1334.781804229055	0
6	2264	1335.331763725126	0
6	2276	1342.435565038599	0
6	2277	1343.620814986343	0
6	2287	1352.867238912116	0
6	2290	1354.964102836706	0
6	2324	1375.309585504405	0
6	2325	1376.727770382959	0
6	2355	1398.299642162285	0
6	2356	1398.318930185478	0
6	2370	1404.77742651609	0
6	2375	1407.365045492818	0
6	2402	1425.76906201151	0
6	2403	1426.380764101049	0
6	2405	1430.384050855711	0
6	2408	1432.3605147928	0
6	2432	1448.648219502481	0
6	2433	1448.833481928974	0
6	2498	1492.015021764522	0
6	2503	1494.459458659141	0
6	2507	1497.036609395997	0
6	2508	1498.88732128084	0
6	2551	1523.329877500482	0
6	2552	1523.336742297088	0
6	2588	1546.266431360994	0
6	2589	1546.399341014247	0
6	2672	1598.33928803856	0
6	2675	1602.192516325904	0
6	2729	1640.4232040738	0
6	2732	1641.781574142008	0
6	2858	1735.467369980249	0
6	2859	1735.579228127981	0
6	2916	1767.330518862194	0
6	2917	1769.211772415508	0
6	3013	1822.296353712127	0
6	3016	1825.218622236276	0
6	3040	1833.60911008917	0
6	3041	1833.800737297679	0
6	3050	1837.832209965198	0
6	3055	1837.953138842688	0
6	3138	1887.823250840407	0
6	3141	1888.139899009757	0
6	3149	1891.218272816414	0
6	3152	1891.510468658118	0
6	3201	1921.668223527153	0
6	3208	1924.211901477773	0
6	3245	1967.396434143435	0
6	3246	1968.532672579983	0
6	3304	1993.270757791483	0
6	3305	1994.319286978556	0
6	3329	2005.425083293427	0
6	3330	2005.699467064023	0
6	3332	2008.092390160378	0
6	3333	2008.473423402489	0
6	3341	2014.950917893618	0
6	3344	2015.511494578203	0
6	3447	2064.563262874183	0
6	3448	2065.09947075878	0
6	3464	2069.515851758278	0
6	3467	2071.459421316957	0
6	3482	2079.326869143163	0
6	3483	2079.506496768122	0
6	3532	2103.346587578668	0
6	3533	2103.443009187039	0
6	3544	2110.335738409846	0
6	3545	2110.554403289845	0
6	3581	2125.044740041305	0
6	3582	2126.150359195759	0
6	3607	2144.225125355446	0
6	3608	2144.444762610456	0
6	3620	2150.527057442777	0
6	3627	2151.062888923424	0
6	3650	2163.143513135241	0
6	3653	2165.058002456198	0
6	3695	2210.697394252604	0
6	3698	2212.216557342481	0
6	3709	2216.593915740708	0
6	3712	2217.761796282533	0
6	3802	2277.88009486364	0
6	3807	2279.818492283647	0
6	3862	2314.406601838302	0
6	3863	2314.514402667907	0
6	3965	2396.152750829857	0
6	3970	2399.324915446388	0
6	3972	2400.088119842539	0
6	3973	2400.483723168623	0
6	4001	2414.679708258506	0
6	4002	2415.840577888924	0
6	4013	2419.832186906069	0
6	4014	2420.701070773519	0
7	632	353.492191333855	0
7	641	361.358890033519	0
7	653	368.78043457168	0
7	669	380.352000414881	0
7	683	388.861516406107	0
7	691	391.757141693541	0
7	713	400.427176001047	0
7	749	418.490878757168	0
7	755	421.634878531556	0
7	872	498.166435993675	0
7	1000	570.157955171208	0
7	1003	572.013697630046	0
7	1073	619.990869827664	0
7	1085	626.951996879465	0
7	1112	643.369658326367	0
7	1121	648.833252517114	0
7	1127	656.358877459783	0
7	1152	670.89757570658	0
7	1224	714.718457972752	0
7	1227	715.659682895607	0
7	1257	738.112029162346	0
7	1265	744.260440483758	0
7	1274	754.18205261004	0
7	1309	776.438308007573	0
7	1337	790.590701076314	0
7	1381	821.734270542422	0
7	1420	836.585368277	0
7	1442	845.649693670463	0
7	1519	898.271736045084	0
7	1529	900.679632703256	0
7	1553	917.623000115617	0
7	1564	921.272436396995	0
7	1599	943.345188572361	0
7	1602	944.218314661702	0.50475962079
7	1605	944.787028829265	0
7	1646	975.864205792521	0
7	1658	983.786107803526	0
7	1670	990.276985011205	0
7	1675	991.438078315617	0
7	1741	1031.498604334519	0
7	1756	1035.463420870607	0
7	1785	1050.509505621411	0
7	1867	1102.565256430476	0
7	1901	1126.178327443082	0
7	1997	1181.795656424566	0
7	2000	1182.879317771439	0
7	2048	1207.921071308651	0
7	2088	1237.592404539237	0
7	2139	1263.979150557185	0
7	2157	1268.471674512885	0
7	2184	1280.860231261121	0
7	2187	1282.103615327533	0.890456059209
7	2263	1334.781804229055	0
7	2276	1342.435565038599	0
7	2287	1352.867238912116	0
7	2324	1375.309585504405	0
7	2355	1398.299642162285	0
7	2370	1404.77742651609	0
7	2402	1425.76906201151	0
7	2405	1430.384050855711	0
7	2432	1448.648219502481	0
7	2498	1492.015021764522	0
7	2507	1497.036609395997	0
7	2551	1523.329877500482	0
7	2588	1546.266431360994	0
7	2672	1598.33928803856	0
7	2729	1640.4232040738	0
7	2858	1735.467369980249	0
7	2916	1767.330518862194	0
7	3013	1822.296353712127	0
7	3040	1833.60911008917	0
7	3050	1837.832209965198	0
7	3138	1887.823250840407	0
7	3149	1891.218272816414	0
7	3201	1921.668223527153	0
7	3245	1967.396434143435	0
7	3304	1993.270757791483	0
7	3329	2005.425083293427	0
7	3332	2008.092390160378	0
7	3341	2014.950917893618	0
7	3447	2064.563262874183	0
7	3464	2069.515851758278	0
7	3482	2079.326869143163	0
7	3532	2103.346587578668	0
7	3544	2110.335738409846	0
7	3581	2125.044740041305	0
7	3607	2144.225125355446	0
7	3620	2150.527057442777	0
7	3650	2163.143513135241	0
7	3695	2210.697394252604	0
7	3709	2216.593915740708	0
7	3802	2277.88009486364	0
7	3862	2314.406601838302	0
7	3965	2396.152750829857	0
7	3972	2400.088119842539	0
7	4001	2414.679708258506	0
7	4013	2419.832186906069	0
8	633	354.383774032691	17
8	642	362.921831348402	18
8	654	369.44946645695	19
8	672	382.171984104185	20
8	684	389.053092718949	21
8	692	391.936249835219	22
8	714	400.673310016518	23
8	750	419.544225754876	24
8	756	422.675445170596	25
8	873	498.937169741107	26
8	1001	570.445412483041	27
8	1004	572.139399841211	28
8	1074	620.518922975679	29
8	1086	627.896515278842	30
8	1113	643.418560570884	31
8	1122	649.008560842816	32
8	1128	656.749771685031	33
8	1153	671.111039524144	34
8	1225	715.064054174669	35
8	1228	715.848031872715	36
8	1258	738.701556245594	37
8	1266	745.573757827421	38
8	1275	754.244220404165	39
8	1310	777.06773648964	40
8	1342	791.995723273387	41
8	1382	822.269438521597	42
8	1427	837.889938272251	43
8	1443	845.68098573972	44
8	1520	899.103595882662	45
8	1530	900.740184099533	46
8	1556	918.875188150743	47
8	1565	921.506104557521	48
8	1602	944.218314661702	49
8	1603	944.236917790358	50
8	1606	945.806291584605	51
8	1649	977.078899642342	52
8	1659	985.371822987996	53
8	1673	991.34156259677	54
8	1676	993.474388048665	55
8	1746	1032.129356773265	56
8	1759	1035.894191325466	57
8	1786	1051.021786877686	58
8	1868	1102.933280860179	59
8	1904	1128.082789180136	60
8	1998	1182.721300586277	61
8	2005	1185.096255189016	62
8	2051	1208.386522406881	63
8	2089	1237.620095416221	64
8	2144	1265.972595268289	65
8	2158	1269.529027058314	66
8	2187	1282.103615327533	67
8	2188	1282.18656541354	68
8	2264	1335.331763725126	69
8	2277	1343.620814986343	70
8	2290	1354.964102836706	71
8	2325	1376.727770382959	72
8	2356	1398.318930185478	73
8	2375	1407.365045492818	74
8	2403	1426.380764101049	75
8	2408	1432.3605147928	76
8	2433	1448.833481928974	77
8	2503	1494.459458659141	78
8	2508	1498.88732128084	79
8	2552	1523.336742297088	80
8	2589	1546.399341014247	81
8	2675	1602.192516325904	82
8	2732	1641.781574142008	83
8	2859	1735.579228127981	84
8	2917	1769.211772415508	85
8	3016	1825.218622236276	86
8	3041	1833.800737297679	87
8	3055	1837.953138842688	88
8	3141	1888.139899009757	89
8	3152	1891.510468658118	90
8	3208	1924.211901477773	91
8	3246	1968.532672579983	92
8	3305	1994.319286978556	93
8	3330	2005.699467064023	94
8	3333	2008.473423402489	95
8	3344	2015.511494578203	96
8	3448	2065.09947075878	97
8	3467	2071.459421316957	98
8	3483	2079.506496768122	99
8	3533	2103.443009187039	100
8	3545	2110.554403289845	101
8	3582	2126.150359195759	102
8	3608	2144.444762610456	103
8	3627	2151.062888923424	104
8	3653	2165.058002456198	105
8	3698	2212.216557342481	106
8	3712	2217.761796282533	107
8	3807	2279.818492283647	108
8	3863	2314.514402667907	109
8	3970	2399.324915446388	110
8	3973	2400.483723168623	111
8	4002	2415.840577888924	112
8	4014	2420.701070773519	113
9	633	354.383774032691	0.891582698836
9	642	362.921831348402	1.562941314883
9	654	369.44946645695	0.66903188527
9	672	382.171984104185	1.819983689304
9	684	389.053092718949	0.191576312842
9	692	391.936249835219	0.179108141678
9	714	400.673310016518	0.246134015471
9	750	419.544225754876	1.053346997708
9	756	422.675445170596	1.04056663904
9	873	498.937169741107	0.770733747432
9	1001	570.445412483041	0.287457311833
9	1004	572.139399841211	0.125702211165
9	1074	620.518922975679	0.528053148015
9	1086	627.896515278842	0.944518399377
9	1113	643.418560570884	0.048902244517
9	1122	649.008560842816	0.175308325702
9	1128	656.749771685031	0.390894225248
9	1153	671.111039524144	0.213463817564
9	1225	715.064054174669	0.345596201917
9	1228	715.848031872715	0.188348977108
9	1258	738.701556245594	0.589527083248
9	1266	745.573757827421	1.313317343663
9	1275	754.244220404165	0.062167794125
9	1310	777.06773648964	0.629428482067
9	1342	791.995723273387	1.405022197073
9	1382	822.269438521597	0.535167979175
9	1427	837.889938272251	1.304569995251
9	1443	845.68098573972	0.031292069257
9	1520	899.103595882662	0.831859837578
9	1530	900.740184099533	0.060551396277
9	1556	918.875188150743	1.252188035126
9	1565	921.506104557521	0.233668160526
9	1602	944.218314661702	0.873126089341
9	1603	944.236917790358	0.523362749446
9	1606	945.806291584605	1.01926275534
9	1649	977.078899642342	1.214693849821
9	1659	985.371822987996	1.58571518447
9	1673	991.34156259677	1.064577585565
9	1676	993.474388048665	2.036309733048
9	1746	1032.129356773265	0.630752438746
9	1759	1035.894191325466	0.430770454859
9	1786	1051.021786877686	0.512281256275
9	1868	1102.933280860179	0.368024429703
9	1904	1128.082789180136	1.904461737054
9	1998	1182.721300586277	0.925644161711
9	2005	1185.096255189016	2.216937417577
9	2051	1208.386522406881	0.46545109823
9	2089	1237.620095416221	0.027690876984
9	2144	1265.972595268289	1.993444711104
9	2158	1269.529027058314	1.057352545429
9	2187	1282.103615327533	1.243384066412
9	2188	1282.18656541354	0.973406145216
9	2264	1335.331763725126	0.549959496071
9	2277	1343.620814986343	1.185249947744
9	2290	1354.964102836706	2.09686392459
9	2325	1376.727770382959	1.418184878554
9	2356	1398.318930185478	0.019288023193
9	2375	1407.365045492818	2.587618976728
9	2403	1426.380764101049	0.611702089539
9	2408	1432.3605147928	1.976463937089
9	2433	1448.833481928974	0.185262426493
9	2503	1494.459458659141	2.444436894619
9	2508	1498.88732128084	1.850711884843
9	2552	1523.336742297088	0.006864796606
9	2589	1546.399341014247	0.132909653253
9	2675	1602.192516325904	3.853228287344
9	2732	1641.781574142008	1.358370068208
9	2859	1735.579228127981	0.111858147732
9	2917	1769.211772415508	1.881253553314
9	3016	1825.218622236276	2.922268524149
9	3041	1833.800737297679	0.191627208509
9	3055	1837.953138842688	0.12092887749
9	3141	1888.139899009757	0.31664816935
9	3152	1891.510468658118	0.292195841704
9	3208	1924.211901477773	2.54367795062
9	3246	1968.532672579983	1.136238436548
9	3305	1994.319286978556	1.048529187073
9	3330	2005.699467064023	0.274383770596
9	3333	2008.473423402489	0.381033242111
9	3344	2015.511494578203	0.560576684585
9	3448	2065.09947075878	0.536207884597
9	3467	2071.459421316957	1.943569558679
9	3483	2079.506496768122	0.179627624959
9	3533	2103.443009187039	0.096421608371
9	3545	2110.554403289845	0.218664879999
9	3582	2126.150359195759	1.105619154454
9	3608	2144.444762610456	0.21963725501
9	3627	2151.062888923424	0.535831480647
9	3653	2165.058002456198	1.914489320957
9	3698	2212.216557342481	1.519163089877
9	3712	2217.761796282533	1.167880541825
9	3807	2279.818492283647	1.938397420007
9	3863	2314.514402667907	0.107800829605
9	3970	2399.324915446388	3.172164616531
9	3973	2400.483723168623	0.395603326084
9	4002	2415.840577888924	1.160869630418
9	4014	2420.701070773519	0.86888386745
10	669	380.352000414881	6
10	691	391.757141693541	7
10	713	400.427176001047	8
10	1000	570.157955171208	9
10	1003	572.013697630046	10
10	1152	670.89757570658	11
10	1224	714.718457972752	12
10	1227	715.659682895607	13
10	1257	738.112029162346	14
10	1309	776.438308007573	15
10	1337	790.590701076314	16
10	1381	821.734270542422	17
10	1420	836.585368277	18
10	1519	898.271736045084	19
10	1529	900.679632703256	20
10	1553	917.623000115617	21
10	1564	921.272436396995	22
10	1599	943.345188572361	23
10	1605	944.787028829265	24
10	1646	975.864205792521	25
10	1675	991.438078315617	26
10	1741	1031.498604334519	27
10	1756	1035.463420870607	28
10	1785	1050.509505621411	29
10	1867	1102.565256430476	30
10	2088	1237.592404539237	31
10	2139	1263.979150557185	32
10	2157	1268.471674512885	33
10	2184	1280.860231261121	34
10	2263	1334.781804229055	35
10	2287	1352.867238912116	36
10	2324	1375.309585504405	37
10	2355	1398.299642162285	38
10	2370	1404.77742651609	39
10	2551	1523.329877500482	40
10	2588	1546.266431360994	41
10	2916	1767.330518862194	42
10	3013	1822.296353712127	43
10	3040	1833.60911008917	44
10	3138	1887.823250840407	45
10	3201	1921.668223527153	46
10	3304	1993.270757791483	47
10	3447	2064.563262874183	48
10	3532	2103.346587578668	49
10	3544	2110.335738409846	50
10	3607	2144.225125355446	51
10	3709	2216.593915740708	52
10	3802	2277.88009486364	53
10	3862	2314.406601838302	54
10	3972	2400.088119842539	55
10	4001	2414.679708258506	56
11	4178	2500	0.5104
12	4178	2500	0.0452

