version 2
run factors_calibration_bosses-13-20230303-16:36:28-7704
attr configname factors_calibration_bosses
attr datetime 20230303-16:36:28
attr experiment factors_calibration_bosses
attr inifile omnetpp.ini
attr iterationvars $0=1
attr iterationvarsf 1-
attr measurement $0=1
attr network Network
attr processid 7704
attr repetition 13
attr replication #13
attr resultdir results
attr runnumber 13
attr seedset 13
param *.minion.arrival_mean 2
param *.minion.service_mean 1
param *.boss.arrival_mean 20
param *.boss.service_mean 1
param *.player.recover_rate_x 100
param **.minion.arrival_distribution 0
param **.minion.service_distribution 0
param **.boss.arrival_distribution 0
param **.boss.service_distribution 0

vector 0 Network.player boss_jobs_number_stat:vector ETV
attr source signal_boss_jobs_number
vector 1 Network.player boss_jobs_queue_number_stat:vector ETV
attr source signal_boss_jobs_queue_number
vector 2 Network.player minion_recovered_stat:vector ETV
attr source signal_minion_recovered
vector 3 Network.player boss_waiting_time_stat:vector ETV
attr source signal_boss_waiting_time
vector 4 Network.player boss_defeated_stat:vector ETV
attr source signal_boss_defeated
vector 5 Network.player boss_response_time_stat:vector ETV
attr source signal_boss_response_time
vector 6 Network.player minion_waiting_time_stat:vector ETV
attr source signal_minion_waiting_time
vector 7 Network.player minion_defeated_stat:vector ETV
attr source signal_minion_defeated
vector 8 Network.player minion_jobs_queue_number_stat:vector ETV
attr source signal_minion_jobs_queue_number
vector 9 Network.player minion_response_time_stat:vector ETV
attr source signal_minion_response_time
vector 10 Network.player minion_jobs_number_stat:vector ETV
attr source signal_minion_jobs_number
vector 11 Network.player minion_throughput:vector ETV
attr source signal_minion_throughput
vector 12 Network.player boss_throughput:vector ETV
attr source signal_boss_throughput
0	569	350.881313172297	1
0	594	360.818519535049	1
0	598	361.531643308555	1
0	618	371.908598985871	1
0	623	376.931018151467	1
0	629	381.136330067117	1
0	682	429.073456309595	1
0	758	458.216863057689	1
0	819	485.039383383465	1
0	857	504.219337313665	1
0	885	513.42129579689	1
0	958	565.569280449517	1
0	1077	626.472031129181	1
0	1082	634.336558468053	1
0	1086	638.192742303279	2
0	1097	644.030677267764	1
0	1099	644.144963208146	2
0	1130	669.619848426002	1
0	1170	693.409668976404	1
0	1368	809.310921917985	1
0	1394	827.380958355965	1
0	1402	834.74067954906	1
0	1431	858.166594785723	1
0	1436	861.941115502046	1
0	1469	883.655885421752	1
0	1477	887.512647225875	1
0	1511	903.905552536614	1
0	1514	907.483937674146	1
0	1631	990.413455002523	1
0	1661	1008.003682923438	1
0	1678	1020.417949707382	1
0	1697	1033.249379298814	1
0	1730	1053.470206707816	1
0	1741	1065.821984533476	1
0	1760	1072.614960455695	1
0	1775	1077.976575989947	1
0	1841	1104.858659015191	1
0	1899	1143.647684051215	1
0	1931	1159.235141044981	1
0	1968	1171.966462265233	1
0	1995	1196.686858693904	1
0	2002	1197.809451509109	1
0	2009	1201.314877016841	1
0	2138	1301.300109462689	1
0	2163	1316.697341954421	1
0	2181	1321.049430127316	1
0	2197	1327.240078304281	1
0	2226	1352.172457290686	1
0	2345	1419.760823824721	1
0	2396	1453.65964639195	1
0	2510	1539.073766767534	1
0	2529	1551.811268998897	1
0	2582	1574.680051997075	1
0	2596	1580.731531549448	1
0	2601	1583.786751798574	1
0	2615	1595.405242588751	1
0	2641	1614.424317239799	1
0	2648	1619.123148538388	1
0	2672	1628.846044176192	1
0	2699	1641.653488925519	1
0	2705	1646.228649184495	1
0	2720	1651.491893488932	1
0	2731	1656.443885829001	1
0	2747	1659.95899571819	1
0	2785	1686.518869704216	1
0	2792	1691.412908866778	1
0	2861	1722.827600274038	1
0	2864	1726.331710433346	1
0	2909	1767.39258822199	1
0	2990	1826.132510283332	1
0	3008	1837.232700665273	1
0	3035	1856.676250964027	1
0	3043	1857.37999332076	1
0	3083	1883.476859197256	1
0	3086	1885.403139532809	1
0	3160	1927.167334289672	1
0	3163	1928.858537845573	1
0	3223	1985.692923559129	1
0	3312	2035.12845233487	1
0	3319	2037.706644485021	1
0	3335	2043.472956852933	1
0	3404	2086.337690370672	1
0	3418	2097.545413534898	1
0	3426	2099.566104157284	1
0	3445	2115.320149594233	1
0	3485	2145.854161296251	1
0	3500	2165.681529415681	1
0	3533	2187.109250616897	1
0	3602	2221.454825515369	1
0	3683	2264.236815591852	1
0	3689	2271.874558676346	1
0	3715	2293.078236472355	1
0	3775	2336.495621840945	1
0	3777	2337.348088405461	2
0	3800	2352.254707627457	1
0	3830	2372.17973835098	1
0	3898	2414.535637886846	1
0	3926	2439.36645112858	1
0	3929	2440.572633583659	1
0	3950	2452.701691149425	1
0	3956	2455.773500652442	1
0	3980	2478.047714483756	1
0	4004	2490.461691942782	1
1	569	350.881313172297	0
1	570	351.252110949288	0
1	594	360.818519535049	0
1	595	360.871317864853	0
1	598	361.531643308555	0
1	599	362.148511848608	0
1	618	371.908598985871	0
1	619	373.403443563181	0
1	623	376.931018151467	0
1	624	377.4233704715	0
1	629	381.136330067117	0
1	630	381.14551103248	0
1	682	429.073456309595	0
1	683	429.194905951201	0
1	758	458.216863057689	0
1	763	459.180015124546	0
1	819	485.039383383465	0
1	820	485.104513546164	0
1	857	504.219337313665	0
1	860	505.926990941369	0
1	885	513.42129579689	0
1	886	514.181762678161	0
1	958	565.569280449517	0
1	961	567.857821860059	0
1	1077	626.472031129181	0
1	1078	626.636689520251	0
1	1082	634.336558468053	0
1	1086	638.192742303279	1
1	1089	638.57789016561	1
1	1090	638.793146623351	0
1	1097	644.030677267764	0
1	1099	644.144963208146	1
1	1100	644.717335392122	1
1	1103	646.880140578581	0
1	1130	669.619848426002	0
1	1133	670.054205298846	0
1	1170	693.409668976404	0
1	1171	694.789197840736	0
1	1368	809.310921917985	0
1	1371	811.328967295735	0
1	1394	827.380958355965	0
1	1395	830.209995574475	0
1	1402	834.74067954906	0
1	1403	835.246321548637	0
1	1431	858.166594785723	0
1	1432	858.384400641319	0
1	1436	861.941115502046	0
1	1439	862.972977645172	0
1	1469	883.655885421752	0
1	1470	884.496824166524	0
1	1477	887.512647225875	0
1	1478	887.533312606769	0
1	1511	903.905552536614	0
1	1512	904.15807104975	0
1	1514	907.483937674146	0
1	1519	909.134638020043	0
1	1631	990.413455002523	0
1	1632	990.910962059797	0
1	1661	1008.003682923438	0
1	1664	1008.56512366141	0
1	1678	1020.417949707382	0
1	1679	1020.797146799631	0
1	1697	1033.249379298814	0
1	1700	1034.067061947351	0
1	1730	1053.470206707816	0
1	1731	1053.735040059847	0
1	1741	1065.821984533476	0
1	1746	1067.332080815078	0
1	1760	1072.614960455695	0
1	1761	1072.867448843796	0
1	1775	1077.976575989947	0
1	1776	1078.491672596916	0
1	1841	1104.858659015191	0
1	1844	1105.578835969167	0
1	1899	1143.647684051215	0
1	1900	1146.03359551366	0
1	1931	1159.235141044981	0
1	1938	1161.730637321248	0
1	1968	1171.966462265233	0
1	1971	1173.016197572018	0
1	1995	1196.686858693904	0
1	1996	1197.295050877589	0
1	2002	1197.809451509109	0
1	2005	1199.108732658691	0
1	2009	1201.314877016841	0
1	2010	1204.686535478587	0
1	2138	1301.300109462689	0
1	2141	1302.812243898848	0
1	2163	1316.697341954421	0
1	2166	1317.675708077658	0
1	2181	1321.049430127316	0
1	2182	1321.481332828795	0
1	2197	1327.240078304281	0
1	2200	1327.431572394849	0
1	2226	1352.172457290686	0
1	2227	1352.192313034838	0
1	2345	1419.760823824721	0
1	2346	1421.564553561353	0
1	2396	1453.65964639195	0
1	2397	1454.10368379201	0
1	2510	1539.073766767534	0
1	2511	1539.888345435011	0
1	2529	1551.811268998897	0
1	2530	1552.172562381775	0
1	2582	1574.680051997075	0
1	2583	1574.844705423459	0
1	2596	1580.731531549448	0
1	2599	1583.245603335673	0
1	2601	1583.786751798574	0
1	2602	1584.444002107617	0
1	2615	1595.405242588751	0
1	2616	1595.697464192637	0
1	2641	1614.424317239799	0
1	2642	1614.668402031334	0
1	2648	1619.123148538388	0
1	2649	1619.399105977976	0
1	2672	1628.846044176192	0
1	2675	1629.519805481769	0
1	2699	1641.653488925519	0
1	2700	1644.060580965377	0
1	2705	1646.228649184495	0
1	2710	1646.887496548399	0
1	2720	1651.491893488932	0
1	2721	1652.991649330658	0
1	2731	1656.443885829001	0
1	2732	1656.982361431289	0
1	2747	1659.95899571819	0
1	2750	1660.520703982387	0
1	2785	1686.518869704216	0
1	2786	1687.383825627871	0
1	2792	1691.412908866778	0
1	2795	1693.961271220336	0
1	2861	1722.827600274038	0
1	2862	1723.542208928313	0
1	2864	1726.331710433346	0
1	2867	1727.561683935099	0
1	2909	1767.39258822199	0
1	2918	1771.536685625685	0
1	2990	1826.132510283332	0
1	2991	1826.206985388368	0
1	3008	1837.232700665273	0
1	3011	1838.991432226497	0
1	3035	1856.676250964027	0
1	3040	1857.06497858487	0
1	3043	1857.37999332076	0
1	3046	1859.349603762405	0
1	3083	1883.476859197256	0
1	3084	1885.341961020208	0
1	3086	1885.403139532809	0
1	3087	1886.225963569879	0
1	3160	1927.167334289672	0
1	3161	1928.177092516768	0
1	3163	1928.858537845573	0
1	3164	1929.267048678804	0
1	3223	1985.692923559129	0
1	3224	1986.648433758001	0
1	3312	2035.12845233487	0
1	3313	2035.441090046787	0
1	3319	2037.706644485021	0
1	3322	2039.358543253717	0
1	3335	2043.472956852933	0
1	3336	2044.179216582102	0
1	3404	2086.337690370672	0
1	3405	2087.349496056912	0
1	3418	2097.545413534898	0
1	3419	2097.945126439033	0
1	3426	2099.566104157284	0
1	3427	2099.877286983799	0
1	3445	2115.320149594233	0
1	3446	2115.449642076301	0
1	3485	2145.854161296251	0
1	3486	2146.341196501831	0
1	3500	2165.681529415681	0
1	3503	2167.050165465528	0
1	3533	2187.109250616897	0
1	3534	2187.53230616997	0
1	3602	2221.454825515369	0
1	3603	2222.683993932155	0
1	3683	2264.236815591852	0
1	3684	2264.460371410204	0
1	3689	2271.874558676346	0
1	3690	2272.751881651174	0
1	3715	2293.078236472355	0
1	3716	2293.379654963714	0
1	3775	2336.495621840945	0
1	3777	2337.348088405461	1
1	3778	2338.129847633252	1
1	3779	2339.24673499632	0
1	3800	2352.254707627457	0
1	3801	2352.458464397426	0
1	3830	2372.17973835098	0
1	3835	2374.066022485583	0
1	3898	2414.535637886846	0
1	3899	2414.799123017885	0
1	3926	2439.36645112858	0
1	3927	2439.593069542476	0
1	3929	2440.572633583659	0
1	3930	2440.595846364545	0
1	3950	2452.701691149425	0
1	3951	2454.176307847754	0
1	3956	2455.773500652442	0
1	3963	2458.945813512879	0
1	3980	2478.047714483756	0
1	3987	2479.826158682495	0
1	4004	2490.461691942782	0
1	4009	2492.524757966135	0
2	569	350.881313172297	7
2	594	360.818519535049	8
2	598	361.531643308555	9
2	618	371.908598985871	10
2	682	429.073456309595	11
2	819	485.039383383465	12
2	885	513.42129579689	13
2	958	565.569280449517	14
2	1077	626.472031129181	15
2	1170	693.409668976404	16
2	1368	809.310921917985	17
2	1402	834.74067954906	18
2	1431	858.166594785723	19
2	1477	887.512647225875	20
2	1678	1020.417949707382	21
2	1741	1065.821984533476	22
2	1775	1077.976575989947	23
2	1899	1143.647684051215	24
2	1931	1159.235141044981	25
2	1968	1171.966462265233	26
2	1995	1196.686858693904	27
2	2002	1197.809451509109	28
2	2009	1201.314877016841	29
2	2163	1316.697341954421	30
2	2181	1321.049430127316	31
2	2197	1327.240078304281	32
2	2226	1352.172457290686	33
2	2529	1551.811268998897	34
2	2582	1574.680051997075	35
2	2596	1580.731531549448	36
2	2601	1583.786751798574	37
2	2641	1614.424317239799	38
2	2731	1656.443885829001	39
2	2785	1686.518869704216	40
2	3043	1857.37999332076	41
2	3160	1927.167334289672	42
2	3163	1928.858537845573	43
2	3223	1985.692923559129	44
2	3312	2035.12845233487	45
2	3319	2037.706644485021	46
2	3418	2097.545413534898	47
2	3426	2099.566104157284	48
2	3445	2115.320149594233	49
2	3715	2293.078236472355	50
2	3775	2336.495621840945	51
2	3898	2414.535637886846	52
3	569	350.881313172297	0
3	594	360.818519535049	0
3	598	361.531643308555	0
3	618	371.908598985871	0
3	623	376.931018151467	0
3	629	381.136330067117	0
3	682	429.073456309595	0
3	758	458.216863057689	0
3	819	485.039383383465	0
3	857	504.219337313665	0
3	885	513.42129579689	0
3	958	565.569280449517	0
3	1077	626.472031129181	0
3	1082	634.336558468053	0
3	1089	638.57789016561	0.385147862331
3	1097	644.030677267764	0
3	1100	644.717335392122	0.572372183976
3	1130	669.619848426002	0
3	1170	693.409668976404	0
3	1368	809.310921917985	0
3	1394	827.380958355965	0
3	1402	834.74067954906	0
3	1431	858.166594785723	0
3	1436	861.941115502046	0
3	1469	883.655885421752	0
3	1477	887.512647225875	0
3	1511	903.905552536614	0
3	1514	907.483937674146	0
3	1631	990.413455002523	0
3	1661	1008.003682923438	0
3	1678	1020.417949707382	0
3	1697	1033.249379298814	0
3	1730	1053.470206707816	0
3	1741	1065.821984533476	0
3	1760	1072.614960455695	0
3	1775	1077.976575989947	0
3	1841	1104.858659015191	0
3	1899	1143.647684051215	0
3	1931	1159.235141044981	0
3	1968	1171.966462265233	0
3	1995	1196.686858693904	0
3	2002	1197.809451509109	0
3	2009	1201.314877016841	0
3	2138	1301.300109462689	0
3	2163	1316.697341954421	0
3	2181	1321.049430127316	0
3	2197	1327.240078304281	0
3	2226	1352.172457290686	0
3	2345	1419.760823824721	0
3	2396	1453.65964639195	0
3	2510	1539.073766767534	0
3	2529	1551.811268998897	0
3	2582	1574.680051997075	0
3	2596	1580.731531549448	0
3	2601	1583.786751798574	0
3	2615	1595.405242588751	0
3	2641	1614.424317239799	0
3	2648	1619.123148538388	0
3	2672	1628.846044176192	0
3	2699	1641.653488925519	0
3	2705	1646.228649184495	0
3	2720	1651.491893488932	0
3	2731	1656.443885829001	0
3	2747	1659.95899571819	0
3	2785	1686.518869704216	0
3	2792	1691.412908866778	0
3	2861	1722.827600274038	0
3	2864	1726.331710433346	0
3	2909	1767.39258822199	0
3	2990	1826.132510283332	0
3	3008	1837.232700665273	0
3	3035	1856.676250964027	0
3	3043	1857.37999332076	0
3	3083	1883.476859197256	0
3	3086	1885.403139532809	0
3	3160	1927.167334289672	0
3	3163	1928.858537845573	0
3	3223	1985.692923559129	0
3	3312	2035.12845233487	0
3	3319	2037.706644485021	0
3	3335	2043.472956852933	0
3	3404	2086.337690370672	0
3	3418	2097.545413534898	0
3	3426	2099.566104157284	0
3	3445	2115.320149594233	0
3	3485	2145.854161296251	0
3	3500	2165.681529415681	0
3	3533	2187.109250616897	0
3	3602	2221.454825515369	0
3	3683	2264.236815591852	0
3	3689	2271.874558676346	0
3	3715	2293.078236472355	0
3	3775	2336.495621840945	0
3	3778	2338.129847633252	0.781759227791
3	3800	2352.254707627457	0
3	3830	2372.17973835098	0
3	3898	2414.535637886846	0
3	3926	2439.36645112858	0
3	3929	2440.572633583659	0
3	3950	2452.701691149425	0
3	3956	2455.773500652442	0
3	3980	2478.047714483756	0
3	4004	2490.461691942782	0
4	570	351.252110949288	20
4	595	360.871317864853	21
4	599	362.148511848608	22
4	619	373.403443563181	23
4	624	377.4233704715	24
4	630	381.14551103248	25
4	683	429.194905951201	26
4	763	459.180015124546	27
4	820	485.104513546164	28
4	860	505.926990941369	29
4	886	514.181762678161	30
4	961	567.857821860059	31
4	1078	626.636689520251	32
4	1089	638.57789016561	33
4	1090	638.793146623351	34
4	1100	644.717335392122	35
4	1103	646.880140578581	36
4	1133	670.054205298846	37
4	1171	694.789197840736	38
4	1371	811.328967295735	39
4	1395	830.209995574475	40
4	1403	835.246321548637	41
4	1432	858.384400641319	42
4	1439	862.972977645172	43
4	1470	884.496824166524	44
4	1478	887.533312606769	45
4	1512	904.15807104975	46
4	1519	909.134638020043	47
4	1632	990.910962059797	48
4	1664	1008.56512366141	49
4	1679	1020.797146799631	50
4	1700	1034.067061947351	51
4	1731	1053.735040059847	52
4	1746	1067.332080815078	53
4	1761	1072.867448843796	54
4	1776	1078.491672596916	55
4	1844	1105.578835969167	56
4	1900	1146.03359551366	57
4	1938	1161.730637321248	58
4	1971	1173.016197572018	59
4	1996	1197.295050877589	60
4	2005	1199.108732658691	61
4	2010	1204.686535478587	62
4	2141	1302.812243898848	63
4	2166	1317.675708077658	64
4	2182	1321.481332828795	65
4	2200	1327.431572394849	66
4	2227	1352.192313034838	67
4	2346	1421.564553561353	68
4	2397	1454.10368379201	69
4	2511	1539.888345435011	70
4	2530	1552.172562381775	71
4	2583	1574.844705423459	72
4	2599	1583.245603335673	73
4	2602	1584.444002107617	74
4	2616	1595.697464192637	75
4	2642	1614.668402031334	76
4	2649	1619.399105977976	77
4	2675	1629.519805481769	78
4	2700	1644.060580965377	79
4	2710	1646.887496548399	80
4	2721	1652.991649330658	81
4	2732	1656.982361431289	82
4	2750	1660.520703982387	83
4	2786	1687.383825627871	84
4	2795	1693.961271220336	85
4	2862	1723.542208928313	86
4	2867	1727.561683935099	87
4	2918	1771.536685625685	88
4	2991	1826.206985388368	89
4	3011	1838.991432226497	90
4	3040	1857.06497858487	91
4	3046	1859.349603762405	92
4	3084	1885.341961020208	93
4	3087	1886.225963569879	94
4	3161	1928.177092516768	95
4	3164	1929.267048678804	96
4	3224	1986.648433758001	97
4	3313	2035.441090046787	98
4	3322	2039.358543253717	99
4	3336	2044.179216582102	100
4	3405	2087.349496056912	101
4	3419	2097.945126439033	102
4	3427	2099.877286983799	103
4	3446	2115.449642076301	104
4	3486	2146.341196501831	105
4	3503	2167.050165465528	106
4	3534	2187.53230616997	107
4	3603	2222.683993932155	108
4	3684	2264.460371410204	109
4	3690	2272.751881651174	110
4	3716	2293.379654963714	111
4	3778	2338.129847633252	112
4	3779	2339.24673499632	113
4	3801	2352.458464397426	114
4	3835	2374.066022485583	115
4	3899	2414.799123017885	116
4	3927	2439.593069542476	117
4	3930	2440.595846364545	118
4	3951	2454.176307847754	119
4	3963	2458.945813512879	120
4	3987	2479.826158682495	121
4	4009	2492.524757966135	122
5	570	351.252110949288	0.370797776991
5	595	360.871317864853	0.052798329804
5	599	362.148511848608	0.616868540053
5	619	373.403443563181	1.49484457731
5	624	377.4233704715	0.492352320033
5	630	381.14551103248	0.009180965363
5	683	429.194905951201	0.121449641606
5	763	459.180015124546	0.963152066857
5	820	485.104513546164	0.065130162699
5	860	505.926990941369	1.707653627704
5	886	514.181762678161	0.760466881271
5	961	567.857821860059	2.288541410542
5	1078	626.636689520251	0.16465839107
5	1089	638.57789016561	4.241331697557
5	1090	638.793146623351	0.600404320072
5	1100	644.717335392122	0.686658124358
5	1103	646.880140578581	2.735177370435
5	1133	670.054205298846	0.434356872844
5	1171	694.789197840736	1.379528864332
5	1371	811.328967295735	2.01804537775
5	1395	830.209995574475	2.82903721851
5	1403	835.246321548637	0.505641999577
5	1432	858.384400641319	0.217805855596
5	1439	862.972977645172	1.031862143126
5	1470	884.496824166524	0.840938744772
5	1478	887.533312606769	0.020665380894
5	1512	904.15807104975	0.252518513136
5	1519	909.134638020043	1.650700345897
5	1632	990.910962059797	0.497507057274
5	1664	1008.56512366141	0.561440737972
5	1679	1020.797146799631	0.379197092249
5	1700	1034.067061947351	0.817682648537
5	1731	1053.735040059847	0.264833352031
5	1746	1067.332080815078	1.510096281602
5	1761	1072.867448843796	0.252488388101
5	1776	1078.491672596916	0.515096606969
5	1844	1105.578835969167	0.720176953976
5	1900	1146.03359551366	2.385911462445
5	1938	1161.730637321248	2.495496276267
5	1971	1173.016197572018	1.049735306785
5	1996	1197.295050877589	0.608192183685
5	2005	1199.108732658691	1.299281149582
5	2010	1204.686535478587	3.371658461746
5	2141	1302.812243898848	1.512134436159
5	2166	1317.675708077658	0.978366123237
5	2182	1321.481332828795	0.431902701479
5	2200	1327.431572394849	0.191494090568
5	2227	1352.192313034838	0.019855744152
5	2346	1421.564553561353	1.803729736632
5	2397	1454.10368379201	0.44403740006
5	2511	1539.888345435011	0.814578667477
5	2530	1552.172562381775	0.361293382878
5	2583	1574.844705423459	0.164653426384
5	2599	1583.245603335673	2.514071786225
5	2602	1584.444002107617	0.657250309043
5	2616	1595.697464192637	0.292221603886
5	2642	1614.668402031334	0.244084791535
5	2649	1619.399105977976	0.275957439588
5	2675	1629.519805481769	0.673761305577
5	2700	1644.060580965377	2.407092039858
5	2710	1646.887496548399	0.658847363904
5	2721	1652.991649330658	1.499755841726
5	2732	1656.982361431289	0.538475602288
5	2750	1660.520703982387	0.561708264197
5	2786	1687.383825627871	0.864955923655
5	2795	1693.961271220336	2.548362353558
5	2862	1723.542208928313	0.714608654275
5	2867	1727.561683935099	1.229973501753
5	2918	1771.536685625685	4.144097403695
5	2991	1826.206985388368	0.074475105036
5	3011	1838.991432226497	1.758731561224
5	3040	1857.06497858487	0.388727620843
5	3046	1859.349603762405	1.969610441645
5	3084	1885.341961020208	1.865101822952
5	3087	1886.225963569879	0.82282403707
5	3161	1928.177092516768	1.009758227096
5	3164	1929.267048678804	0.408510833231
5	3224	1986.648433758001	0.955510198872
5	3313	2035.441090046787	0.312637711917
5	3322	2039.358543253717	1.651898768696
5	3336	2044.179216582102	0.706259729169
5	3405	2087.349496056912	1.01180568624
5	3419	2097.945126439033	0.399712904135
5	3427	2099.877286983799	0.311182826515
5	3446	2115.449642076301	0.129492482068
5	3486	2146.341196501831	0.48703520558
5	3503	2167.050165465528	1.368636049847
5	3534	2187.53230616997	0.423055553073
5	3603	2222.683993932155	1.229168416786
5	3684	2264.460371410204	0.223555818352
5	3690	2272.751881651174	0.877322974828
5	3716	2293.379654963714	0.301418491359
5	3778	2338.129847633252	1.634225792307
5	3779	2339.24673499632	1.898646590859
5	3801	2352.458464397426	0.203756769969
5	3835	2374.066022485583	1.886284134603
5	3899	2414.799123017885	0.263485131039
5	3927	2439.593069542476	0.226618413896
5	3930	2440.595846364545	0.023212780886
5	3951	2454.176307847754	1.474616698329
5	3963	2458.945813512879	3.172312860437
5	3987	2479.826158682495	1.778444198739
5	4009	2492.524757966135	2.063066023353
6	570	351.252110949288	4.924761428445
6	571	351.378256330671	2.002508619509
6	572	352.515970615227	1.63465744293
6	575	353.567098858924	0.029961426514
6	578	356.910048252189	0
6	581	357.124550012553	0.156342040874
6	586	358.163023020388	0.879974358021
6	589	358.941059107571	1.017831525778
6	590	359.430528507322	0.666459154988
6	595	360.871317864853	0.785962801346
6	596	360.941957666914	0.123438131865
6	599	362.148511848608	0.616868540053
6	602	362.996924226286	0.5326130973
6	605	368.100982157823	0
6	610	369.727224877097	1.209192431585
6	611	370.126513297222	0.527622791353
6	614	371.248748128982	0.434359548391
6	619	373.403443563181	1.64173804831
6	620	373.565928624776	1.657329638905
6	626	378.803227167857	0
6	632	383.085954911539	0
6	635	393.43666409501	0
6	638	395.92518391226	0
6	641	398.701843801368	0
6	644	400.728789460452	0.919815037653
6	647	401.245038520209	0
6	650	402.281187637282	0
6	653	403.727461814944	0
6	656	406.065173170914	0
6	659	406.530592049125	0.322057059246
6	662	409.505097786521	1.985158960876
6	665	414.613474248493	0
6	668	415.886542745841	0.21197045027
6	671	421.868791759529	0
6	674	424.687537414806	0
6	677	427.715941120617	0
6	680	428.702293893152	0
6	683	429.194905951201	0.121449641606
6	686	432.476562423012	0
6	689	433.376746686641	0.758889946955
6	694	436.717036421893	3.079641640839
6	695	437.020570849796	2.246586545632
6	698	438.476689519328	0.514356636414
6	703	439.333235911005	0.116779700268
6	706	439.718864178377	0.466750552684
6	709	440.490396902846	1.077027422549
6	712	440.934309755402	1.154431270261
6	715	441.398829148007	0.664384814005
6	716	441.54026229515	0.358099021001
6	719	441.905644584856	0
6	722	442.456515278548	0
6	729	444.840576469322	1.692938935737
6	730	445.008736190069	1.700694919552
6	731	445.431075965131	1.47296392174
6	734	446.590411162328	0
6	737	446.809577142108	0.151591690998
6	740	446.896488284857	0.020756291224
6	747	451.530871125943	2.152485552213
6	752	454.24531972517	3.795787982257
6	753	455.03231218558	3.789906337964
6	754	455.474136502906	3.731765729388
6	755	456.346013557529	3.641929825712
6	763	459.180015124546	0.851694317301
6	766	460.108941528092	1.651274303068
6	769	461.13533297611	1.267791126611
6	770	461.269045760256	1.037564059169
6	773	462.108582513292	0
6	776	464.117040677701	0.897818181694
6	779	464.971580279532	0
6	782	466.050953121374	0.085304852334
6	785	468.212219499234	0.884892209567
6	788	468.516593006778	0
6	791	468.881589347261	0
6	794	470.218600968586	0.648289005533
6	797	472.777428735727	0
6	800	473.690664405075	0
6	803	476.985775062412	0
6	806	478.448422604045	0
6	809	480.581075853213	0
6	812	482.940916038751	0
6	817	484.765169086982	1.549295837459
6	820	485.104513546164	1.359171599957
6	823	485.880921847577	0.841538464112
6	830	489.69972509236	4.240918939608
6	833	490.120113964965	2.435122327823
6	834	490.28178969001	1.934764816048
6	835	491.173798539514	2.048387429892
6	836	494.031770484999	4.303340156785
6	839	495.961099897028	0
6	842	497.85401280804	0
6	845	498.801986820723	0
6	848	500.760862024969	0
6	851	502.484580970795	0.40083337602
6	854	503.329623525655	0.300159328085
6	860	505.926990941369	0.687681990629
6	865	508.063524278208	1.743755137671
6	866	508.505692524884	0.938736339349
6	869	509.049684184173	0.535383809612
6	872	510.945728881279	0
6	877	511.786732224464	0.448020202755
6	880	512.683791285328	0.951892462301
6	881	512.947669195586	1.143640670296
6	886	514.181762678161	1.135596586898
6	889	514.428001036325	1.006705239435
6	890	515.242196419079	1.005364982882
6	893	517.83784469993	2.444176439054
6	896	518.883165848702	0
6	899	523.672069741109	0
6	902	524.525597199374	0
6	905	525.400494457982	0.289487384454
6	908	526.717621746111	1.305241455569
6	911	527.679871745949	0.541740743562
6	914	529.01029171961	1.033674808766
6	917	530.139472857912	0.74273385713
6	920	536.195650577359	0
6	923	536.922815649342	0.058510831005
6	926	537.398205188405	0
6	929	538.898461350204	0
6	932	542.387751507937	2.468925788322
6	935	546.153599657644	0
6	938	552.425456988911	0
6	941	554.381539495114	1.371710447123
6	944	555.21469739994	0
6	947	559.882068462539	0
6	950	560.945333949391	0.013074318049
6	953	562.68850549343	0
6	956	565.046876007443	0
6	961	567.857821860059	2.288541410542
6	962	568.132763156417	2.38323486647
6	965	568.251557828708	0.041041299754
6	968	570.052383639749	0
6	971	570.614469109571	0.095878997999
6	974	573.229428187953	0
6	979	574.859902571309	1.018070789099
6	980	575.259021954627	0.813282081941
6	983	577.865223810342	0
6	990	580.542571027814	1.825945388409
6	991	582.476515651851	3.349474209888
6	994	583.370422112784	2.946168311773
6	995	584.588322459729	1.381310160542
6	998	585.413278201131	0
6	1001	585.698613454468	0.065656349165
6	1004	586.3433926759	0.049825952177
6	1007	589.32184567352	0
6	1010	591.756646301964	0
6	1013	592.625694978409	0
6	1016	596.957671992826	0
6	1019	601.109437969847	0
6	1022	601.95076927864	0
6	1025	603.717162827578	0
6	1028	607.528945916683	0
6	1031	608.054070558356	0.371106291075
6	1034	609.109117056148	0
6	1037	610.423862328403	0
6	1040	611.995382742454	0
6	1043	613.46200589239	0
6	1046	616.759613069463	0
6	1049	617.255304011499	0
6	1052	618.958780801943	0
6	1061	621.033772801923	1.944271880454
6	1064	621.266213738872	1.695685131556
6	1065	622.115792161638	1.377277823029
6	1066	622.999644189306	2.260840775685
6	1067	623.099492481863	2.020975402981
6	1070	623.568215187083	0
6	1073	626.146911315869	0
6	1078	626.636689520251	0.269832584998
6	1079	627.986537686619	1.514506557438
6	1090	638.793146623351	1.848763481141
6	1091	638.892441003881	0.317544718743
6	1094	640.217124513859	0
6	1103	646.880140578581	0.34125032065
6	1106	651.812651842196	0
6	1109	652.755186597379	0
6	1112	654.704006686068	0
6	1119	658.724319717757	2.586732254644
6	1122	659.846018747974	2.684552202142
6	1123	660.94141551133	2.538187612569
6	1124	661.618728055871	2.246775838588
6	1127	665.61842028314	0
6	1133	670.054205298846	0.101316061732
6	1136	671.100964410189	0.294710158652
6	1139	671.516958658459	0.023946415665
6	1144	673.453428923038	1.673691211323
6	1145	674.104661519733	2.290390222525
6	1148	680.024203994157	0
6	1151	682.023951610727	0
6	1154	682.115323516456	0.015676816362
6	1157	685.646951077497	0
6	1160	687.635673603956	0
6	1163	692.540667776515	0
6	1166	693.361759772069	0
6	1171	694.789197840736	1.391016638425
6	1174	697.664320602969	4.254651626565
6	1175	698.336237455197	2.634330740544
6	1178	700.893620944256	1.571487616537
6	1181	702.697916832343	0
6	1184	703.745505719623	0
6	1187	706.473196426199	0
6	1190	707.8514043405	0
6	1193	713.975875827121	0
6	1196	716.498467184416	1.218547419998
6	1201	717.492310296012	0.371903910228
6	1202	718.408249694851	1.202315369266
6	1205	718.804876833813	0.054186845248
6	1208	722.335085180566	0
6	1211	727.285411997858	0
6	1214	728.275989432713	0.940544065805
6	1219	731.59681774444	2.276153820588
6	1220	732.822734327028	1.447811091937
6	1225	734.801777800783	0.711352385641
6	1230	737.066994423484	2.872086054275
6	1231	737.157941868378	1.991904295472
6	1232	737.222969117502	0.836442672039
6	1235	738.606415503812	0
6	1238	740.173910844408	0
6	1241	740.295661437956	0
6	1244	740.566425158093	0.090059632223
6	1247	743.972494744945	0
6	1250	748.748534078478	0
6	1257	751.907509713348	1.84198151515
6	1266	755.326577373393	4.558902009662
6	1267	756.701205202289	5.03498761108
6	1268	757.187241465102	4.929230130326
6	1271	759.368710745784	6.676546538847
6	1272	759.516958089998	6.527751674391
6	1273	760.0077685994	5.025423863729
6	1274	760.751626525135	1.40368175428
6	1279	761.96483329687	1.181357714196
6	1280	761.967578094759	0.730203262233
6	1283	766.641200696102	0
6	1286	766.781373765677	0.073681713523
6	1289	767.608328712697	0.553740542213
6	1292	770.285263126653	1.703912287085
6	1295	771.196252155019	0
6	1302	772.893860204923	1.648718094373
6	1303	772.916591426145	1.003510155092
6	1304	773.198751479506	0.789804006427
6	1307	775.316005868256	0
6	1310	779.393448961531	0
6	1313	781.314777010617	0
6	1316	782.526039701665	0.827968650826
6	1319	784.579525536459	0
6	1322	787.587066418171	0
6	1325	790.460078113725	0
6	1328	792.093914912305	0
6	1331	792.9238096685	0.12990519145
6	1334	793.956864142219	0
6	1337	795.952971668559	0
6	1340	797.529676947204	0
6	1343	800.041419186481	0
6	1346	802.425487053159	0
6	1349	802.454285381929	0
6	1354	803.814806672009	1.127164722416
6	1357	804.941063627296	2.163796572232
6	1360	806.836586990002	2.018096113105
6	1371	811.328967295735	5.290568286511
6	1372	812.238351249159	5.15594798917
6	1375	813.57785398565	6.259037117527
6	1376	814.651831687624	7.009376600403
6	1377	816.824332662614	7.513410744629
6	1378	817.246926883336	6.912515938816
6	1379	818.668410849473	5.206164859904
6	1382	822.325498924117	0
6	1385	822.623321830742	0.174750114279
6	1388	823.619846113384	0
6	1391	825.704428090051	1.8331966205
6	1397	832.48168704175	0
6	1400	834.139547380252	0
6	1403	835.246321548637	0.505641999577
6	1406	836.269090520502	0.87851477577
6	1409	837.325357293434	0
6	1412	838.696265254777	0
6	1415	838.835672637327	0.088766640671
6	1418	839.713570272086	0.540502023924
6	1421	840.394174008114	0.569096843465
6	1424	841.716852161687	0
6	1427	856.064247885334	0
6	1432	858.384400641319	0.692008387605
6	1433	858.533360620009	0.366765834286
6	1439	862.972977645172	0.807913253894
6	1442	863.664061101163	0
6	1445	863.98910905728	0.309237805087
6	1448	865.203133347433	0.481796451108
6	1451	868.0564036325	0
6	1454	869.421728465243	0
6	1457	870.860737099176	0
6	1460	871.890436104298	0.99650662556
6	1463	876.474508967046	0
6	1466	881.433341430445	0
6	1472	884.693498064799	0
6	1475	887.377363755011	0
6	1478	887.533312606769	0.020665380894
6	1481	890.904525113787	0
6	1484	892.580197717785	0
6	1487	893.729414459591	0
6	1490	894.635626851187	0
6	1493	896.747539910027	0
6	1496	898.703486548203	1.865783979186
6	1499	899.559975741397	0.853320487119
6	1502	900.866867955362	0
6	1505	902.570209562652	0.850558376929
6	1508	903.284672224619	0
6	1519	909.134638020043	0.843781709183
6	1520	909.748089779655	0.9818911467
6	1523	909.999023458006	0
6	1526	911.700907360009	0
6	1529	912.908384532136	0
6	1532	916.024787472094	0
6	1535	920.528233488563	0
6	1538	922.136260634043	0.643655426919
6	1541	922.335724589421	0.131877317236
6	1544	927.477578855227	0
6	1547	933.459481698965	0
6	1550	935.029584380747	1.402788895341
6	1553	940.624072495333	0
6	1558	944.173534443232	0.779866187405
6	1559	944.557455792445	0.77137767752
6	1562	949.241307816493	0
6	1565	951.653227979917	0
6	1568	955.617523935111	0
6	1571	957.628189454914	0
6	1574	959.102824830415	0.654578443336
6	1577	959.786624891762	0.332449852333
6	1580	961.957558748772	0
6	1585	963.416853103704	1.059290111012
6	1586	965.272956801804	2.846123190178
6	1589	967.484327869417	0
6	1594	967.921204552081	0.423426028272
6	1595	968.030141095676	0.220225218039
6	1598	969.935242652236	0
6	1603	972.845729805513	1.99410173546
6	1604	975.115334194376	3.706307646092
6	1607	976.259632058252	0
6	1610	980.749376566626	0
6	1613	981.36973465544	0.395724401081
6	1616	982.351532311931	0.47856420032
6	1619	983.544412158572	0
6	1622	984.342975489913	0
6	1625	985.102220015943	0
6	1628	986.472204470187	0
6	1634	991.355557274854	0
6	1637	993.786819085458	0
6	1640	997.636927622359	0
6	1643	1000.341222180064	0
6	1646	1002.778347189653	0
6	1649	1003.988903288479	0
6	1652	1006.520683247056	0
6	1655	1006.734630100092	0.204370535311
6	1658	1007.616725029197	0
6	1664	1008.56512366141	0.3876197797
6	1667	1010.161480218137	0.020052731525
6	1670	1010.514927936857	0.306388203974
6	1673	1012.391413533516	0
6	1676	1020.294524683382	0
6	1679	1020.797146799631	0.379197092249
6	1682	1022.342604188716	0
6	1685	1022.537613026599	0.082311072778
6	1688	1026.064304906849	0
6	1691	1027.123767535586	0.865857449435
6	1694	1029.140290906464	0
6	1700	1034.067061947351	0.655081450842
6	1703	1037.562401349776	0
6	1706	1040.387066857862	0
6	1709	1042.26454453227	0
6	1712	1046.965322881318	0
6	1723	1050.746112410789	3.44704774
6	1724	1050.825349927754	3.175863809625
6	1725	1050.97700094621	2.59250900157
6	1726	1051.512531279744	1.779644997116
6	1727	1052.158666914651	2.331414056916
6	1733	1057.554225803205	0
6	1736	1057.598924567256	0.006666043251
6	1739	1065.687425046519	0
6	1746	1067.332080815078	1.510096281602
6	1747	1068.248766930258	2.027456087745
6	1748	1068.430486692547	1.86963310865
6	1753	1070.407681335905	1.647982290096
6	1754	1070.860812741	0.594565823044
6	1757	1072.079235388536	0
6	1763	1073.005806103309	0
6	1766	1073.958003839164	0.790748765243
6	1769	1077.135386042558	0
6	1776	1078.491672596916	0.857133277242
6	1777	1078.601111409044	0.843523816525
6	1780	1079.401147426437	1.42457143649
6	1785	1082.056434764613	3.112522685383
6	1790	1085.984255404235	5.357638456074
6	1791	1087.518464028063	5.800363489954
6	1792	1087.72819145105	5.596578024527
6	1793	1087.906540121258	5.625198520033
6	1796	1088.77691371147	0
6	1799	1089.453617599112	0
6	1802	1090.764792878303	0
6	1805	1091.716988459572	0.110010213443
6	1808	1093.171037257734	0
6	1811	1094.495957519028	0.605828919652
6	1820	1098.016196856719	3.041834890363
6	1823	1098.552923564844	2.568617335801
6	1824	1099.125351895637	3.091203838602
6	1825	1099.755545540327	3.25664719402
6	1826	1100.237711541981	1.719556338241
6	1831	1101.931016131102	0.718412141451
6	1834	1102.473861832858	1.163656884337
6	1837	1103.407921052726	1.395188896148
6	1838	1104.073477221204	1.32856537455
6	1844	1105.578835969167	0.562984434185
6	1847	1106.091364130062	0
6	1850	1106.696238485073	0
6	1855	1108.636102405728	1.48042199888
6	1858	1109.306752278385	1.098409391523
6	1861	1110.486746959255	1.420593414235
6	1866	1113.124127450408	3.572203227721
6	1867	1114.030782172389	1.255719454793
6	1868	1114.194951729587	1.270368973187
6	1871	1115.501566019325	0
6	1874	1117.347514900311	0
6	1877	1126.513706102636	0
6	1880	1128.664817074806	0
6	1883	1129.925642274216	0
6	1886	1132.023862436223	0
6	1889	1134.885171922948	0
6	1892	1137.001303281987	0
6	1895	1141.542219148472	0
6	1900	1146.03359551366	4.161579863596
6	1901	1146.24737538932	2.599691338105
6	1904	1147.940250631233	0
6	1913	1151.277935060727	2.659814109884
6	1914	1152.456470272469	2.811127176132
6	1919	1153.239533839455	2.793905388831
6	1920	1154.009256544215	2.916969275265
6	1921	1155.913688786723	3.240812811286
6	1926	1157.813399748255	4.824464967646
6	1929	1159.140001826648	2.190773846083
6	1938	1161.730637321248	4.631500752972
6	1939	1162.511719245641	3.964163077439
6	1940	1162.901235163399	3.666094118418
6	1941	1163.030473513522	3.468231101284
6	1944	1165.015837290326	5.158119557375
6	1947	1165.536689622941	4.243511727758
6	1948	1166.96992663803	3.505419673381
6	1951	1167.734229709462	2.354026472303
6	1952	1167.856818812024	0.145004929902
6	1955	1169.000862714718	0
6	1958	1169.770637169844	0.510750856587
6	1965	1170.264615766311	0.437099599718
6	1966	1170.265296895146	0.431873146851
6	1971	1173.016197572018	2.875544853365
6	1972	1173.066347645286	1.099885380053
6	1973	1173.10545930599	0.508626584731
6	1976	1175.43319932849	0
6	1979	1182.414517492725	0
6	1982	1186.161311890609	0
6	1985	1192.071909656483	0
6	1988	1194.321687785161	0
6	1991	1195.527763146318	0.51835613369
6	1996	1197.295050877589	1.076449633179
6	2005	1199.108732658691	2.421873964787
6	2006	1200.015432997062	2.340447239183
6	2007	1200.477206209723	2.732198262686
6	2010	1204.686535478587	6.877083969478
6	2011	1205.439707259476	7.213751056895
6	2012	1209.59171142186	8.276834405019
6	2015	1212.593907198384	1.905551682976
6	2018	1213.157282542131	0
6	2025	1216.377281519667	0.30049553183
6	2026	1218.133348780166	1.997067938617
6	2027	1218.93458239205	2.605325759023
6	2030	1223.289682532915	0
6	2033	1224.300679547678	0
6	2040	1227.805191219189	2.472233618785
6	2043	1228.094712570303	1.949649494257
6	2046	1229.98755691774	2.195388368379
6	2049	1230.374543844961	2.347330028599
6	2050	1231.775017619866	3.029547639701
6	2051	1233.546691567826	3.233661333607
6	2054	1234.087597112511	0
6	2059	1236.790525920232	1.855437140358
6	2062	1237.903407532094	2.962818878573
6	2067	1240.68925440107	2.931834859042
6	2068	1241.142248161465	2.437029604136
6	2073	1244.447309929062	5.423207707745
6	2076	1245.24415747092	3.402911479768
6	2077	1245.730609065617	2.630261309069
6	2078	1245.983130743442	0.912470480045
6	2081	1246.329067095344	0.022100822425
6	2084	1249.925384709919	0
6	2087	1252.246814293664	0.632120920362
6	2090	1255.695616709215	0
6	2093	1257.144408060973	0
6	2096	1260.008479134606	0
6	2099	1262.400476664387	0
6	2102	1263.334562613766	0
6	2105	1265.197975209157	0
6	2108	1267.96868691226	0
6	2111	1271.313252796194	0
6	2114	1272.216136508313	0
6	2117	1274.177070287366	0
6	2120	1276.054648429159	0
6	2123	1277.820098152816	0
6	2126	1283.662932946749	0
6	2129	1288.753374361781	0
6	2132	1292.256118968994	0
6	2135	1293.738917713833	0
6	2141	1302.812243898848	0.042927479894
6	2144	1305.972097216117	0
6	2147	1308.345196710731	0.973932939827
6	2150	1309.136432968699	0
6	2153	1309.594898058426	0
6	2156	1312.457740921672	0
6	2159	1315.973418466747	0
6	2166	1317.675708077658	1.380452129023
6	2169	1319.19617798612	2.498836031699
6	2170	1319.940955458587	2.570568583628
6	2175	1320.884452318214	2.677788529276
6	2182	1321.481332828795	1.072607354034
6	2183	1322.240706972689	1.436737542115
6	2184	1323.458205652912	2.462235428038
6	2185	1324.285918471858	3.273996675579
6	2188	1324.703867586626	3.65443745931
6	2191	1325.650140172945	1.226218603076
6	2192	1326.45252482935	1.514051686971
6	2195	1326.974713048976	0
6	2200	1327.431572394849	0.191494090568
6	2201	1328.095112945941	0.678685850318
6	2204	1329.553958602459	0
6	2207	1338.687976393694	0
6	2212	1343.641870355788	1.837329476444
6	2213	1344.531265635942	0.958131063905
6	2216	1349.316095734019	4.340711200677
6	2219	1350.496114262114	0
6	2222	1351.15343348789	0
6	2227	1352.192313034838	0.586681034531
6	2228	1352.279064793898	0.106607503212
6	2231	1355.479881362672	0
6	2234	1356.544480448127	0
6	2237	1359.24721843489	0
6	2240	1359.627390640428	0
6	2243	1360.181440550415	0.383374281986
6	2246	1361.75929166074	0
6	2249	1362.313510560641	0.206481890841
6	2252	1363.158904144438	0
6	2255	1364.674685822853	0
6	2258	1365.703526503357	0.76280175695
6	2261	1370.297357539825	0
6	2264	1370.845900050908	0
6	2267	1373.285553469597	0
6	2270	1374.519961861087	0.318962113144
6	2273	1374.859514419182	0
6	2276	1375.996379999898	0
6	2279	1376.140898494574	0.026165126418
6	2282	1380.288698436405	0.533018539968
6	2285	1380.784321449111	0
6	2288	1382.117898066635	1.301463245786
6	2291	1382.638239757538	0.352709356027
6	2294	1384.272378551576	0
6	2297	1384.350167678267	0.04990286236
6	2300	1385.350308378961	0.540324305544
6	2303	1385.798169395407	0
6	2306	1387.345461436126	0
6	2309	1391.305911598725	0
6	2312	1392.082100214527	0
6	2315	1392.534173579988	0
6	2318	1395.321467078132	1.761795951217
6	2323	1399.366130553299	1.059590070686
6	2324	1400.596007135239	1.603117410958
6	2327	1404.210989573639	0
6	2330	1408.13858580016	0
6	2333	1409.38469350449	0
6	2336	1411.130522441088	0
6	2339	1414.909652098433	0
6	2342	1415.679492467573	0
6	2348	1424.091398435158	0
6	2351	1426.318123046811	0
6	2356	1427.785554527628	0.985149827761
6	2359	1429.417700620127	2.354131807845
6	2360	1430.389227153519	1.31686586367
6	2363	1432.230299250357	1.499600230143
6	2368	1434.403969231779	1.79303589753
6	2369	1434.559641073585	0.572096395466
6	2372	1436.694337964133	0
6	2375	1438.81198828058	0
6	2378	1439.880456533485	0
6	2381	1445.384763125035	0
6	2384	1448.328157262882	0
6	2387	1449.163074703294	0
6	2390	1449.368527554968	0
6	2393	1452.081143468758	0
6	2399	1454.849761866264	0
6	2402	1454.915967946371	0.037826562841
6	2407	1455.117725394227	0.16693924631
6	2408	1455.609544573744	0.536196987529
6	2411	1456.551845009184	0
6	2414	1459.663739897605	0
6	2417	1462.001342444191	0.55641544545
6	2422	1462.655017713925	0.483260779854
6	2423	1462.805201061768	0.480967432305
6	2426	1463.740854144893	0.21537335035
6	2429	1466.292568486187	1.56132635306
6	2432	1467.447334750969	0
6	2435	1470.103258981116	0.035750061314
6	2438	1477.204591863749	0
6	2441	1479.586393050463	0
6	2444	1481.266315238137	0
6	2447	1484.487188303754	0
6	2450	1489.991746106905	0
6	2453	1490.619194427681	0.582690685701
6	2456	1491.062350351932	0.033593899913
6	2459	1492.998860316871	0
6	2462	1494.696274778984	0
6	2465	1497.909761853425	2.488084872494
6	2468	1502.767745351823	0
6	2471	1513.731069324874	0
6	2476	1517.541238528857	3.381976025639
6	2481	1518.649567579416	3.972315818233
6	2484	1521.990056294109	4.403856575567
6	2485	1522.602739791643	4.974175543603
6	2486	1522.799878024806	1.986273041386
6	2489	1525.603699281	0
6	2492	1527.492370750361	0
6	2495	1530.661247088774	0
6	2498	1531.193735277903	0
6	2501	1534.416117355528	1.049511753929
6	2504	1535.07156708796	0
6	2507	1538.473467367338	0
6	2513	1540.671181237117	0
6	2516	1541.614844724111	0
6	2519	1542.84965044786	0
6	2522	1545.090047528783	0
6	2525	1551.230675652183	0
6	2530	1552.172562381775	0.730941325737
6	2533	1553.579316707487	1.76804770859
6	2536	1553.890159871685	1.451017934253
6	2537	1554.621036769081	0.733695246249
6	2540	1555.311861923992	0.140851350551
6	2543	1555.761778863777	0
6	2546	1556.863384755796	0
6	2549	1557.335873076311	0
6	2552	1558.782790394914	0
6	2555	1561.430909595751	1.987636907754
6	2558	1563.226724622398	0
6	2563	1565.51391448979	1.376929106136
6	2570	1566.497908408407	1.533573024092
6	2571	1566.525019118156	0.721392533717
6	2572	1570.908445358536	4.626530916292
6	2577	1573.892178686165	7.607161380624
6	2580	1574.044982581988	2.335058478575
6	2583	1574.844705423459	2.628125751603
6	2584	1575.997837318702	2.043530237007
6	2587	1576.133936121885	1.45388412481
6	2588	1576.663544831578	0.581455223973
6	2591	1578.049950280411	0
6	2594	1580.456996733193	1.349835257849
6	2599	1583.245603335673	2.514071786225
6	2602	1584.444002107617	1.437509923067
6	2603	1584.473898272904	0.68714647433
6	2606	1585.489180673062	0
6	2609	1587.815056173801	0
6	2612	1594.158572191016	0
6	2618	1596.987112718189	0
6	2621	1597.800217721184	0.557679930207
6	2624	1605.94118972848	0
6	2627	1608.14802124712	0
6	2630	1608.766780519311	0
6	2633	1609.600615117447	0
6	2636	1610.433307703205	0
6	2639	1613.906215627061	0
6	2642	1614.668402031334	0.244084791535
6	2645	1616.062628746373	0
6	2651	1622.004545079135	0
6	2654	1622.676980279235	0
6	2659	1623.858422119836	0.706806403711
6	2662	1625.705353810405	2.174250798543
6	2665	1625.857954559076	0.188594175536
6	2666	1626.260827298638	0.538742050953
6	2669	1627.965219848193	0
6	2675	1629.519805481769	0.443826998317
6	2678	1631.507449073465	1.392146290864
6	2683	1633.686165326496	1.225348010898
6	2684	1634.299091573736	0.800135569668
6	2687	1636.438751485287	0
6	2690	1636.783256396779	0
6	2693	1638.179247751968	0.566877753318
6	2696	1641.141959162222	0
6	2702	1645.331407992729	0
6	2710	1646.887496548399	0.433951277854
6	2711	1647.865203508875	1.206151522671
6	2714	1648.263970047311	0
6	2717	1649.743111486511	0
6	2723	1653.436566479389	0
6	2726	1654.746650504048	0
6	2729	1656.068746302303	0
6	2732	1656.982361431289	0.538475602288
6	2737	1657.676269219498	0.240142320609
6	2740	1657.820851422411	0.162422772921
6	2741	1658.099325522149	0.387734130493
6	2744	1658.651069456721	0.393278823465
6	2750	1660.520703982387	0.085481129759
6	2753	1663.600548652795	0
6	2756	1666.205411481506	0
6	2759	1667.554104537771	0
6	2762	1672.373145911478	1.74246075622
6	2765	1674.048389294829	0
6	2768	1676.469735091686	1.000513524705
6	2771	1677.644512896005	0.063528566539
6	2774	1678.506618782646	0
6	2777	1682.095960675765	0
6	2780	1683.202229997488	0.77846875071
6	2783	1686.028792045473	0
6	2786	1687.383825627871	0.864955923655
6	2789	1689.600649359344	0.864425607472
6	2795	1693.961271220336	1.308351197879
6	2798	1694.90508289611	0
6	2801	1696.987145285842	0
6	2806	1699.801733047661	0.648171303892
6	2811	1702.212239060226	2.993260387464
6	2814	1702.999358789477	3.149738086187
6	2815	1703.090704885594	1.585472572885
6	2816	1704.11841284682	1.41398013506
6	2819	1704.487718280195	0
6	2822	1705.65321922415	0
6	2827	1706.696339471733	0.858682863109
6	2828	1707.109534650627	0.787091588208
6	2831	1708.015592474701	0.884142983439
6	2834	1709.715683862408	0.100294539489
6	2837	1711.721791911783	0
6	2842	1713.432593617083	1.025975836301
6	2845	1714.728768213864	1.549077824113
6	2846	1714.923971986632	0.526438156613
6	2849	1715.88523697393	0
6	2852	1718.552213202875	0
6	2855	1719.43897871646	0
6	2858	1720.529244019338	1.076853511924
6	2867	1727.561683935099	1.104854049785
6	2870	1728.787336743461	0
6	2873	1731.924457316158	0
6	2876	1746.622569142793	0
6	2879	1748.026016528069	0
6	2882	1748.457145621218	0
6	2885	1748.902243096142	0.38040757227
6	2888	1749.501876391177	0
6	2891	1753.205997955943	0
6	2894	1753.905596233054	0
6	2897	1755.447061138396	0.332258707536
6	2900	1758.955797843194	0
6	2903	1763.726912778126	0
6	2906	1765.9288779082	0
6	2918	1771.536685625685	3.841288314344
6	2923	1773.897147823797	5.630017171274
6	2926	1775.530057475078	6.453610121497
6	2929	1776.306702878105	6.758178127758
6	2930	1777.604366307676	4.286502815549
6	2933	1779.165502931468	5.635915178745
6	2936	1779.393080387826	4.682096022788
6	2937	1779.419582603065	3.473082487597
6	2938	1779.519604208374	0.556617395065
6	2939	1779.564792199663	0.314723317992
6	2942	1782.040547546126	0
6	2945	1783.198013633	0
6	2948	1785.460156479195	0
6	2951	1785.760444859513	0
6	2954	1788.247608811965	0
6	2957	1789.791872031654	0
6	2960	1793.857876258827	0
6	2963	1796.750444588483	0.246944684919
6	2966	1800.263251591649	0
6	2969	1801.830260223886	0
6	2972	1804.32941143183	0
6	2975	1806.048098623719	0
6	2978	1811.12963161696	0
6	2981	1814.093291950167	0
6	2984	1815.612063746916	1.131277599576
6	2987	1824.77623874473	0
6	2993	1827.393185824601	0
6	2996	1832.90355644061	0
6	2999	1833.059728351066	0
6	3002	1833.381100537739	0.042367223275
6	3005	1834.274338348595	0
6	3011	1838.991432226497	0.107327937923
6	3014	1841.418173912445	0
6	3017	1842.380502176957	0
6	3020	1845.502600519713	0
6	3023	1847.848620295972	0
6	3026	1848.711275012293	0.028933528317
6	3029	1850.808581360925	0
6	3032	1854.69684439547	0
6	3040	1857.06497858487	0.146030802165
6	3041	1857.303438738776	0.244029074711
6	3046	1859.349603762405	1.969610441645
6	3047	1859.715264388902	0.442618328023
6	3050	1861.752570154146	0
6	3055	1863.109699544455	1.012804749825
6	3056	1863.627287429772	0.562160707012
6	3059	1864.857675397344	0.350305368355
6	3062	1870.009324475052	0
6	3065	1871.985272116836	0
6	3068	1874.586999618999	0
6	3071	1876.708509504733	0.997822510532
6	3074	1879.454246774005	0
6	3077	1880.818217855649	0.440775418205
6	3080	1881.817660907463	0
6	3089	1888.202889512898	0
6	3092	1888.932463885585	0
6	3095	1893.62367147061	0
6	3098	1894.199616954556	0
6	3101	1894.676640297754	0.263724502666
6	3104	1899.871648752887	0
6	3107	1903.389272703044	0
6	3110	1905.390163377631	0
6	3113	1908.998813279653	0
6	3116	1912.250735679303	0
6	3119	1912.900307224653	0.213566018597
6	3124	1914.154947437151	1.091980708484
6	3125	1914.447761622185	0.883547625254
6	3128	1916.479270321968	0
6	3131	1917.961960250939	0.439626464319
6	3134	1919.80291638133	0
6	3139	1920.76805791291	0.84292087221
6	3142	1921.594244894171	0.9101104023
6	3143	1921.710648502857	0.465526323773
6	3148	1923.544822060853	1.668826940188
6	3149	1925.022233143013	3.039946875805
6	3152	1926.435036537202	0
6	3155	1926.729086731666	0
6	3158	1926.870279869248	0
6	3161	1928.177092516768	1.009758227096
6	3164	1929.267048678804	0.408510833231
6	3167	1931.309172031523	0.444354403032
6	3170	1935.136456074967	0
6	3173	1936.955563209449	0
6	3176	1937.691050683891	0
6	3179	1939.91664899263	0
6	3182	1946.166756622289	0
6	3185	1947.155714037591	0
6	3188	1958.510600355432	0
6	3191	1959.469196388168	0
6	3194	1964.373851945319	0
6	3197	1966.802473657135	0
6	3200	1968.672560465809	0.567689299898
6	3203	1968.786224434281	0
6	3206	1969.810877829498	0.212625622745
6	3209	1974.991416521508	0
6	3212	1976.969532250026	0
6	3215	1979.244049048088	0
6	3218	1979.69787741843	0.236860507852
6	3221	1984.006846256068	0
6	3224	1986.648433758001	0.955510198872
6	3227	1987.287297566735	0.218275241815
6	3230	1991.90005690507	0
6	3233	1993.380038225207	0
6	3238	1996.013093256656	0.972699027859
6	3243	1996.879461427767	0.869126931612
6	3244	1997.155589408212	0.730521572587
6	3245	1997.164341119614	0.704101306909
6	3248	1998.909014781616	0
6	3251	2001.58739952114	0
6	3254	2004.264318040477	0.227007936486
6	3257	2007.470037022981	0
6	3260	2008.529570198172	0.107402165364
6	3263	2008.596012486973	0.027900844974
6	3266	2009.438194370875	0
6	3269	2010.633654753467	0
6	3272	2011.531343120274	0.516829979161
6	3275	2014.167469394343	0
6	3278	2014.476554166625	0.263490216841
6	3281	2017.380549031477	0
6	3284	2019.147518624591	0
6	3287	2019.96010967766	0
6	3290	2023.594083124121	0
6	3293	2029.941767431306	0
6	3296	2030.182177703886	0.014070896745
6	3299	2032.207141971299	0
6	3302	2033.077844518979	0
6	3305	2033.497411457806	0.225071088433
6	3308	2034.425037962519	0
6	3313	2035.441090046787	0.925038316069
6	3316	2036.288083531703	1.159631196833
6	3317	2036.657563826876	0.908451537018
6	3322	2039.358543253717	1.651898768696
6	3327	2040.017004533903	1.546524100912
6	3328	2040.37555502407	0.724832566951
6	3329	2040.606007254137	0.902520901802
6	3332	2041.711103699447	0
6	3338	2044.472446249416	0
6	3341	2046.88722311746	0
6	3344	2048.455314398705	0
6	3351	2053.424225434077	3.382108011622
6	3352	2053.734850225315	1.758464440246
6	3357	2054.547735684517	1.295233602778
6	3360	2057.183089092057	2.978885210627
6	3363	2058.041436437746	3.724015853647
6	3364	2058.930548690549	1.983051331805
6	3367	2059.359153155915	1.720379172977
6	3368	2060.306115412461	1.120341972293
6	3371	2061.74905696024	0
6	3374	2064.92773417976	0
6	3377	2065.668368167193	0
6	3380	2070.603976336636	0
6	3383	2072.068708704782	1.407464806089
6	3386	2075.539355485629	0
6	3389	2076.870134280283	0
6	3392	2078.974156779634	0.113625005449
6	3395	2080.548356183186	0
6	3398	2081.687817803551	0
6	3401	2084.508270722524	0
6	3407	2089.557414097885	0
6	3410	2090.414259355982	0
6	3413	2095.152445006799	0
6	3416	2097.047267422202	1.013851487074
6	3419	2097.945126439033	0.399712904135
6	3422	2099.267324893609	1.097584767183
6	3427	2099.877286983799	0.535655305538
6	3428	2099.881935439289	0.315831282005
6	3431	2100.978181518278	0.066248301885
6	3434	2102.373545274249	0
6	3437	2109.125011678636	0
6	3440	2113.416742819748	0
6	3443	2114.78218974912	0
6	3446	2115.449642076301	0.129492482068
6	3449	2118.828265687679	0
6	3452	2119.599268005119	0
6	3455	2120.909145951618	0
6	3458	2121.176068236086	0.0667389266
6	3461	2122.671284257506	0.563729546638
6	3464	2124.10933357499	0
6	3467	2124.889690092723	0.212869110099
6	3470	2129.015156436983	0
6	3473	2136.682852954144	0
6	3476	2137.238924245352	0.439377931979
6	3479	2137.290790073922	0.022076298592
6	3482	2138.93364495229	0
6	3488	2149.904827656478	0
6	3493	2153.053848548742	2.457893095254
6	3494	2154.046884028015	1.799273550872
6	3497	2161.747002096672	0
6	3503	2167.050165465528	0.228361047782
6	3506	2169.574374187798	1.267210763848
6	3511	2171.409301634073	1.010514673407
6	3512	2171.42197185507	0.099742116109
6	3515	2172.330946549592	0
6	3518	2177.412787777905	0
6	3521	2179.376268662931	0
6	3524	2181.387392416555	0
6	3527	2182.500441319872	0
6	3530	2183.038573777636	0.477059987409
6	3536	2190.021452310515	0
6	3539	2190.89829507381	0.556933673303
6	3542	2192.069497188791	0
6	3545	2193.652698610834	1.559309563062
6	3548	2194.079973944386	0.154026985409
6	3551	2194.621173291304	0
6	3554	2197.440316927451	0
6	3557	2198.204066047345	0.609199153617
6	3560	2199.813881163936	0
6	3563	2202.049319530153	0
6	3568	2205.766420577557	1.285594764619
6	3571	2206.524338842889	1.955193462138
6	3574	2206.884999453384	1.101509563905
6	3575	2207.418780208728	0.542349418041
6	3578	2207.729757283911	0.079730679439
6	3581	2209.377091734288	0
6	3584	2209.935668594635	0.033648150184
6	3587	2210.188943645407	0.077327332924
6	3590	2212.25462270752	0
6	3593	2215.684031634949	0
6	3596	2217.345633455481	0
6	3599	2219.886570290217	0
6	3605	2223.709688663274	0
6	3608	2225.773509223977	0.876744510114
6	3611	2228.371762549476	0
6	3614	2231.372653083164	0
6	3617	2232.183442274408	0
6	3620	2235.170253435926	0
6	3623	2235.970674132489	0
6	3626	2237.208667632491	0.164710195418
6	3629	2237.831419375065	0.016129129083
6	3638	2240.395609187794	2.174088716234
6	3639	2241.159038941165	2.298828389185
6	3640	2241.306780065685	2.004361805286
6	3641	2241.414811131517	1.426288378045
6	3644	2243.288507251831	0
6	3647	2244.303557851868	0
6	3650	2246.379025598105	0
6	3653	2248.763174632687	0
6	3656	2249.495850465918	0
6	3659	2252.159819847877	0
6	3662	2253.701632927787	0
6	3665	2254.455878726848	0
6	3668	2256.914429724437	0
6	3671	2258.301195763856	0
6	3674	2260.117049821881	0.274025212188
6	3677	2261.898991111895	0.368775847815
6	3680	2262.947756544101	0
6	3686	2269.51782690983	0
6	3692	2276.115013355075	0
6	3695	2277.709250285395	0
6	3698	2277.831970536995	0
6	3703	2279.880386816343	0.700940205693
6	3706	2282.740414354604	2.940886265463
6	3707	2283.155956277885	2.203305408336
6	3710	2284.043860679607	0
6	3713	2292.845588514603	0
6	3716	2293.379654963714	0.301418491359
6	3719	2295.160305139413	0
6	3722	2298.134176692074	1.841132692587
6	3725	2300.098939747078	0
6	3728	2304.292527365709	0
6	3731	2309.470852405776	0
6	3734	2313.304269520153	0
6	3737	2315.987622015439	0
6	3742	2316.632555289764	0.101514776481
6	3743	2316.789401135198	0.214641086099
6	3746	2317.488732158086	0.619509691139
6	3749	2321.884366079928	0
6	3752	2322.507239156377	0
6	3755	2325.906535908311	0
6	3760	2327.458168828468	0.941384151065
6	3763	2328.104906629438	1.538640528884
6	3766	2328.958861417951	1.170672130776
6	3767	2329.941488432201	1.631568232084
6	3770	2334.716987046136	0
6	3773	2336.175269897504	0
6	3779	2339.24673499632	2.751113155375
6	3782	2340.291792830212	0
6	3785	2341.882604453159	0
6	3788	2342.745155006895	0
6	3791	2346.895993158876	0
6	3794	2347.723651664298	0.817883725252
6	3797	2350.668816655661	0
6	3803	2355.229899050841	0
6	3806	2356.339348206301	0
6	3809	2357.630752393846	0
6	3812	2358.90326865026	0.279149813672
6	3815	2362.904148196181	0
6	3818	2365.391244662482	2.13495013157
6	3821	2367.32053338147	0
6	3826	2369.458390466098	0.670355249058
6	3827	2370.052680325204	0.65690239249
6	3835	2374.066022485583	1.469447767597
6	3836	2374.901571318806	1.094202445734
6	3839	2377.636328900259	0
6	3842	2378.309346509086	0
6	3845	2379.991966906087	0
6	3850	2380.705500633525	0.581174614131
6	3851	2382.031641705062	1.580955488111
6	3854	2386.925166809857	0
6	3857	2390.107247558994	0
6	3860	2390.559953425502	0
6	3863	2391.602517394595	0
6	3866	2395.223945254163	0
6	3869	2397.887074726007	0
6	3872	2400.774862857139	0
6	3875	2403.381760527059	0
6	3878	2405.502317713961	0
6	3881	2406.495350754631	0.560614902203
6	3884	2408.369560199954	0
6	3887	2410.20326670879	1.677914620377
6	3890	2411.341289766503	0
6	3893	2412.785598869859	0
6	3896	2413.404775900232	0
6	3899	2414.799123017885	0.263485131039
6	3902	2416.152433723827	0
6	3905	2419.256425453677	0
6	3908	2419.34548924526	0
6	3911	2421.133322782228	0
6	3914	2421.946225733207	0
6	3917	2435.08039702827	0
6	3920	2435.926707256779	0.363981559602
6	3923	2436.233248249857	0
6	3932	2442.421677383602	0
6	3935	2443.330026438954	0
6	3938	2444.480956224134	0
6	3941	2446.252230144509	1.422094048315
6	3944	2447.990557761056	0
6	3947	2450.193351293334	0
6	3953	2454.682295712882	0
6	3963	2458.945813512879	2.318106365497
6	3964	2459.105607851144	2.230692557422
6	3965	2459.817626760728	2.721276242059
6	3968	2469.458357936726	0
6	3971	2471.014040609611	0
6	3974	2472.587475849388	0
6	3977	2474.888024685574	0
6	3987	2479.826158682495	1.536071932575
6	3988	2480.42393011809	1.00462265585
6	3989	2480.798554697413	1.01909091096
6	3992	2482.499701418792	0
6	3995	2485.166274891695	0
6	3998	2486.42734504589	1.239432308423
6	4001	2487.186754789419	0
6	4009	2492.524757966135	0.386970177403
6	4010	2492.9865656001	0.585865234264
6	4017	2495.131806127624	1.163309993945
6	4018	2495.287838860015	1.261805953388
6	4019	2495.774290074112	1.066548138064
6	4022	2497.010811157806	0
6	4025	2498.187861013556	0.175594565459
7	571	351.378256330671	169
7	572	352.515970615227	170
7	575	353.567098858924	171
7	576	354.232284258184	172
7	581	357.124550012553	173
7	586	358.163023020388	174
7	589	358.941059107571	175
7	590	359.430528507322	176
7	596	360.941957666914	177
7	602	362.996924226286	178
7	603	363.858211164359	179
7	610	369.727224877097	180
7	611	370.126513297222	181
7	614	371.248748128982	182
7	620	373.565928624776	183
7	621	373.847508389915	184
7	627	378.997879176363	185
7	633	384.129433811403	186
7	636	394.547844737909	187
7	639	397.167306358594	188
7	644	400.728789460452	189
7	645	401.244393373481	190
7	648	401.899590411751	191
7	651	402.823118995859	192
7	654	404.173452188183	193
7	659	406.530592049125	194
7	662	409.505097786521	195
7	663	410.028473809517	196
7	668	415.886542745841	197
7	669	419.288805542545	198
7	672	422.227094260191	199
7	675	426.906651642467	200
7	678	428.026731190774	201
7	684	432.295188090721	202
7	689	433.376746686641	203
7	694	436.717036421893	204
7	695	437.020570849796	205
7	698	438.476689519328	206
7	703	439.333235911005	207
7	706	439.718864178377	208
7	709	440.490396902846	209
7	712	440.934309755402	210
7	715	441.398829148007	211
7	716	441.54026229515	212
7	717	441.84564456606	213
7	720	442.332842132023	214
7	729	444.840576469322	215
7	730	445.008736190069	216
7	731	445.431075965131	217
7	732	445.668480818281	218
7	737	446.809577142108	219
7	740	446.896488284857	220
7	747	451.530871125943	221
7	752	454.24531972517	222
7	753	455.03231218558	223
7	754	455.474136502906	224
7	755	456.346013557529	225
7	756	457.954047740881	226
7	766	460.108941528092	227
7	769	461.13533297611	228
7	770	461.269045760256	229
7	771	462.098179932869	230
7	776	464.117040677701	231
7	777	464.724241233748	232
7	782	466.050953121374	233
7	785	468.212219499234	234
7	786	468.264365949244	235
7	789	468.559763680797	236
7	794	470.218600968586	237
7	795	470.962886355844	238
7	798	473.656515635169	239
7	801	474.574808632115	240
7	804	477.077332594112	241
7	807	479.544597271293	242
7	810	480.772319019364	243
7	817	484.765169086982	244
7	823	485.880921847577	245
7	830	489.69972509236	246
7	833	490.120113964965	247
7	834	490.28178969001	248
7	835	491.173798539514	249
7	836	494.031770484999	250
7	837	494.119432888934	251
7	840	496.02538079314	252
7	843	498.683565227205	253
7	846	499.325109269393	254
7	851	502.484580970795	255
7	854	503.329623525655	256
7	855	503.933160107891	257
7	865	508.063524278208	258
7	866	508.505692524884	259
7	869	509.049684184173	260
7	870	509.640289010272	261
7	877	511.786732224464	262
7	880	512.683791285328	263
7	881	512.947669195586	264
7	889	514.428001036325	265
7	890	515.242196419079	266
7	893	517.83784469993	267
7	894	518.631791148153	268
7	897	520.343441194319	269
7	900	524.043695748558	270
7	905	525.400494457982	271
7	908	526.717621746111	272
7	911	527.679871745949	273
7	914	529.01029171961	274
7	917	530.139472857912	275
7	918	532.219455005221	276
7	923	536.922815649342	277
7	924	537.059308307768	278
7	927	538.426182934882	279
7	932	542.387751507937	280
7	933	543.684009327656	281
7	936	546.193282084257	282
7	941	554.381539495114	283
7	942	554.975365586003	284
7	945	556.056196894113	285
7	950	560.945333949391	286
7	951	561.523488081775	287
7	954	562.768332412985	288
7	962	568.132763156417	289
7	965	568.251557828708	290
7	966	568.742388629836	291
7	971	570.614469109571	292
7	972	571.850725423602	293
7	979	574.859902571309	294
7	980	575.259021954627	295
7	981	576.253231248685	296
7	990	580.542571027814	297
7	991	582.476515651851	298
7	994	583.370422112784	299
7	995	584.588322459729	300
7	996	584.948730077881	301
7	1001	585.698613454468	302
7	1004	586.3433926759	303
7	1005	586.440455812698	304
7	1008	589.632726283142	305
7	1011	592.456807899608	306
7	1014	593.667859694317	307
7	1017	598.363024893045	308
7	1020	601.768785630821	309
7	1023	602.140474348133	310
7	1026	603.992396829895	311
7	1031	608.054070558356	312
7	1032	608.718646931423	313
7	1035	609.439624111865	314
7	1038	611.717637868522	315
7	1041	612.587432569257	316
7	1044	613.574435814756	317
7	1047	617.178825391384	318
7	1050	617.544523841461	319
7	1061	621.033772801923	320
7	1064	621.266213738872	321
7	1065	622.115792161638	322
7	1066	622.999644189306	323
7	1067	623.099492481863	324
7	1068	623.217242772725	325
7	1071	624.576277082746	326
7	1079	627.986537686619	327
7	1080	628.833277402016	328
7	1091	638.892441003881	329
7	1092	639.429089852459	330
7	1095	641.953508281646	331
7	1104	647.406445270964	332
7	1107	651.867416657181	333
7	1110	652.756020381727	334
7	1119	658.724319717757	335
7	1122	659.846018747974	336
7	1123	660.94141551133	337
7	1124	661.618728055871	338
7	1125	661.720197379995	339
7	1128	666.560849256115	340
7	1136	671.100964410189	341
7	1139	671.516958658459	342
7	1144	673.453428923038	343
7	1145	674.104661519733	344
7	1146	674.851334373558	345
7	1149	681.828027906054	346
7	1154	682.115323516456	347
7	1155	683.668883308098	348
7	1158	686.058784332692	349
7	1161	688.724447302508	350
7	1164	692.843995522181	351
7	1174	697.664320602969	352
7	1175	698.336237455197	353
7	1178	700.893620944256	354
7	1179	701.152381131202	355
7	1182	702.861114431436	356
7	1185	704.316833546602	357
7	1188	706.765356250109	358
7	1191	710.044629875074	359
7	1196	716.498467184416	360
7	1201	717.492310296012	361
7	1202	718.408249694851	362
7	1205	718.804876833813	363
7	1206	719.087110397877	364
7	1209	722.892080078022	365
7	1214	728.275989432713	366
7	1219	731.59681774444	367
7	1220	732.822734327028	368
7	1225	734.801777800783	369
7	1230	737.066994423484	370
7	1231	737.157941868378	371
7	1232	737.222969117502	372
7	1233	738.446101464158	373
7	1236	738.837692716944	374
7	1239	740.264920165142	375
7	1244	740.566425158093	376
7	1245	740.982978310269	377
7	1248	745.190155819031	378
7	1257	751.907509713348	379
7	1266	755.326577373393	380
7	1267	756.701205202289	381
7	1268	757.187241465102	382
7	1271	759.368710745784	383
7	1272	759.516958089998	384
7	1273	760.0077685994	385
7	1274	760.751626525135	386
7	1279	761.96483329687	387
7	1280	761.967578094759	388
7	1281	762.516491922912	389
7	1286	766.781373765677	390
7	1289	767.608328712697	391
7	1292	770.285263126653	392
7	1293	770.553539739357	393
7	1302	772.893860204923	394
7	1303	772.916591426145	395
7	1304	773.198751479506	396
7	1305	773.693264625866	397
7	1308	775.707357264613	398
7	1311	780.665761115607	399
7	1316	782.526039701665	400
7	1317	784.229905291253	401
7	1320	785.518458366824	402
7	1323	789.642406017982	403
7	1326	790.639952164605	404
7	1331	792.9238096685	405
7	1332	793.773074568007	406
7	1335	795.1639438006	407
7	1338	796.084622450766	408
7	1341	798.059954128889	409
7	1344	800.524125382939	410
7	1347	802.433979353502	411
7	1354	803.814806672009	412
7	1357	804.941063627296	413
7	1360	806.836586990002	414
7	1372	812.238351249159	415
7	1375	813.57785398565	416
7	1376	814.651831687624	417
7	1377	816.824332662614	418
7	1378	817.246926883336	419
7	1379	818.668410849473	420
7	1380	819.037682531059	421
7	1385	822.623321830742	422
7	1386	823.163138987555	423
7	1391	825.704428090051	424
7	1392	825.895389371662	425
7	1398	832.654415214144	426
7	1406	836.269090520502	427
7	1407	837.305844912868	428
7	1410	837.328011147922	429
7	1415	838.835672637327	430
7	1418	839.713570272086	431
7	1421	840.394174008114	432
7	1422	840.511862307228	433
7	1425	844.037220966785	434
7	1433	858.533360620009	435
7	1434	861.118285226987	436
7	1440	863.041206320273	437
7	1445	863.98910905728	438
7	1448	865.203133347433	439
7	1449	866.42884567628	440
7	1452	868.40573869648	441
7	1455	869.894211664568	442
7	1460	871.890436104298	443
7	1461	872.03077994645	444
7	1464	876.865747916256	445
7	1467	881.945748070374	446
7	1473	885.027891272745	447
7	1479	887.779956608512	448
7	1482	890.966528865519	449
7	1485	893.539774679513	450
7	1488	894.573482015023	451
7	1491	894.88281169663	452
7	1496	898.703486548203	453
7	1499	899.559975741397	454
7	1500	900.850108441312	455
7	1505	902.570209562652	456
7	1506	903.169538873564	457
7	1509	903.402716368002	458
7	1520	909.748089779655	459
7	1521	909.800197353518	460
7	1524	910.461222139838	461
7	1527	911.795840125212	462
7	1530	913.019736944062	463
7	1533	916.435095992827	464
7	1538	922.136260634043	465
7	1541	922.335724589421	466
7	1542	923.255159488621	467
7	1545	929.375608548084	468
7	1550	935.029584380747	469
7	1551	936.560243524356	470
7	1558	944.173534443232	471
7	1559	944.557455792445	472
7	1560	946.744760239815	473
7	1563	949.271526124916	474
7	1566	952.929065074439	475
7	1569	956.287556212724	476
7	1574	959.102824830415	477
7	1577	959.786624891762	478
7	1578	960.675863517778	479
7	1585	963.416853103704	480
7	1586	965.272956801804	481
7	1587	966.473935415183	482
7	1594	967.921204552081	483
7	1595	968.030141095676	484
7	1596	968.204999474077	485
7	1603	972.845729805513	486
7	1604	975.115334194376	487
7	1605	975.292076363757	488
7	1608	977.047785084964	489
7	1613	981.36973465544	490
7	1616	982.351532311931	491
7	1617	982.678875484566	492
7	1620	984.020545792507	493
7	1623	984.528027841828	494
7	1626	985.921551093334	495
7	1629	986.486766244743	496
7	1635	991.393758963086	497
7	1638	994.866058971818	498
7	1641	998.282808282653	499
7	1644	1000.61614827634	500
7	1647	1003.577727325336	501
7	1650	1004.360597289604	502
7	1655	1006.734630100092	503
7	1656	1006.950050695565	504
7	1659	1007.701326800161	505
7	1667	1010.161480218137	506
7	1670	1010.514927936857	507
7	1671	1010.567301548845	508
7	1674	1013.096178126034	509
7	1680	1022.115145667389	510
7	1685	1022.537613026599	511
7	1686	1023.805865008633	512
7	1691	1027.123767535586	513
7	1692	1028.658861399559	514
7	1695	1032.20569339467	515
7	1701	1034.988575000533	516
7	1704	1038.251755322411	517
7	1707	1040.552154604983	518
7	1710	1043.76551502804	519
7	1723	1050.746112410789	520
7	1724	1050.825349927754	521
7	1725	1050.97700094621	522
7	1726	1051.512531279744	523
7	1727	1052.158666914651	524
7	1728	1052.518461021299	525
7	1736	1057.598924567256	526
7	1737	1058.141793711729	527
7	1747	1068.248766930258	528
7	1748	1068.430486692547	529
7	1753	1070.407681335905	530
7	1754	1070.860812741	531
7	1755	1071.578885134181	532
7	1758	1072.423265186789	533
7	1766	1073.958003839164	534
7	1767	1074.59982988649	535
7	1777	1078.601111409044	536
7	1780	1079.401147426437	537
7	1785	1082.056434764613	538
7	1790	1085.984255404235	539
7	1791	1087.518464028063	540
7	1792	1087.72819145105	541
7	1793	1087.906540121258	542
7	1794	1087.94276543839	543
7	1797	1088.882813876601	544
7	1800	1090.395247161076	545
7	1805	1091.716988459572	546
7	1806	1091.90374488124	547
7	1811	1094.495957519028	548
7	1820	1098.016196856719	549
7	1823	1098.552923564844	550
7	1824	1099.125351895637	551
7	1825	1099.755545540327	552
7	1826	1100.237711541981	553
7	1831	1101.931016131102	554
7	1834	1102.473861832858	555
7	1837	1103.407921052726	556
7	1838	1104.073477221204	557
7	1839	1104.58009376017	558
7	1845	1105.674184990813	559
7	1848	1106.185017958134	560
7	1855	1108.636102405728	561
7	1858	1109.306752278385	562
7	1861	1110.486746959255	563
7	1866	1113.124127450408	564
7	1867	1114.030782172389	565
7	1868	1114.194951729587	566
7	1869	1115.229485618189	567
7	1872	1115.984542433975	568
7	1875	1117.740148397882	569
7	1878	1127.592853227908	570
7	1881	1128.808735793257	571
7	1884	1130.168807915067	572
7	1887	1133.468164550527	573
7	1890	1136.926518156175	574
7	1893	1137.186150963212	575
7	1901	1146.24737538932	576
7	1902	1146.36247629602	577
7	1913	1151.277935060727	578
7	1914	1152.456470272469	579
7	1919	1153.239533839455	580
7	1920	1154.009256544215	581
7	1921	1155.913688786723	582
7	1926	1157.813399748255	583
7	1929	1159.140001826648	584
7	1939	1162.511719245641	585
7	1940	1162.901235163399	586
7	1941	1163.030473513522	587
7	1944	1165.015837290326	588
7	1947	1165.536689622941	589
7	1948	1166.96992663803	590
7	1951	1167.734229709462	591
7	1952	1167.856818812024	592
7	1953	1168.256505642037	593
7	1958	1169.770637169844	594
7	1965	1170.264615766311	595
7	1966	1170.265296895146	596
7	1972	1173.066347645286	597
7	1973	1173.10545930599	598
7	1974	1175.252011299792	599
7	1977	1178.079874007335	600
7	1980	1182.523995655836	601
7	1983	1187.116707685611	602
7	1986	1192.396891681948	603
7	1991	1195.527763146318	604
7	2006	1200.015432997062	605
7	2007	1200.477206209723	606
7	2011	1205.439707259476	607
7	2012	1209.59171142186	608
7	2015	1212.593907198384	609
7	2016	1212.974937737141	610
7	2025	1216.377281519667	611
7	2026	1218.133348780166	612
7	2027	1218.93458239205	613
7	2028	1219.760851230534	614
7	2031	1223.808956023169	615
7	2040	1227.805191219189	616
7	2043	1228.094712570303	617
7	2046	1229.98755691774	618
7	2049	1230.374543844961	619
7	2050	1231.775017619866	620
7	2051	1233.546691567826	621
7	2052	1233.888580010735	622
7	2059	1236.790525920232	623
7	2062	1237.903407532094	624
7	2067	1240.68925440107	625
7	2068	1241.142248161465	626
7	2073	1244.447309929062	627
7	2076	1245.24415747092	628
7	2077	1245.730609065617	629
7	2078	1245.983130743442	630
7	2081	1246.329067095344	631
7	2082	1246.835593081383	632
7	2087	1252.246814293664	633
7	2088	1252.463373506804	634
7	2091	1256.395508262531	635
7	2094	1258.140871151443	636
7	2097	1260.51013041125	637
7	2100	1262.451143390261	638
7	2103	1263.703702786765	639
7	2106	1265.829297962317	640
7	2109	1270.26836351509	641
7	2112	1271.416620614255	642
7	2115	1273.687429829752	643
7	2118	1275.181707677331	644
7	2121	1276.285495720419	645
7	2124	1280.594393444215	646
7	2127	1288.240530202321	647
7	2130	1288.94645655238	648
7	2133	1292.46810485896	649
7	2136	1294.088561926541	650
7	2142	1303.031671191252	651
7	2147	1308.345196710731	652
7	2148	1308.89679043361	653
7	2151	1309.221283919866	654
7	2154	1310.909264125154	655
7	2157	1313.250689227467	656
7	2169	1319.19617798612	657
7	2170	1319.940955458587	658
7	2175	1320.884452318214	659
7	2183	1322.240706972689	660
7	2184	1323.458205652912	661
7	2185	1324.285918471858	662
7	2188	1324.703867586626	663
7	2191	1325.650140172945	664
7	2192	1326.45252482935	665
7	2193	1326.474820625866	666
7	2201	1328.095112945941	667
7	2202	1328.227100227419	668
7	2205	1329.681297128237	669
7	2212	1343.641870355788	670
7	2213	1344.531265635942	671
7	2216	1349.316095734019	672
7	2217	1350.109037090556	673
7	2220	1350.902371313153	674
7	2228	1352.279064793898	675
7	2229	1354.300706789424	676
7	2232	1355.587229509545	677
7	2235	1357.313695045802	678
7	2238	1359.29162569716	679
7	2243	1360.181440550415	680
7	2244	1361.032507499632	681
7	2249	1362.313510560641	682
7	2250	1362.477479220041	683
7	2253	1363.42651558279	684
7	2258	1365.703526503357	685
7	2259	1369.851282294347	686
7	2262	1370.329567011034	687
7	2265	1371.289712951762	688
7	2270	1374.519961861087	689
7	2271	1374.622586993335	690
7	2274	1375.976979712469	691
7	2279	1376.140898494574	692
7	2282	1380.288698436405	693
7	2283	1380.299764853709	694
7	2288	1382.117898066635	695
7	2291	1382.638239757538	696
7	2292	1383.779732657236	697
7	2297	1384.350167678267	698
7	2300	1385.350308378961	699
7	2301	1385.382418822961	700
7	2304	1385.897178261347	701
7	2307	1388.187643642525	702
7	2310	1391.675003044844	703
7	2313	1392.244202134774	704
7	2318	1395.321467078132	705
7	2323	1399.366130553299	706
7	2324	1400.596007135239	707
7	2325	1401.063488885727	708
7	2328	1404.997448756274	709
7	2331	1408.195233360216	710
7	2334	1409.555727306195	711
7	2337	1412.249461638096	712
7	2340	1415.216589203804	713
7	2343	1415.992420800223	714
7	2349	1424.331701977738	715
7	2356	1427.785554527628	716
7	2359	1429.417700620127	717
7	2360	1430.389227153519	718
7	2363	1432.230299250357	719
7	2368	1434.403969231779	720
7	2369	1434.559641073585	721
7	2370	1435.011260907073	722
7	2373	1438.435375132289	723
7	2376	1439.110999252024	724
7	2379	1441.342752445253	725
7	2382	1446.894351789073	726
7	2385	1448.868299137151	727
7	2388	1449.186340652849	728
7	2391	1449.729650476559	729
7	2394	1452.130962587576	730
7	2402	1454.915967946371	731
7	2407	1455.117725394227	732
7	2408	1455.609544573744	733
7	2409	1455.86732416848	734
7	2412	1457.116660162683	735
7	2417	1462.001342444191	736
7	2422	1462.655017713925	737
7	2423	1462.805201061768	738
7	2426	1463.740854144893	739
7	2429	1466.292568486187	740
7	2430	1466.402908801942	741
7	2435	1470.103258981116	742
7	2436	1470.4659927712	743
7	2439	1478.535196335528	744
7	2442	1479.765618289753	745
7	2445	1482.730264946797	746
7	2448	1485.975267455327	747
7	2453	1490.619194427681	748
7	2456	1491.062350351932	749
7	2457	1491.16252779686	750
7	2460	1494.02535648379	751
7	2465	1497.909761853425	752
7	2466	1498.029318709382	753
7	2469	1507.799394609985	754
7	2476	1517.541238528857	755
7	2481	1518.649567579416	756
7	2484	1521.990056294109	757
7	2485	1522.602739791643	758
7	2486	1522.799878024806	759
7	2487	1522.876107300495	760
7	2490	1525.89271214951	761
7	2493	1528.83274145508	762
7	2496	1530.981178908568	763
7	2501	1534.416117355528	764
7	2502	1534.962628605725	765
7	2505	1535.288747494471	766
7	2508	1538.547517646654	767
7	2514	1540.748568896895	768
7	2517	1542.499532037424	769
7	2520	1543.116806829554	770
7	2523	1545.622583425399	771
7	2533	1553.579316707487	772
7	2536	1553.890159871685	773
7	2537	1554.621036769081	774
7	2540	1555.311861923992	775
7	2541	1555.634106767607	776
7	2544	1556.471834415424	777
7	2547	1557.116854091044	778
7	2550	1558.101456248296	779
7	2555	1561.430909595751	780
7	2556	1562.436464608697	781
7	2563	1565.51391448979	782
7	2570	1566.497908408407	783
7	2571	1566.525019118156	784
7	2572	1570.908445358536	785
7	2577	1573.892178686165	786
7	2580	1574.044982581988	787
7	2584	1575.997837318702	788
7	2587	1576.133936121885	789
7	2588	1576.663544831578	790
7	2589	1577.057474327381	791
7	2594	1580.456996733193	792
7	2603	1584.473898272904	793
7	2604	1584.478249215141	794
7	2607	1585.884472789647	795
7	2610	1588.909432282957	796
7	2613	1594.167344112401	797
7	2621	1597.800217721184	798
7	2622	1598.925651560353	799
7	2625	1606.025809187448	800
7	2628	1608.682562675493	801
7	2631	1608.858754668164	802
7	2634	1609.967243074777	803
7	2637	1611.296970250288	804
7	2643	1614.708102923902	805
7	2646	1616.672573090593	806
7	2652	1622.071131588397	807
7	2659	1623.858422119836	808
7	2662	1625.705353810405	809
7	2665	1625.857954559076	810
7	2666	1626.260827298638	811
7	2667	1626.454491442694	812
7	2670	1628.434917256293	813
7	2678	1631.507449073465	814
7	2683	1633.686165326496	815
7	2684	1634.299091573736	816
7	2685	1635.874898659345	817
7	2688	1636.759614929969	818
7	2693	1638.179247751968	819
7	2694	1640.740316905341	820
7	2697	1641.567192244913	821
7	2703	1645.788167312872	822
7	2711	1647.865203508875	823
7	2712	1648.060739320954	824
7	2715	1648.456690243343	825
7	2718	1650.297892491636	826
7	2724	1653.695968933371	827
7	2727	1655.264416715036	828
7	2737	1657.676269219498	829
7	2740	1657.820851422411	830
7	2741	1658.099325522149	831
7	2744	1658.651069456721	832
7	2745	1658.822804712444	833
7	2751	1663.396385470866	834
7	2754	1663.940241963097	835
7	2757	1666.395295466235	836
7	2762	1672.373145911478	837
7	2763	1672.4606045055	838
7	2768	1676.469735091686	839
7	2771	1677.644512896005	840
7	2772	1677.880602856172	841
7	2775	1679.063705272171	842
7	2780	1683.202229997488	843
7	2781	1683.361320691674	844
7	2789	1689.600649359344	845
7	2790	1690.959458010277	846
7	2796	1694.172703011542	847
7	2799	1696.092917581826	848
7	2806	1699.801733047661	849
7	2811	1702.212239060226	850
7	2814	1702.999358789477	851
7	2815	1703.090704885594	852
7	2816	1704.11841284682	853
7	2817	1704.246450708854	854
7	2820	1704.623017227048	855
7	2827	1706.696339471733	856
7	2828	1707.109534650627	857
7	2831	1708.015592474701	858
7	2834	1709.715683862408	859
7	2835	1710.530773709701	860
7	2842	1713.432593617083	861
7	2845	1714.728768213864	862
7	2846	1714.923971986632	863
7	2847	1715.447110658271	864
7	2850	1716.195655047884	865
7	2853	1718.746202054629	866
7	2858	1720.529244019338	867
7	2859	1720.74190321681	868
7	2868	1727.860191891174	869
7	2871	1729.659926953602	870
7	2874	1731.978711847018	871
7	2877	1746.72192573935	872
7	2880	1748.060507963806	873
7	2885	1748.902243096142	874
7	2886	1749.406725976939	875
7	2889	1750.09586825148	876
7	2892	1753.483387527844	877
7	2897	1755.447061138396	878
7	2898	1756.708565972875	879
7	2901	1760.342746936277	880
7	2904	1764.364995678369	881
7	2907	1766.996277949688	882
7	2923	1773.897147823797	883
7	2926	1775.530057475078	884
7	2929	1776.306702878105	885
7	2930	1777.604366307676	886
7	2933	1779.165502931468	887
7	2936	1779.393080387826	888
7	2937	1779.419582603065	889
7	2938	1779.519604208374	890
7	2939	1779.564792199663	891
7	2940	1779.859610746961	892
7	2943	1782.106839314523	893
7	2946	1783.718205623874	894
7	2949	1785.680960442216	895
7	2952	1786.018758921413	896
7	2955	1788.73808640576	897
7	2958	1790.112098933547	898
7	2963	1796.750444588483	899
7	2964	1796.911220552204	900
7	2967	1801.152302304511	901
7	2970	1802.27139606322	902
7	2973	1804.361500800591	903
7	2976	1807.003286021046	904
7	2979	1812.190800656704	905
7	2984	1815.612063746916	906
7	2985	1815.761842427222	907
7	2988	1825.969847477449	908
7	2994	1827.399395461396	909
7	2997	1833.011935540497	910
7	3002	1833.381100537739	911
7	3003	1833.731226146856	912
7	3006	1836.225282600414	913
7	3012	1839.414482385371	914
7	3015	1841.785403181237	915
7	3018	1845.46577168181	916
7	3021	1846.14718326379	917
7	3026	1848.711275012293	918
7	3027	1849.000066511168	919
7	3030	1851.322785097667	920
7	3033	1855.562977143326	921
7	3041	1857.303438738776	922
7	3047	1859.715264388902	923
7	3048	1860.391936526065	924
7	3055	1863.109699544455	925
7	3056	1863.627287429772	926
7	3059	1864.857675397344	927
7	3060	1865.044193822014	928
7	3063	1870.149802226526	929
7	3066	1872.3890561577	930
7	3071	1876.708509504733	931
7	3072	1877.972497270329	932
7	3077	1880.818217855649	933
7	3078	1881.706005808038	934
7	3081	1881.825876373019	935
7	3090	1888.290665482822	936
7	3093	1888.953124044869	937
7	3096	1893.992317766343	938
7	3101	1894.676640297754	939
7	3102	1894.830175266633	940
7	3105	1900.440728512961	941
7	3108	1904.525686780886	942
7	3111	1906.21990497803	943
7	3114	1909.175616878786	944
7	3119	1912.900307224653	945
7	3124	1914.154947437151	946
7	3125	1914.447761622185	947
7	3126	1915.5595571609	948
7	3131	1917.961960250939	949
7	3132	1918.025334868049	950
7	3139	1920.76805791291	951
7	3142	1921.594244894171	952
7	3143	1921.710648502857	953
7	3148	1923.544822060853	954
7	3149	1925.022233143013	955
7	3150	1925.705538977914	956
7	3153	1926.611894116966	957
7	3156	1926.783163068103	958
7	3167	1931.309172031523	959
7	3168	1931.550720979834	960
7	3171	1935.156603559013	961
7	3174	1937.02028331176	962
7	3177	1938.234565505802	963
7	3180	1940.234860272658	964
7	3183	1946.696476695877	965
7	3186	1948.237684583108	966
7	3189	1959.432692554492	967
7	3192	1959.672399029058	968
7	3195	1964.985565337638	969
[...]
10	1663	1008.17750388171	1
10	1666	1010.141427486612	2
10	1669	1010.208539732883	2
10	1673	1012.391413533516	1
10	1676	1020.294524683382	1
10	1682	1022.342604188716	1
10	1684	1022.455301953821	2
10	1688	1026.064304906849	1
10	1690	1026.257910086151	2
10	1694	1029.140290906464	1
10	1699	1033.411980496509	1
10	1703	1037.562401349776	1
10	1706	1040.387066857862	1
10	1709	1042.26454453227	1
10	1712	1046.965322881318	1
10	1714	1047.299064670789	2
10	1716	1047.649486118129	3
10	1718	1048.38449194464	4
10	1720	1049.732886282628	5
10	1722	1049.827252857735	6
10	1733	1057.554225803205	1
10	1735	1057.592258524005	2
10	1739	1065.687425046519	1
10	1743	1066.221310842513	2
10	1745	1066.560853583897	3
10	1750	1068.759699045809	2
10	1752	1070.266246917956	3
10	1757	1072.079235388536	1
10	1763	1073.005806103309	1
10	1765	1073.167255073921	2
10	1769	1077.135386042558	1
10	1771	1077.634539319674	2
10	1773	1077.757587592519	3
10	1779	1078.94391207923	3
10	1782	1080.626616948161	3
10	1784	1081.718100538109	4
10	1787	1082.131613426523	4
10	1789	1082.281341601225	5
10	1796	1088.77691371147	1
10	1799	1089.453617599112	1
10	1802	1090.764792878303	1
10	1804	1091.606978246129	2
10	1808	1093.171037257734	1
10	1810	1093.890128599376	2
10	1813	1094.974361966356	2
10	1815	1095.984306229043	3
10	1817	1096.034148057035	4
10	1819	1096.498898346307	5
10	1822	1098.51815520374	5
10	1828	1101.212603989651	2
10	1830	1101.310204948521	3
10	1833	1102.012732156578	3
10	1836	1102.744911846654	3
10	1843	1105.015851534982	1
10	1847	1106.091364130062	1
10	1850	1106.696238485073	1
10	1852	1107.155680406848	2
10	1854	1108.208342886862	3
10	1857	1109.06615354502	3
10	1860	1109.551924222687	3
10	1863	1112.775062717596	3
10	1865	1112.9245827564	4
10	1871	1115.501566019325	1
10	1874	1117.347514900311	1
10	1877	1126.513706102636	1
10	1880	1128.664817074806	1
10	1883	1129.925642274216	1
10	1886	1132.023862436223	1
10	1889	1134.885171922948	1
10	1892	1137.001303281987	1
10	1895	1141.542219148472	1
10	1897	1141.872015650064	2
10	1904	1147.940250631233	1
10	1906	1148.618120950843	2
10	1908	1149.645343096337	3
10	1910	1150.445628450624	4
10	1912	1151.09228726895	5
10	1916	1152.672875975437	4
10	1918	1152.988934780609	5
10	1923	1156.949227980565	3
10	1925	1157.099136568276	4
10	1928	1158.547556168202	4
10	1933	1159.562242412238	4
10	1935	1159.857717732951	5
10	1937	1161.293177895183	6
10	1943	1163.464506964649	4
10	1946	1165.380203237159	4
10	1950	1167.711813882122	3
10	1955	1169.000862714718	1
10	1957	1169.259886313257	2
10	1960	1169.827516166593	2
10	1962	1169.833423748295	3
10	1964	1170.140652718653	4
10	1970	1172.596832721259	3
10	1976	1175.43319932849	1
10	1979	1182.414517492725	1
10	1982	1186.161311890609	1
10	1985	1192.071909656483	1
10	1988	1194.321687785161	1
10	1990	1195.009407012628	2
10	1993	1196.21860124441	2
10	1998	1197.674985757879	3
10	2000	1197.745007947037	4
10	2004	1198.225956202581	5
10	2014	1210.688355515408	2
10	2018	1213.157282542131	1
10	2020	1216.076785987837	2
10	2022	1216.136280841549	3
10	2024	1216.329256633027	4
10	2030	1223.289682532915	1
10	2033	1224.300679547678	1
10	2035	1225.332957600404	2
10	2037	1226.145063076046	3
10	2039	1227.792168549361	4
10	2042	1228.027213816362	4
10	2045	1228.745469980165	4
10	2048	1230.313030234219	4
10	2054	1234.087597112511	1
10	2056	1234.935088779874	2
10	2058	1234.940588653521	3
10	2061	1237.757419542028	3
10	2064	1238.705218557329	3
10	2066	1239.024102221317	4
10	2070	1241.841245991152	3
10	2072	1243.100347756548	4
10	2075	1245.070660263397	4
10	2080	1246.306966272919	2
10	2084	1249.925384709919	1
10	2086	1251.614693373302	2
10	2090	1255.695616709215	1
10	2093	1257.144408060973	1
10	2096	1260.008479134606	1
10	2099	1262.400476664387	1
10	2102	1263.334562613766	1
10	2105	1265.197975209157	1
10	2108	1267.96868691226	1
10	2111	1271.313252796194	1
10	2114	1272.216136508313	1
10	2117	1274.177070287366	1
10	2120	1276.054648429159	1
10	2123	1277.820098152816	1
10	2126	1283.662932946749	1
10	2129	1288.753374361781	1
10	2132	1292.256118968994	1
10	2135	1293.738917713833	1
10	2140	1302.769316418954	1
10	2144	1305.972097216117	1
10	2146	1307.371263770904	2
10	2150	1309.136432968699	1
10	2153	1309.594898058426	1
10	2156	1312.457740921672	1
10	2159	1315.973418466747	1
10	2161	1316.295255948635	2
10	2165	1317.370386874959	3
10	2168	1318.206663788938	4
10	2172	1320.408725474761	3
10	2174	1320.803969430574	4
10	2177	1320.995970224874	4
10	2179	1321.011921796279	5
10	2187	1324.423921569869	3
10	2190	1324.938473142379	3
10	2195	1326.974713048976	1
10	2199	1327.416427095623	2
10	2204	1329.553958602459	1
10	2207	1338.687976393694	1
10	2209	1341.804540879344	2
10	2211	1343.573134572037	3
10	2215	1344.975384533342	2
10	2219	1350.496114262114	1
10	2222	1351.15343348789	1
10	2224	1351.605632000307	2
10	2231	1355.479881362672	1
10	2234	1356.544480448127	1
10	2237	1359.24721843489	1
10	2240	1359.627390640428	1
10	2242	1359.798066268429	2
10	2246	1361.75929166074	1
10	2248	1362.1070286698	2
10	2252	1363.158904144438	1
10	2255	1364.674685822853	1
10	2257	1364.940724746407	2
10	2261	1370.297357539825	1
10	2264	1370.845900050908	1
10	2267	1373.285553469597	1
10	2269	1374.200999747943	2
10	2273	1374.859514419182	1
10	2276	1375.996379999898	1
10	2278	1376.114733368156	2
10	2281	1379.755679896437	2
10	2285	1380.784321449111	1
10	2287	1380.816434820849	2
10	2290	1382.285530401511	2
10	2294	1384.272378551576	1
10	2296	1384.300264815907	2
10	2299	1384.809984073417	2
10	2303	1385.798169395407	1
10	2306	1387.345461436126	1
10	2309	1391.305911598725	1
10	2312	1392.082100214527	1
10	2315	1392.534173579988	1
10	2317	1393.559671126915	2
10	2320	1398.306540482613	2
10	2322	1398.992889724281	3
10	2327	1404.210989573639	1
10	2330	1408.13858580016	1
10	2333	1409.38469350449	1
10	2336	1411.130522441088	1
10	2339	1414.909652098433	1
10	2342	1415.679492467573	1
10	2348	1424.091398435158	1
10	2351	1426.318123046811	1
10	2353	1426.800404699867	2
10	2355	1427.063568812282	3
10	2358	1429.072361289849	3
10	2362	1430.730699020214	2
10	2365	1432.610933334249	2
10	2367	1433.987544678119	3
10	2372	1436.694337964133	1
10	2375	1438.81198828058	1
10	2378	1439.880456533485	1
10	2381	1445.384763125035	1
10	2384	1448.328157262882	1
10	2387	1449.163074703294	1
10	2390	1449.368527554968	1
10	2393	1452.081143468758	1
10	2399	1454.849761866264	1
10	2401	1454.87814138353	2
10	2404	1454.950786147917	2
10	2406	1455.073347586215	3
10	2411	1456.551845009184	1
10	2414	1459.663739897605	1
10	2416	1461.444926998741	2
10	2419	1462.171756934071	2
10	2421	1462.324233629463	3
10	2425	1463.525480794543	2
10	2428	1464.731242133127	2
10	2432	1467.447334750969	1
10	2434	1470.067508919802	2
10	2438	1477.204591863749	1
10	2441	1479.586393050463	1
10	2444	1481.266315238137	1
10	2447	1484.487188303754	1
10	2450	1489.991746106905	1
10	2452	1490.03650374198	2
10	2455	1491.028756452019	2
10	2459	1492.998860316871	1
10	2462	1494.696274778984	1
10	2464	1495.421676980931	2
10	2468	1502.767745351823	1
10	2471	1513.731069324874	1
10	2473	1514.159262503218	2
10	2475	1514.677251761183	3
10	2478	1517.586199718542	3
10	2480	1517.62856424804	4
10	2483	1520.81360498342	4
10	2489	1525.603699281	1
10	2492	1527.492370750361	1
10	2495	1530.661247088774	1
10	2498	1531.193735277903	1
10	2500	1533.366605601599	2
10	2504	1535.07156708796	1
10	2507	1538.473467367338	1
10	2513	1540.671181237117	1
10	2516	1541.614844724111	1
10	2519	1542.84965044786	1
10	2522	1545.090047528783	1
10	2525	1551.230675652183	1
10	2527	1551.441621056038	2
10	2532	1552.439141937432	3
10	2535	1553.887341522832	3
10	2539	1555.171010573441	2
10	2543	1555.761778863777	1
10	2546	1556.863384755796	1
10	2549	1557.335873076311	1
10	2552	1558.782790394914	1
10	2554	1559.443272687997	2
10	2558	1563.226724622398	1
10	2560	1564.136985383654	2
10	2562	1564.964335384315	3
10	2565	1565.803626584439	3
10	2567	1566.281914442244	4
10	2569	1566.285017305541	5
10	2574	1571.709924103413	3
10	2576	1572.216579671856	4
10	2579	1573.954307081695	4
10	2586	1576.082089607605	3
10	2591	1578.049950280411	1
10	2593	1579.107161475344	2
10	2598	1583.00649218455	2
10	2606	1585.489180673062	1
10	2609	1587.815056173801	1
10	2612	1594.158572191016	1
10	2618	1596.987112718189	1
10	2620	1597.242537790977	2
10	2624	1605.94118972848	1
10	2627	1608.14802124712	1
10	2630	1608.766780519311	1
10	2633	1609.600615117447	1
10	2636	1610.433307703205	1
10	2639	1613.906215627061	1
10	2645	1616.062628746373	1
10	2651	1622.004545079135	1
10	2654	1622.676980279235	1
10	2656	1623.151615716125	2
10	2658	1623.531103011862	3
10	2661	1625.66936038354	3
10	2664	1625.722085247685	3
10	2669	1627.965219848193	1
10	2674	1629.075978483452	1
10	2677	1630.115302782601	2
10	2680	1632.460817315598	2
10	2682	1633.498956004068	3
10	2687	1636.438751485287	1
10	2690	1636.783256396779	1
10	2692	1637.61236999865	2
10	2696	1641.141959162222	1
10	2702	1645.331407992729	1
10	2707	1646.453545270545	1
10	2709	1646.659051986204	2
10	2714	1648.263970047311	1
10	2717	1649.743111486511	1
10	2723	1653.436566479389	1
10	2726	1654.746650504048	1
10	2729	1656.068746302303	1
10	2734	1657.436126898889	2
10	2736	1657.65842864949	3
10	2739	1657.711591391656	3
10	2743	1658.257790633256	2
10	2749	1660.435222852628	1
10	2753	1663.600548652795	1
10	2756	1666.205411481506	1
10	2759	1667.554104537771	1
10	2761	1670.630685155258	2
10	2765	1674.048389294829	1
10	2767	1675.469221566981	2
10	2770	1677.580984329466	2
10	2774	1678.506618782646	1
10	2777	1682.095960675765	1
10	2779	1682.423761246778	2
10	2783	1686.028792045473	1
10	2788	1688.736223751872	2
10	2794	1692.652920022457	1
10	2798	1694.90508289611	1
10	2801	1696.987145285842	1
10	2803	1699.153561743769	2
10	2805	1699.218978672762	3
10	2808	1699.84962070329	3
10	2810	1701.505232312709	4
10	2813	1702.70443271176	4
10	2819	1704.487718280195	1
10	2822	1705.65321922415	1
10	2824	1705.837656608624	2
10	2826	1706.322443062419	3
10	2830	1707.131449491262	2
10	2833	1709.615389322919	2
10	2837	1711.721791911783	1
10	2839	1712.406617780782	2
10	2841	1713.179690389751	3
10	2844	1714.397533830019	3
10	2849	1715.88523697393	1
10	2852	1718.552213202875	1
10	2855	1719.43897871646	1
10	2857	1719.452390507414	2
10	2866	1726.456829885314	1
10	2870	1728.787336743461	1
10	2873	1731.924457316158	1
10	2876	1746.622569142793	1
10	2879	1748.026016528069	1
10	2882	1748.457145621218	1
10	2884	1748.521835523872	2
10	2888	1749.501876391177	1
10	2891	1753.205997955943	1
10	2894	1753.905596233054	1
10	2896	1755.11480243086	2
10	2900	1758.955797843194	1
10	2903	1763.726912778126	1
10	2906	1765.9288779082	1
10	2911	1767.695397311341	1
10	2913	1768.267130652523	2
10	2915	1769.076447353581	3
10	2917	1769.548524750347	4
10	2920	1773.317863492127	5
10	2922	1773.529587752723	6
10	2925	1774.710984365038	6
10	2928	1775.946500115468	6
10	2932	1778.962986813309	5
10	2935	1779.250068881671	5
10	2942	1782.040547546126	1
10	2945	1783.198013633	1
10	2948	1785.460156479195	1
10	2951	1785.760444859513	1
10	2954	1788.247608811965	1
10	2957	1789.791872031654	1
10	2960	1793.857876258827	1
10	2962	1796.503499903564	2
10	2966	1800.263251591649	1
10	2969	1801.830260223886	1
10	2972	1804.32941143183	1
10	2975	1806.048098623719	1
10	2978	1811.12963161696	1
10	2981	1814.093291950167	1
10	2983	1814.48078614734	2
10	2987	1824.77623874473	1
10	2993	1827.393185824601	1
10	2996	1832.90355644061	1
10	2999	1833.059728351066	1
10	3001	1833.338733314464	2
10	3005	1834.274338348595	1
10	3010	1838.884104288574	1
10	3014	1841.418173912445	1
10	3017	1842.380502176957	1
10	3020	1845.502600519713	1
10	3023	1847.848620295972	1
10	3025	1848.682341483976	2
10	3029	1850.808581360925	1
10	3032	1854.69684439547	1
10	3037	1856.918947782705	1
10	3039	1857.059409664065	2
10	3045	1859.272646060879	2
10	3050	1861.752570154146	1
10	3052	1862.09689479463	2
10	3054	1863.06512672276	3
10	3058	1864.507370028989	2
10	3062	1870.009324475052	1
10	3065	1871.985272116836	1
10	3068	1874.586999618999	1
10	3070	1875.710686994201	2
10	3074	1879.454246774005	1
10	3076	1880.377442437444	2
10	3080	1881.817660907463	1
10	3089	1888.202889512898	1
10	3092	1888.932463885585	1
10	3095	1893.62367147061	1
10	3098	1894.199616954556	1
10	3100	1894.412915795088	2
10	3104	1899.871648752887	1
10	3107	1903.389272703044	1
10	3110	1905.390163377631	1
10	3113	1908.998813279653	1
10	3116	1912.250735679303	1
10	3118	1912.686741206056	2
10	3121	1913.062966728667	2
10	3123	1913.564213996931	3
10	3128	1916.479270321968	1
10	3130	1917.52233378662	2
10	3134	1919.80291638133	1
10	3136	1919.9251370407	2
10	3138	1920.684134491871	3
10	3141	1921.245122179084	3
10	3145	1921.875995120665	2
10	3147	1921.982286267208	3
10	3152	1926.435036537202	1
10	3155	1926.729086731666	1
10	3158	1926.870279869248	1
10	3166	1930.864817628491	2
10	3170	1935.136456074967	1
10	3173	1936.955563209449	1
10	3176	1937.691050683891	1
10	3179	1939.91664899263	1
10	3182	1946.166756622289	1
10	3185	1947.155714037591	1
10	3188	1958.510600355432	1
10	3191	1959.469196388168	1
10	3194	1964.373851945319	1
10	3197	1966.802473657135	1
10	3199	1968.104871165911	2
10	3203	1968.786224434281	1
10	3205	1969.598252206753	2
10	3209	1974.991416521508	1
10	3212	1976.969532250026	1
10	3215	1979.244049048088	1
10	3217	1979.461016910578	2
10	3221	1984.006846256068	1
10	3226	1987.06902232492	2
10	3230	1991.90005690507	1
10	3233	1993.380038225207	1
10	3235	1995.040394228797	2
10	3237	1996.010334496155	3
10	3240	1996.425067835625	3
10	3242	1996.460239812705	4
10	3248	1998.909014781616	1
10	3251	2001.58739952114	1
10	3253	2004.037310103991	2
10	3257	2007.470037022981	1
10	3259	2008.422168032808	2
10	3262	2008.568111641999	2
10	3266	2009.438194370875	1
10	3269	2010.633654753467	1
10	3271	2011.014513141113	2
10	3275	2014.167469394343	1
10	3277	2014.213063949784	2
10	3281	2017.380549031477	1
10	3284	2019.147518624591	1
10	3287	2019.96010967766	1
10	3290	2023.594083124121	1
10	3293	2029.941767431306	1
10	3295	2030.168106807141	2
10	3299	2032.207141971299	1
10	3302	2033.077844518979	1
10	3304	2033.272340369373	2
10	3308	2034.425037962519	1
10	3310	2034.516051730718	2
10	3315	2035.749112289858	3
10	3321	2038.470480432991	2
10	3324	2039.650722457119	3
10	3326	2039.703486352335	4
10	3332	2041.711103699447	1
10	3338	2044.472446249416	1
10	3341	2046.88722311746	1
10	3344	2048.455314398705	1
10	3346	2050.042117422455	2
10	3348	2051.976385785069	3
10	3350	2053.252502081739	4
10	3354	2054.20420388143	3
10	3356	2054.317420584099	4
10	3359	2056.947497358744	4
10	3362	2057.638773982938	4
10	3366	2059.185773440168	3
10	3371	2061.74905696024	1
10	3374	2064.92773417976	1
10	3377	2065.668368167193	1
10	3380	2070.603976336636	1
10	3382	2070.661243898693	2
10	3386	2075.539355485629	1
10	3389	2076.870134280283	1
10	3391	2078.860531774185	2
10	3395	2080.548356183186	1
10	3398	2081.687817803551	1
10	3401	2084.508270722524	1
10	3407	2089.557414097885	1
10	3410	2090.414259355982	1
10	3413	2095.152445006799	1
10	3415	2096.033415935128	2
10	3421	2098.169740126426	2
10	3424	2099.341631678261	2
10	3430	2100.911933216393	2
10	3434	2102.373545274249	1
10	3437	2109.125011678636	1
10	3440	2113.416742819748	1
10	3443	2114.78218974912	1
10	3449	2118.828265687679	1
10	3452	2119.599268005119	1
10	3455	2120.909145951618	1
10	3457	2121.109329309486	2
10	3460	2122.107554710868	2
10	3464	2124.10933357499	1
10	3466	2124.676820982624	2
10	3470	2129.015156436983	1
10	3473	2136.682852954144	1
10	3475	2136.799546313373	2
10	3478	2137.26871377533	2
10	3482	2138.93364495229	1
10	3488	2149.904827656478	1
10	3490	2150.595955453488	2
10	3492	2152.247610477143	3
10	3497	2161.747002096672	1
10	3502	2166.821804417746	1
10	3505	2168.30716342395	2
10	3508	2170.398786960666	2
10	3510	2171.322229738961	3
10	3515	2172.330946549592	1
10	3518	2177.412787777905	1
10	3521	2179.376268662931	1
10	3524	2181.387392416555	1
10	3527	2182.500441319872	1
10	3529	2182.561513790227	2
10	3536	2190.021452310515	1
10	3538	2190.341361400507	2
10	3542	2192.069497188791	1
10	3544	2192.093389047772	2
10	3547	2193.925946958977	2
10	3551	2194.621173291304	1
10	3554	2197.440316927451	1
10	3556	2197.594866893728	2
10	3560	2199.813881163936	1
10	3563	2202.049319530153	1
10	3565	2204.480825812938	2
10	3567	2204.569145380751	3
10	3570	2205.783489889479	3
10	3573	2206.876430790687	3
10	3577	2207.650026604472	2
10	3581	2209.377091734288	1
10	3583	2209.902020444451	2
10	3586	2210.111616312483	2
10	3590	2212.25462270752	1
10	3593	2215.684031634949	1
10	3596	2217.345633455481	1
10	3599	2219.886570290217	1
10	3605	2223.709688663274	1
10	3607	2224.896764713863	2
10	3611	2228.371762549476	1
10	3614	2231.372653083164	1
10	3617	2232.183442274408	1
10	3620	2235.170253435926	1
10	3623	2235.970674132489	1
10	3625	2237.043957437073	2
10	3628	2237.815290245982	2
10	3631	2238.22152047156	2
10	3633	2238.86021055198	3
10	3635	2239.302418260399	4
10	3637	2239.988522753472	5
10	3644	2243.288507251831	1
10	3647	2244.303557851868	1
10	3650	2246.379025598105	1
10	3653	2248.763174632687	1
10	3656	2249.495850465918	1
10	3659	2252.159819847877	1
10	3662	2253.701632927787	1
10	3665	2254.455878726848	1
10	3668	2256.914429724437	1
10	3671	2258.301195763856	1
10	3673	2259.843024609693	2
10	3676	2261.53021526408	2
10	3680	2262.947756544101	1
10	3686	2269.51782690983	1
10	3692	2276.115013355075	1
10	3695	2277.709250285395	1
10	3698	2277.831970536995	1
10	3700	2279.17944661065	2
10	3702	2279.799528089141	3
10	3705	2280.952650869549	3
10	3710	2284.043860679607	1
10	3713	2292.845588514603	1
10	3719	2295.160305139413	1
10	3721	2296.293043999487	2
10	3725	2300.098939747078	1
10	3728	2304.292527365709	1
10	3731	2309.470852405776	1
10	3734	2313.304269520153	1
10	3737	2315.987622015439	1
10	3739	2316.531040513283	2
10	3741	2316.574760049099	3
10	3745	2316.869222466947	2
10	3749	2321.884366079928	1
10	3752	2322.507239156377	1
10	3755	2325.906535908311	1
10	3757	2326.516784677403	2
10	3759	2326.566266100554	3
10	3762	2327.788189287175	3
10	3765	2328.309920200117	3
10	3770	2334.716987046136	1
10	3773	2336.175269897504	1
10	3782	2340.291792830212	1
10	3785	2341.882604453159	1
10	3788	2342.745155006895	1
10	3791	2346.895993158876	1
10	3793	2346.905767939046	2
10	3797	2350.668816655661	1
10	3803	2355.229899050841	1
10	3806	2356.339348206301	1
10	3809	2357.630752393846	1
10	3811	2358.624118836588	2
10	3815	2362.904148196181	1
10	3817	2363.256294530912	2
10	3821	2367.32053338147	1
10	3823	2368.78803521704	2
10	3825	2369.395777932714	3
10	3832	2372.596574717986	1
10	3834	2373.807368873072	2
10	3839	2377.636328900259	1
10	3842	2378.309346509086	1
10	3845	2379.991966906087	1
10	3847	2380.124326019394	2
10	3849	2380.450686216951	3
10	3854	2386.925166809857	1
10	3857	2390.107247558994	1
10	3860	2390.559953425502	1
10	3863	2391.602517394595	1
10	3866	2395.223945254163	1
10	3869	2397.887074726007	1
10	3872	2400.774862857139	1
10	3875	2403.381760527059	1
10	3878	2405.502317713961	1
10	3880	2405.934735852428	2
10	3884	2408.369560199954	1
10	3886	2408.525352088413	2
10	3890	2411.341289766503	1
10	3893	2412.785598869859	1
10	3896	2413.404775900232	1
10	3902	2416.152433723827	1
10	3905	2419.256425453677	1
10	3908	2419.34548924526	1
10	3911	2421.133322782228	1
10	3914	2421.946225733207	1
10	3917	2435.08039702827	1
10	3919	2435.562725697177	2
10	3923	2436.233248249857	1
10	3932	2442.421677383602	1
10	3935	2443.330026438954	1
10	3938	2444.480956224134	1
10	3940	2444.830136096194	2
10	3944	2447.990557761056	1
10	3947	2450.193351293334	1
10	3953	2454.682295712882	1
10	3958	2456.627707147382	1
10	3960	2456.874915293722	2
10	3962	2457.096350518669	3
10	3968	2469.458357936726	1
10	3971	2471.014040609611	1
10	3974	2472.587475849388	1
10	3977	2474.888024685574	1
10	3982	2478.29008674992	1
10	3984	2479.41930746224	2
10	3986	2479.779463786453	3
10	3992	2482.499701418792	1
10	3995	2485.166274891695	1
10	3997	2485.187912737467	2
10	4001	2487.186754789419	1
10	4006	2492.137787788732	1
10	4008	2492.400700365836	2
10	4012	2493.968496133679	2
10	4014	2494.026032906627	3
10	4016	2494.707741936048	4
10	4022	2497.010811157806	1
10	4024	2498.012266448097	2
11	4027	2500	0.488
12	4027	2500	0.0488

