file 219641 1677857792                                          
version 2
run factors_calibration_bosses-52-20230303-16:36:32-7903
attr configname factors_calibration_bosses
attr datetime 20230303-16:36:32
attr experiment factors_calibration_bosses
attr inifile omnetpp.ini
attr iterationvars $0=3
attr iterationvarsf 3-
attr measurement $0=3
attr network Network
attr processid 7903
attr repetition 22
attr replication #22
attr resultdir results
attr runnumber 52
attr seedset 22
param *.minion.arrival_mean 2
param *.minion.service_mean 1
param *.boss.arrival_mean 20
param *.boss.service_mean 3
param *.player.recover_rate_x 100
param **.minion.arrival_distribution 0
param **.minion.service_distribution 0
param **.boss.arrival_distribution 0
param **.boss.service_distribution 0

vector 0 Network.player minion_jobs_number_stat:vector ETV
attr source signal_minion_jobs_number
vector 1 Network.player minion_jobs_queue_number_stat:vector ETV
attr source signal_minion_jobs_queue_number
vector 2 Network.player minion_waiting_time_stat:vector ETV
attr source signal_minion_waiting_time
vector 3 Network.player boss_jobs_number_stat:vector ETV
attr source signal_boss_jobs_number
vector 4 Network.player boss_jobs_queue_number_stat:vector ETV
attr source signal_boss_jobs_queue_number
vector 5 Network.player minion_recovered_stat:vector ETV
attr source signal_minion_recovered
vector 6 Network.player boss_waiting_time_stat:vector ETV
attr source signal_boss_waiting_time
vector 7 Network.player boss_defeated_stat:vector ETV
attr source signal_boss_defeated
vector 8 Network.player boss_response_time_stat:vector ETV
attr source signal_boss_response_time
vector 9 Network.player minion_defeated_stat:vector ETV
attr source signal_minion_defeated
vector 10 Network.player minion_response_time_stat:vector ETV
attr source signal_minion_response_time
vector 11 Network.player minion_throughput:vector ETV
attr source signal_minion_throughput
vector 12 Network.player boss_throughput:vector ETV
attr source signal_boss_throughput
0	1967 28505 581 4094 352.678775735249 2496.830122076355 1076 1 13 3016 14448
1	30472 56969 581 4095 352.678775735249 2499.622369020075 2152 0 12 3880 18984
2	87441 39664 581 4094 352.678775735249 2496.830122076355 1132 0 20.62610750613 2742.0073167366 21579.414523026
3	127105 2525 583 4076 352.732720250375 2486.924382343612 96 1 3 106 128
4	129630 5055 583 4079 352.732720250375 2488.141405743233 192 0 2 20 24
5	134685 1525 583 3998 352.732720250375 2450.298982238692 56 7 62 1932 81284
6	136210 2639 583 4076 352.732720250375 2486.924382343612 96 0 4.169470920299 18.309352198199 60.478613527923
7	138849 2641 592 4079 355.694482442589 2488.141405743233 96 19 114 6384 498256
8	141490 3769 592 4079 355.694482442589 2488.141405743233 96 0.024581251766 14.594287345677 274.6184734114 1541.7491103788
9	145259 30863 596 4095 359.059097141963 2499.622369020075 1076 176 1251 767726 651586326
10	176122 43478 596 4095 359.059097141963 2499.622369020075 1076 9.5952715e-05 21.587539803104 3689.927545757 27883.377150257
11	219600 20 4096 4096 2500 2500 1 0.5004 0.5004 0.5004 0.25040016
12	219620 20 4096 4096 2500 2500 1 0.0456 0.0456 0.0456 0.00207936

