version 2
run factors_calibration_bosses-230-20230303-16:36:50-8802
attr configname factors_calibration_bosses
attr datetime 20230303-16:36:50
attr experiment factors_calibration_bosses
attr inifile omnetpp.ini
attr iterationvars $0=20
attr iterationvarsf 20-
attr measurement $0=20
attr network Network
attr processid 8802
attr repetition 20
attr replication #20
attr resultdir results
attr runnumber 230
attr seedset 20
param *.minion.arrival_mean 2
param *.minion.service_mean 1
param *.boss.arrival_mean 20
param *.boss.service_mean 20
param *.player.recover_rate_x 100
param **.minion.arrival_distribution 0
param **.minion.service_distribution 0
param **.boss.arrival_distribution 0
param **.boss.service_distribution 0

vector 0 Network.player minion_jobs_number_stat:vector ETV
attr source signal_minion_jobs_number
vector 1 Network.player minion_jobs_queue_number_stat:vector ETV
attr source signal_minion_jobs_queue_number
vector 2 Network.player minion_defeated_stat:vector ETV
attr source signal_minion_defeated
vector 3 Network.player minion_response_time_stat:vector ETV
attr source signal_minion_response_time
vector 4 Network.player minion_waiting_time_stat:vector ETV
attr source signal_minion_waiting_time
vector 5 Network.player boss_jobs_number_stat:vector ETV
attr source signal_boss_jobs_number
vector 6 Network.player boss_jobs_queue_number_stat:vector ETV
attr source signal_boss_jobs_queue_number
vector 7 Network.player minion_recovered_stat:vector ETV
attr source signal_minion_recovered
vector 8 Network.player boss_waiting_time_stat:vector ETV
attr source signal_boss_waiting_time
vector 9 Network.player boss_defeated_stat:vector ETV
attr source signal_boss_defeated
vector 10 Network.player boss_response_time_stat:vector ETV
attr source signal_boss_response_time
vector 11 Network.player minion_throughput:vector ETV
attr source signal_minion_throughput
vector 12 Network.player boss_throughput:vector ETV
attr source signal_boss_throughput
0	458	350.114345954886	64
0	460	350.549975900492	65
0	462	350.899433721017	66
0	464	351.626207472882	67
0	466	352.65166488692	68
0	469	354.466025592611	68
0	476	358.943918537656	64
0	484	363.079907595411	59
0	487	363.839653139161	59
0	498	370.630341190005	51
0	502	371.523281820906	50
0	504	372.036871763645	51
0	507	373.286284132562	51
0	515	376.336307644944	46
0	518	377.162125460526	46
0	520	377.828342516418	47
0	528	380.737608762467	42
0	534	383.539151478835	39
0	537	384.597643506745	39
0	540	385.515804769862	39
0	543	387.793791547397	39
0	545	387.821953400228	40
0	547	389.379853469553	41
0	553	392.835717535049	38
0	557	398.272370122322	37
0	559	398.553114442226	38
0	561	399.357645999001	39
0	563	400.409511582907	40
0	573	406.661720353876	33
0	576	407.012319754987	33
0	583	412.330104523347	29
0	588	415.176337667485	27
0	590	416.250186839365	28
0	596	418.44378306365	25
0	598	418.70932640241	26
0	602	422.046510022977	25
0	611	425.005008488502	19
0	617	427.15610103543	16
0	621	428.686437830785	15
0	624	429.473777409455	15
0	631	431.739581444764	15
0	633	433.958719302376	16
0	635	435.593295271204	17
0	637	438.447400659297	18
0	639	438.505305757073	19
0	641	438.778438670068	20
0	644	439.772653832323	21
0	646	439.960346291652	22
0	648	441.564616237292	23
0	650	442.05210292711	24
0	652	442.294747539625	25
0	656	445.853961631764	25
0	660	448.292659143167	24
0	662	448.690083148288	25
0	665	450.282108647456	25
0	668	450.460773653561	25
0	672	452.242558016468	24
0	674	452.639199508373	25
0	676	452.967747744397	26
0	678	453.817818717943	27
0	680	454.068145512012	28
0	684	455.093644392517	27
0	688	457.55764385612	26
0	691	458.776938943584	26
0	694	461.424836668097	26
0	698	463.586857785406	25
0	700	463.815963480455	26
0	707	468.011244511344	24
0	709	468.483180281947	25
0	711	468.510191598005	26
0	713	469.671652032542	27
0	715	472.467678623866	28
0	717	472.784659822929	29
0	719	475.330568253973	30
0	723	480.430188403063	31
0	725	480.930488568374	32
0	729	486.874396507163	33
0	731	489.680159310052	34
0	733	490.247108431444	35
0	735	490.765623027922	36
0	737	490.921414792045	37
0	739	491.206401964836	38
0	741	492.011585021463	39
0	743	492.314779303607	40
0	745	493.771748060312	41
0	748	494.015217246361	42
0	750	501.716130277493	43
0	752	502.71696435715	44
0	754	507.530555426944	45
0	756	509.655288919402	46
0	763	516.39118557003	47
0	765	516.839715213557	48
0	767	517.77550777746	49
0	769	518.512794333994	50
0	773	519.276254767417	51
0	775	519.952565213864	52
0	777	521.000457371777	53
0	779	521.954551087191	54
0	781	523.178811713222	55
0	785	528.81205726796	55
0	788	529.286981619205	55
0	790	529.549291941676	56
0	794	530.638016786312	55
0	804	538.482842707936	51
0	818	547.178928317245	40
0	821	548.733524682854	40
0	824	549.068661864319	40
0	826	549.231929400092	41
0	832	553.294015458879	38
0	836	554.605854952902	39
0	838	557.194232830286	40
0	840	558.884840786187	41
0	842	564.51258706422	42
0	844	566.415122661243	43
0	846	567.770904527871	44
0	848	569.691712665721	45
0	853	571.548096124039	46
0	855	572.668804184654	47
0	857	574.396268174088	48
0	859	576.265489326002	49
0	861	578.040583821386	50
0	863	579.871234182523	51
0	865	583.12090100008	52
0	869	587.045790295191	52
0	881	593.226080109546	46
0	889	596.781948355796	41
0	892	597.26732637985	41
0	897	599.945547172708	39
0	902	602.203984983999	37
0	904	602.399563291095	38
0	909	603.60727685176	36
0	911	605.12569644671	37
0	913	605.466920005807	38
0	916	606.81354707622	38
0	921	607.416575171157	38
0	923	609.840731474337	39
0	925	610.859101144189	40
0	927	611.369137611757	41
0	929	617.562776675681	42
0	931	618.769337947802	43
0	933	620.718035131038	44
0	935	621.829625872356	45
0	937	622.217239726229	46
0	941	629.643972522323	47
0	943	630.149727782335	48
0	945	631.009769256168	49
0	947	635.976618438773	50
0	949	638.968184492199	51
0	952	640.516370573522	52
0	954	641.069912800549	53
0	956	641.54644091009	54
0	958	643.981146721649	55
0	960	644.115825591014	56
0	962	644.465907277349	57
0	964	647.520704008698	58
0	973	653.530855961908	53
0	978	658.109235726838	51
0	980	660.693820731376	52
0	983	661.50700729387	52
0	986	661.873867687979	52
0	990	664.20031260378	51
0	996	665.948732693313	48
0	998	666.078736495538	49
0	1000	666.46805090101	50
0	1003	667.386504659289	50
0	1006	667.996734277791	50
0	1008	668.5108796826	51
0	1010	668.763026276693	52
0	1012	668.975042923258	53
0	1023	677.795183770169	47
0	1027	683.917215583691	47
0	1032	685.89072111622	45
0	1034	686.138788016448	46
0	1038	686.376848784852	45
0	1044	688.011429931945	42
0	1047	690.121331324903	42
0	1051	691.462680991986	41
0	1053	692.608564019734	42
0	1055	693.32804760578	43
0	1057	693.753702052878	44
0	1059	694.873967676181	45
0	1061	695.219388481503	46
0	1064	696.7234403404	46
0	1066	696.725091826252	47
0	1068	696.895628812802	48
0	1070	696.975270312094	49
0	1073	698.316820350825	49
0	1077	699.672511719965	48
0	1083	701.295311429783	45
0	1085	701.645325300869	46
0	1087	701.956755258061	47
0	1090	703.649773176772	47
0	1093	705.105758950785	47
0	1096	705.342402646528	47
0	1098	705.68035356448	48
0	1101	707.920870110858	48
0	1111	714.293120842187	41
0	1114	714.690882029252	41
0	1118	715.959531331558	40
0	1122	717.235989040317	39
0	1126	718.379887934275	38
0	1135	724.331553120244	32
0	1137	724.398563706206	33
0	1143	726.244532535225	30
0	1148	728.765439938125	28
0	1153	730.016198608076	26
0	1155	730.287496088404	27
0	1158	732.092759500267	27
0	1160	732.704122036351	28
0	1162	732.993188548401	29
0	1164	734.438531734723	30
0	1168	736.51587915317	29
0	1175	742.004182598707	25
0	1178	743.054230033811	25
0	1181	744.426417626485	25
0	1183	746.074634584557	26
0	1185	746.331636263245	27
0	1187	747.759774489744	28
0	1189	749.141252221576	29
0	1194	750.208679767284	27
0	1196	750.643701365853	28
0	1201	754.313539426121	26
0	1205	755.139920154413	25
0	1212	761.218189604885	21
0	1215	761.330887145833	21
0	1224	765.010872846737	17
0	1226	765.889722226499	18
0	1228	769.492366584186	19
0	1230	774.312154319452	20
0	1234	777.187916092429	21
0	1236	781.433533200657	22
0	1240	785.774610792791	23
0	1242	787.605065865188	24
0	1244	787.632693773257	25
0	1248	791.812542128832	26
0	1250	792.825630074558	27
0	1252	793.106118645999	28
0	1254	795.983979322456	29
0	1256	797.31547067304	30
0	1258	798.947913671804	31
0	1261	800.734366954587	32
0	1263	806.029631059075	33
0	1265	807.847741533025	34
0	1267	808.260311205554	35
0	1270	813.282516964542	36
0	1272	814.80326033177	37
0	1274	818.380597665156	38
0	1276	820.204965312734	39
0	1278	820.677722622633	40
0	1280	823.250885573292	41
0	1282	823.636215506689	42
0	1284	823.680603697767	43
0	1287	824.140443518389	44
0	1289	824.5663821598	45
0	1298	831.965951881763	43
0	1300	833.975527892492	44
0	1302	834.073187536907	45
0	1307	837.418737714379	43
0	1309	837.747149868744	44
0	1313	838.959011875208	43
0	1317	841.166020368849	42
0	1320	841.685744191678	42
0	1322	841.799011240053	43
0	1326	843.124210790441	42
0	1328	843.46544411402	43
0	1331	843.715834367818	43
0	1334	845.103795560344	43
0	1338	848.061481364927	42
0	1342	848.917083284492	43
0	1344	853.693651716453	44
0	1346	853.911773855917	45
0	1348	857.385069520553	46
0	1350	857.900159935581	47
0	1355	859.230698072923	46
0	1365	865.144344761167	39
0	1368	866.484172554759	39
0	1370	868.062799063376	40
0	1373	868.461943861207	40
0	1379	871.159455576234	39
0	1381	871.273454975753	40
0	1383	872.034504904911	41
0	1385	872.04771715127	42
0	1387	875.058228708188	43
0	1389	878.126773031486	44
0	1393	880.002037860351	45
0	1396	883.70005389078	46
0	1398	889.062400308099	47
0	1400	889.189540069077	48
0	1402	889.612380146626	49
0	1410	898.607801413106	50
0	1412	901.554409570433	51
0	1414	902.361903903002	52
0	1423	907.119633944209	53
0	1425	907.667524238388	54
0	1427	910.654370556012	55
0	1429	914.462906312602	56
0	1431	919.744930545071	57
0	1433	920.095310223823	58
0	1435	925.901466869047	59
0	1437	931.507376905208	60
0	1439	932.216983490642	61
0	1441	933.360039476501	62
0	1443	934.260872373583	63
0	1445	934.569648124422	64
0	1447	934.952087838802	65
0	1449	935.74034302397	66
0	1452	942.690812453095	67
0	1455	943.45587894108	68
0	1457	944.586795422435	69
0	1459	945.542918757345	70
0	1463	951.221910696391	71
0	1466	957.478605080943	72
0	1468	958.774822653768	73
0	1470	959.302037136426	74
0	1472	959.552667700896	75
0	1474	962.020802260956	76
0	1477	964.793223245996	77
0	1479	967.111036862389	78
0	1481	967.152372507332	79
0	1483	967.723845333867	80
0	1485	968.400315165639	81
0	1487	971.673625276461	82
0	1489	971.821424855389	83
0	1491	974.736374890298	84
0	1493	976.527026050755	85
0	1495	978.849575332548	86
0	1497	978.904229455845	87
0	1499	980.519529589722	88
0	1501	980.9335921944	89
0	1503	983.033967220205	90
0	1505	986.349449136726	91
0	1509	988.432299146613	92
0	1511	992.082964898419	93
0	1513	992.736902315575	94
0	1515	993.572343230744	95
0	1517	997.059792217434	96
0	1519	998.524488732491	97
0	1521	1002.948315165793	98
0	1525	1007.309897750726	99
0	1527	1007.846666047912	100
0	1529	1008.538137460777	101
0	1531	1010.316844427901	102
0	1533	1010.32339610515	103
0	1536	1012.661253765336	104
0	1538	1015.847830315247	105
0	1540	1020.002065119623	106
0	1542	1020.529638096667	107
0	1548	1030.630371999522	108
0	1552	1032.131439791749	109
0	1554	1032.535908282347	110
0	1556	1033.550338911019	111
0	1559	1038.133311890602	112
0	1568	1047.34353785101	113
0	1570	1048.452961328502	114
0	1572	1048.851188658538	115
0	1574	1048.965983194782	116
0	1577	1050.296145731878	117
0	1579	1052.889735558881	118
0	1584	1059.556932580499	119
0	1586	1060.473779027897	120
0	1588	1061.366321453799	121
0	1590	1065.666245940433	122
0	1592	1066.322105935879	123
0	1594	1071.917559265743	124
0	1596	1074.285323199861	125
0	1599	1080.756375846712	126
0	1601	1080.803294716724	127
0	1603	1083.920925437386	128
0	1605	1085.632065948788	129
0	1607	1085.881024951777	130
0	1609	1086.526930345249	131
0	1611	1088.677667304748	132
0	1613	1091.090605399845	133
0	1615	1091.572913161553	134
0	1617	1092.470615700581	135
0	1619	1095.209263596196	136
0	1621	1098.909158835205	137
0	1623	1100.130459329658	138
0	1626	1101.199825187616	139
0	1628	1104.758150167743	140
0	1630	1105.003012560043	141
0	1632	1107.394887791978	142
0	1634	1111.081306110806	143
0	1636	1116.157834466965	144
0	1638	1116.872288774698	145
0	1640	1119.514895203193	146
0	1642	1122.145516414426	147
0	1644	1123.23354262624	148
0	1646	1125.169911513354	149
0	1652	1126.779374563809	150
0	1654	1129.209711027372	151
0	1658	1131.038960465685	152
0	1660	1132.557374560692	153
0	1662	1134.187450884406	154
0	1665	1139.438765556535	155
0	1671	1143.290022315633	156
0	1673	1144.501115725244	157
0	1675	1145.921560863155	158
0	1677	1145.938670358564	159
0	1679	1147.238809729512	160
0	1681	1147.4729911281	161
0	1687	1153.077454481509	162
0	1689	1154.077344331839	163
0	1691	1155.040799589928	164
0	1693	1156.148315326523	165
0	1695	1157.433474976802	166
0	1697	1158.522220316812	167
0	1700	1160.106772972285	168
0	1702	1161.375673712814	169
0	1704	1165.765672842169	170
0	1706	1166.205534274449	171
0	1708	1167.338062236198	172
0	1710	1168.099143660134	173
0	1712	1168.168793330247	174
0	1714	1169.928995576489	175
0	1716	1171.720794279516	176
0	1721	1175.452686342609	177
0	1723	1179.13856785774	178
0	1725	1180.480870072571	179
0	1727	1183.491750637775	180
0	1729	1185.497684128544	181
0	1731	1185.662505075319	182
0	1733	1187.418872684063	183
0	1735	1187.584710319416	184
0	1737	1190.460858182918	185
0	1742	1195.173555103475	186
0	1744	1195.598413961956	187
0	1746	1196.454902700783	188
0	1749	1200.219289344093	189
0	1751	1203.159888181434	190
0	1755	1203.847782390463	191
0	1757	1203.956179320445	192
0	1759	1204.297618020684	193
0	1761	1205.172092061761	194
0	1763	1207.694016105792	195
0	1765	1208.270653916928	196
0	1767	1209.470503997461	197
0	1769	1210.23294700089	198
0	1771	1210.870568714365	199
0	1773	1212.298264149774	200
0	1779	1215.056353089888	201
0	1781	1218.453653235772	202
0	1783	1225.935892611531	203
0	1786	1230.571110173611	204
0	1788	1231.081346303788	205
0	1790	1232.216726197292	206
0	1792	1232.986373252132	207
0	1794	1234.754571793928	208
0	1796	1236.248749942962	209
0	1798	1239.389788719175	210
0	1800	1239.393768325231	211
0	1802	1241.136745284186	212
0	1806	1245.328894206735	213
0	1808	1248.453099454901	214
0	1810	1248.988363540226	215
0	1812	1250.012186345676	216
0	1814	1250.189861127574	217
0	1816	1252.294023222415	218
0	1820	1253.419419661115	219
0	1822	1253.67331081511	220
0	1824	1254.689790634648	221
0	1826	1256.781952421222	222
0	1828	1258.164602373172	223
0	1830	1259.674102022718	224
0	1834	1263.258212038806	225
0	1836	1264.993817940483	226
0	1838	1265.449121825671	227
0	1840	1268.994388525007	228
0	1842	1271.727814064513	229
0	1844	1274.342152863859	230
0	1846	1274.420193770631	231
0	1848	1274.507154623989	232
0	1850	1276.472330868062	233
0	1852	1279.905542477467	234
0	1854	1280.686736789309	235
0	1856	1282.808909638685	236
0	1858	1283.667331481048	237
0	1860	1286.551905585352	238
0	1862	1286.84532385459	239
0	1865	1292.112416648227	240
0	1869	1295.340746536063	241
0	1871	1295.932392471978	242
0	1873	1296.50933879653	243
0	1876	1300.094137369838	244
0	1878	1300.873465038817	245
0	1880	1303.373808195003	246
0	1882	1305.049874274615	247
0	1885	1306.058907701242	248
0	1887	1312.707129259891	249
0	1890	1316.864786792839	250
0	1892	1320.418031087507	251
0	1894	1323.07437156518	252
0	1896	1326.133084642322	253
0	1900	1330.578944109867	254
0	1902	1331.185021759995	255
0	1904	1331.598965109403	256
0	1906	1333.422500216951	257
0	1908	1335.22191826534	258
0	1911	1339.831264666098	259
0	1913	1340.390780367065	260
0	1915	1341.679701185789	261
0	1917	1343.005454075102	262
0	1919	1343.229336299774	263
0	1922	1348.327509648797	264
0	1924	1348.938839348954	265
0	1926	1349.052188524187	266
0	1928	1350.002734630147	267
0	1930	1352.95905834314	268
0	1932	1353.8179415929	269
0	1934	1355.850720216032	270
0	1942	1360.458270180457	266
0	1946	1361.273249114121	265
0	1953	1364.234504236699	261
0	1961	1370.116443213195	256
0	1963	1371.52899920864	257
0	1965	1371.534491534158	258
0	1970	1373.091865700613	258
0	1972	1373.949873663053	259
0	1974	1375.75751660706	260
0	1976	1377.356876558237	261
0	1978	1377.791445167085	262
0	1980	1381.812428971341	263
0	1984	1382.958669308845	264
0	1986	1384.575130303071	265
0	1988	1384.818701649873	266
0	1990	1388.276420587099	267
0	1994	1390.847566638563	268
0	1996	1391.268510076198	269
0	1998	1391.47441137179	270
0	2004	1396.778769500508	271
0	2006	1397.494648084326	272
0	2008	1397.498375044314	273
0	2010	1398.71285731209	274
0	2012	1399.50317630287	275
0	2014	1399.698299846551	276
0	2016	1401.580812866988	277
0	2018	1404.379353436096	278
0	2020	1405.977026042735	279
0	2022	1406.490368438304	280
0	2024	1410.158192056012	281
0	2026	1415.103614706921	282
0	2028	1415.394341462439	283
0	2030	1417.395319172212	284
0	2032	1418.627844861155	285
0	2034	1422.827936859465	286
0	2036	1423.80481580921	287
0	2038	1425.775063048871	288
0	2040	1426.400522028149	289
0	2042	1427.959261222197	290
0	2044	1428.237513554132	291
0	2046	1428.997291424554	292
0	2048	1430.56154586651	293
0	2050	1431.791370692697	294
0	2052	1432.364501245154	295
0	2056	1433.056673726956	296
0	2062	1439.542781823638	297
0	2064	1440.526275851162	298
0	2069	1447.684034945384	299
0	2071	1448.165859224861	300
0	2073	1451.26987451218	301
0	2075	1453.365383292978	302
0	2077	1456.158585034071	303
0	2079	1456.45046382558	304
0	2081	1462.31827008628	305
0	2083	1462.419214992148	306
0	2085	1463.808413882489	307
0	2087	1466.756704257698	308
0	2089	1468.706455363855	309
0	2091	1469.697425097923	310
0	2093	1470.671031782863	311
0	2097	1470.94118509425	312
0	2099	1472.612993541756	313
0	2101	1473.450740866124	314
0	2103	1474.882357526786	315
0	2105	1475.046987140616	316
0	2107	1476.905700738086	317
0	2109	1477.103543674936	318
0	2111	1477.892938308454	319
0	2113	1479.646657805214	320
0	2115	1482.344930090856	321
0	2117	1482.747930683245	322
0	2119	1482.782155225829	323
0	2121	1483.184417548009	324
0	2123	1486.142723628993	325
0	2125	1487.243609262194	326
0	2127	1488.24134876254	327
0	2129	1488.74411275498	328
0	2131	1489.25046001659	329
0	2133	1489.752839118277	330
0	2135	1489.864647995392	331
0	2137	1492.244365633252	332
0	2139	1492.486586168886	333
0	2141	1493.284194910397	334
0	2143	1493.881353441835	335
0	2145	1497.896253454439	336
0	2147	1498.306185036506	337
0	2149	1498.801766946637	338
0	2151	1501.6120119012	339
0	2154	1503.607050115098	340
0	2157	1505.836577177949	341
0	2160	1508.2640641251	342
0	2162	1509.975833956702	343
0	2164	1512.085829940584	344
0	2166	1512.44569567584	345
0	2168	1512.669501794383	346
0	2170	1513.363618735028	347
0	2172	1514.634588698105	348
0	2175	1519.194291564833	349
0	2177	1520.049873884956	350
0	2179	1520.679329981912	351
0	2181	1520.727000715399	352
0	2183	1523.116264179861	353
0	2185	1524.70932966556	354
0	2187	1525.895438246071	355
0	2189	1526.042833864235	356
0	2193	1529.585376424713	357
0	2195	1532.403945873472	358
0	2198	1533.636604377575	359
0	2200	1534.791388458157	360
0	2202	1535.060951269148	361
0	2204	1538.084997180854	362
0	2206	1541.297562792853	363
0	2210	1543.118222827375	364
0	2212	1543.547308075887	365
0	2214	1543.830622909133	366
0	2216	1545.156509146558	367
0	2218	1550.183738721464	368
0	2220	1556.216264465597	369
0	2222	1556.670333149843	370
0	2224	1557.032045700026	371
0	2226	1558.588708311076	372
0	2228	1559.250600008565	373
0	2230	1563.937956633301	374
0	2232	1564.024943000036	375
0	2234	1566.597673361496	376
0	2236	1574.452353699369	377
0	2238	1574.510212128625	378
0	2240	1575.223391961702	379
0	2242	1575.30458860804	380
0	2244	1576.419412575943	381
0	2246	1578.260526343212	382
0	2248	1578.998468266163	383
0	2250	1580.312420095478	384
0	2252	1581.99811461902	385
0	2254	1585.197260848078	386
0	2256	1585.666684709244	387
0	2258	1589.110246940739	388
0	2260	1589.896679619321	389
0	2262	1590.978037467298	390
0	2264	1591.294257639751	391
0	2266	1591.560842900328	392
0	2268	1597.544036906989	393
0	2270	1609.607896978516	394
0	2272	1609.713641164872	395
0	2275	1615.882547268257	396
0	2277	1616.382188647343	397
0	2279	1618.059883883054	398
0	2281	1618.211737360709	399
0	2283	1623.335221006784	400
0	2285	1627.139313587098	401
0	2287	1627.194034199063	402
0	2290	1629.949954566335	403
0	2294	1632.501976780952	404
0	2296	1632.955952760892	405
0	2298	1634.970101561144	406
0	2300	1637.364510800185	407
0	2302	1638.509702846288	408
0	2304	1639.014950977312	409
0	2306	1640.413984064595	410
0	2308	1643.217069216035	411
0	2310	1648.278416497043	412
0	2312	1648.491071862436	413
0	2314	1649.881786083118	414
0	2316	1653.358453247724	415
0	2318	1653.937802512837	416
0	2320	1654.650013730847	417
0	2324	1656.397912283482	418
0	2326	1656.939713279971	419
0	2330	1657.444686841537	420
0	2332	1659.608776113447	421
0	2336	1660.21629329052	422
0	2338	1664.326924313352	423
0	2342	1666.871100331792	424
0	2344	1667.094451459834	425
0	2346	1667.188260374575	426
0	2348	1667.448779190795	427
0	2350	1668.083185355501	428
0	2352	1668.175665752626	429
0	2354	1672.178537195357	430
0	2356	1673.099392113966	431
0	2358	1674.85687199392	432
0	2360	1679.933543613541	433
0	2362	1681.727822027512	434
0	2364	1686.911010887301	435
0	2366	1687.239397786158	436
0	2368	1694.6865707735	437
0	2370	1697.617145393358	438
0	2372	1698.900232486959	439
0	2374	1703.018271489841	440
0	2376	1707.789770581291	441
0	2378	1711.927112744821	442
0	2380	1712.69042950407	443
0	2382	1717.937471335721	444
0	2390	1726.122842590563	445
0	2392	1729.109933589582	446
0	2394	1731.418547997972	447
0	2396	1732.997032932728	448
0	2398	1735.470156814804	449
0	2400	1739.36501747703	450
0	2402	1741.385221542883	451
0	2404	1743.571859873223	452
0	2407	1746.482703478967	453
0	2409	1748.729296264803	454
0	2411	1749.156475051153	455
0	2413	1749.567269955612	456
0	2415	1750.344577085544	457
0	2417	1750.582495766292	458
0	2421	1754.60369889294	459
0	2423	1758.077172157404	460
0	2425	1759.031618463979	461
0	2427	1761.837893523546	462
0	2429	1762.085833791782	463
0	2431	1763.926623044167	464
0	2433	1764.747437299975	465
0	2435	1766.658127375794	466
0	2439	1768.606623275514	467
0	2444	1772.395479352622	468
0	2446	1774.332963244348	469
0	2449	1777.231552371419	470
0	2451	1778.826190138181	471
0	2453	1780.534744736915	472
0	2455	1781.168002845825	473
0	2462	1785.721381312958	474
0	2464	1786.376975220256	475
0	2466	1787.184736675019	476
0	2469	1788.92159615462	477
0	2471	1789.14433901361	478
0	2478	1800.857324766478	479
0	2480	1801.775689598277	480
0	2482	1802.363097695196	481
0	2484	1804.641915450888	482
0	2486	1805.298012484273	483
0	2488	1806.666678346741	484
0	2490	1807.183608088958	485
0	2492	1807.461690048178	486
0	2494	1808.329944721451	487
0	2498	1817.047046641728	488
0	2500	1818.041818439602	489
0	2503	1821.070593468562	490
0	2505	1821.767263445641	491
0	2507	1825.166922171412	492
0	2509	1826.839361308503	493
0	2511	1827.038313847445	494
0	2514	1830.647605972788	495
0	2516	1832.980949433625	496
0	2518	1835.180096560522	497
0	2520	1839.019835507447	498
0	2522	1841.997483216748	499
0	2524	1843.303066691574	500
0	2526	1847.58094772392	501
0	2529	1849.877312814886	502
0	2531	1852.685816311952	503
0	2533	1855.361330481861	504
0	2537	1863.440672524591	505
0	2539	1865.949524461633	506
0	2541	1866.690147382722	507
0	2543	1866.95612910475	508
0	2545	1868.288357836215	509
0	2547	1871.308828676687	510
0	2550	1876.048704212131	511
0	2552	1876.883602664767	512
0	2554	1877.966402190146	513
0	2556	1879.465773087009	514
0	2558	1880.530335692416	515
0	2560	1885.626816186748	516
0	2562	1886.365405998186	517
0	2565	1891.761741635233	518
0	2567	1892.222080707508	519
0	2569	1896.593066130908	520
0	2571	1897.189427953506	521
0	2573	1898.245129467002	522
0	2576	1902.058753370833	523
0	2578	1905.704466330056	524
0	2580	1910.193313562957	525
0	2582	1911.99144765468	526
0	2584	1913.169745724595	527
0	2586	1913.938477903036	528
0	2589	1917.548001054411	529
0	2592	1920.42805366936	530
0	2594	1921.538264310811	531
0	2596	1931.883659257907	532
0	2598	1932.129816539447	533
0	2600	1933.240089453454	534
0	2602	1935.821087602153	535
0	2604	1936.801539209352	536
0	2606	1937.877395983014	537
0	2608	1940.844399031135	538
0	2610	1941.78034219676	539
0	2612	1944.056495785594	540
0	2614	1944.200492928881	541
0	2616	1946.023563838666	542
0	2618	1947.53883171644	543
0	2620	1948.592269627586	544
0	2624	1957.222315854522	545
0	2626	1960.765416208088	546
0	2628	1962.377265210755	547
0	2630	1965.085721296682	548
0	2632	1966.230240031188	549
0	2634	1966.904006675467	550
0	2636	1969.569863779232	551
0	2638	1970.368450177818	552
0	2640	1970.776534547479	553
0	2642	1972.412727005375	554
0	2644	1972.424163042593	555
0	2646	1972.509583965115	556
0	2650	1976.077967167774	557
0	2652	1976.302999531291	558
0	2658	1981.426385383304	559
0	2660	1983.94576634012	560
0	2662	1984.991695885974	561
0	2664	1988.308128063356	562
0	2666	1995.709110604959	563
0	2668	1996.644743421628	564
0	2670	1996.83992348177	565
0	2672	1999.385878219508	566
0	2674	2000.894848783053	567
0	2676	2001.349985750781	568
0	2678	2002.171316598683	569
0	2682	2006.181019530057	570
0	2684	2006.849894038569	571
0	2686	2008.341918288326	572
0	2690	2012.840155810753	573
0	2692	2016.688536541699	574
0	2694	2016.76029341667	575
0	2696	2017.0419362472	576
0	2698	2024.15018001441	577
0	2704	2026.419610623003	578
0	2706	2030.22410931921	579
0	2708	2035.158340542376	580
0	2710	2035.305408591641	581
0	2712	2035.572657768235	582
0	2714	2040.645339186392	583
0	2716	2042.651486968701	584
0	2720	2050.565696489084	585
0	2722	2051.198154378433	586
0	2724	2053.353873708348	587
0	2726	2053.830012772961	588
0	2728	2054.280417349501	589
0	2730	2055.286148976046	590
0	2732	2057.116224141214	591
0	2734	2057.242822841104	592
0	2738	2062.829903530237	593
0	2742	2065.974855790593	594
0	2744	2067.045226709774	595
0	2746	2068.241010344334	596
0	2748	2068.255431674969	597
0	2750	2069.571796746897	598
0	2752	2073.438363934745	599
0	2754	2075.804491548901	600
0	2758	2076.949591343961	601
0	2762	2077.989912925297	602
0	2764	2079.717298970582	603
0	2766	2080.771333733683	604
0	2768	2080.925762454204	605
0	2770	2080.942014627346	606
0	2772	2082.468673930771	607
0	2774	2083.062146661388	608
0	2776	2084.894157837032	609
0	2778	2086.635639586267	610
0	2780	2088.566041311045	611
0	2782	2090.308087176242	612
0	2785	2093.051646944163	613
0	2787	2095.841440509226	614
0	2789	2096.911443730501	615
0	2791	2097.027669449256	616
0	2795	2103.34647548851	617
0	2797	2104.043663377701	618
0	2799	2105.134054313759	619
0	2801	2113.148647449152	620
0	2803	2116.180131304909	621
0	2805	2116.350013294353	622
0	2807	2116.509818221995	623
0	2809	2116.53478632278	624
0	2811	2122.630812175937	625
0	2813	2123.437804055577	626
0	2815	2123.517615216361	627
0	2817	2126.577872731407	628
0	2820	2134.433425405469	629
0	2822	2136.748537613195	630
0	2824	2137.821743051394	631
0	2826	2138.970225734909	632
0	2828	2140.73677603685	633
0	2830	2141.619281239021	634
0	2832	2143.497387632275	635
0	2834	2143.623618193165	636
0	2836	2145.835933515444	637
0	2838	2146.062395376584	638
0	2840	2146.238685584686	639
0	2844	2149.720866590806	640
0	2848	2153.277661315485	641
0	2850	2155.841326629387	642
0	2852	2156.088444685307	643
0	2854	2157.845053008816	644
0	2858	2161.048145486771	645
0	2860	2162.825491181989	646
0	2862	2164.119405588144	647
0	2864	2164.140632675827	648
0	2866	2164.863995443028	649
0	2868	2166.232806141856	650
0	2870	2167.543512783653	651
0	2872	2173.120751945231	652
0	2874	2173.175030937497	653
0	2876	2173.859412342471	654
0	2878	2177.959861613485	655
0	2881	2178.490859381215	656
0	2883	2179.170961112288	657
0	2887	2180.942743948069	658
0	2889	2185.053695858643	659
0	2891	2187.114308292998	660
0	2893	2191.98506606341	661
0	2895	2192.178273547931	662
0	2897	2194.494528666087	663
0	2899	2195.848245779389	664
0	2903	2198.009304097299	665
0	2905	2198.094631087297	666
0	2907	2204.763541412136	667
0	2909	2204.913179708114	668
0	2911	2204.992839229928	669
0	2915	2213.092021909159	670
0	2917	2216.848294146567	671
0	2919	2218.09739987427	672
0	2921	2220.62381579655	673
0	2923	2222.801321580066	674
0	2925	2223.475675478072	675
0	2927	2223.493131536091	676
0	2929	2224.095884750795	677
0	2931	2224.783429054036	678
0	2933	2224.901324880293	679
0	2936	2230.573318402884	680
0	2938	2235.168545125882	681
0	2940	2237.638615068675	682
0	2942	2238.206960839263	683
0	2944	2239.153609191039	684
0	2946	2239.688623548079	685
0	2948	2241.44893973128	686
0	2950	2241.876149060744	687
0	2953	2246.211711277518	688
0	2955	2248.369217266501	689
0	2957	2248.53092395945	690
0	2962	2269.204564108811	691
0	2966	2270.792026813357	692
0	2968	2272.416155837553	693
0	2970	2273.697235490142	694
0	2974	2274.306998704886	695
0	2976	2278.756238471455	696
0	2978	2279.16447322268	697
0	2980	2279.583791241702	698
0	2982	2280.994202682741	699
0	2984	2281.851609747752	700
0	2986	2286.500527234445	701
0	2988	2288.4634579467	702
0	2990	2289.634213739968	703
0	2992	2290.397965240717	704
0	2994	2291.344683675237	705
0	2997	2294.401956286523	706
0	2999	2295.174376491113	707
0	3001	2295.42773656835	708
0	3003	2299.18532032348	709
0	3005	2301.251668468584	710
0	3007	2303.174760892712	711
0	3010	2315.486057630067	712
0	3012	2319.321850953461	713
0	3014	2321.429430972236	714
0	3016	2322.758512927972	715
0	3018	2325.944621963176	716
0	3020	2328.320564830923	717
0	3022	2328.825656731449	718
0	3024	2329.598737197798	719
0	3026	2332.554994251036	720
0	3031	2333.540489638543	721
0	3033	2334.277024532663	722
0	3035	2335.315041991098	723
0	3037	2335.781470490298	724
0	3039	2340.368215122829	725
0	3041	2341.536345130957	726
0	3043	2342.18150784635	727
0	3045	2344.895055809135	728
0	3047	2347.46877042551	729
0	3049	2348.932223549564	730
0	3051	2354.21852485772	731
0	3053	2354.382555897089	732
0	3055	2358.421939575835	733
0	3057	2359.579025801638	734
0	3059	2359.836093495381	735
0	3061	2365.238010253929	736
0	3063	2365.566329953933	737
0	3067	2370.36401620558	738
0	3069	2370.735232719338	739
0	3071	2373.050875462023	740
0	3073	2373.146144003998	741
0	3075	2373.654074392142	742
0	3077	2375.858854307903	743
0	3079	2380.812348197921	744
0	3081	2385.666610642444	745
0	3085	2391.798009068446	746
0	3087	2392.514570519963	747
0	3089	2395.348209063001	748
0	3091	2395.432563348872	749
0	3093	2396.616849823822	750
0	3095	2398.721512851252	751
0	3099	2401.261064597467	752
0	3101	2401.373355456863	753
0	3104	2402.304579054592	754
0	3106	2403.839094925324	755
0	3108	2404.641113489222	756
0	3110	2405.787407975018	757
0	3113	2407.230741275016	758
0	3115	2408.355515591349	759
0	3117	2408.955789686738	760
0	3119	2412.295805606077	761
0	3121	2416.596487259793	762
0	3123	2418.223174626725	763
0	3125	2422.839061660828	764
0	3127	2429.317501682001	765
0	3129	2431.135569729593	766
0	3131	2432.435326462342	767
0	3133	2433.012583477683	768
0	3135	2433.174305727926	769
0	3137	2435.88562220242	770
0	3139	2439.484993944236	771
0	3141	2439.789253467203	772
0	3143	2440.287096485631	773
0	3145	2441.086484039917	774
0	3147	2443.412055975502	775
0	3149	2443.799903508839	776
0	3151	2443.881753948873	777
0	3153	2444.849148055736	778
0	3155	2445.291348673237	779
0	3157	2445.467016250613	780
0	3159	2446.599865319553	781
0	3163	2450.765017596397	782
0	3171	2458.159889235068	783
0	3173	2460.245286697437	784
0	3176	2460.67413144418	785
0	3178	2461.378790801556	786
0	3180	2462.231284001006	787
0	3182	2462.844518267354	788
0	3184	2463.15892608418	789
0	3186	2463.271359888326	790
0	3188	2471.80779719176	791
0	3190	2473.290601446978	792
0	3192	2474.840082115337	793
0	3194	2480.157813525942	794
0	3198	2483.769031729455	795
0	3200	2485.198281528129	796
0	3202	2488.439543298742	797
0	3204	2489.898629248756	798
0	3206	2491.471016392379	799
0	3210	2491.983464305138	800
0	3212	2491.992512858694	801
0	3214	2495.650678526978	802
0	3216	2498.447283582462	803
0	3218	2499.737305029895	804
0	3220	2499.744487321385	805
1	458	350.114345954886	63
1	460	350.549975900492	64
1	462	350.899433721017	65
1	464	351.626207472882	66
1	466	352.65166488692	67
1	467	353.56430443218	67
1	469	354.466025592611	67
1	470	356.060488371875	67
1	471	356.474549139372	66
1	472	356.947122913583	65
1	473	358.145440102873	64
1	474	358.158687144065	63
1	476	358.943918537656	63
1	477	359.507872255651	63
1	478	360.856501495638	62
1	479	360.878773210166	61
1	480	361.19504042241	60
1	481	361.559389944864	59
1	482	361.865962833962	58
1	484	363.079907595411	58
1	485	363.790944252433	58
1	487	363.839653139161	58
1	488	364.318552344621	58
1	489	365.727298087557	57
1	490	365.797875886657	56
1	491	365.804853426345	55
1	492	366.66274094137	54
1	493	367.979920973799	53
1	494	368.081516136228	52
1	495	368.172576848818	51
1	496	370.609498183642	50
1	498	370.630341190005	50
1	499	370.940509800541	50
1	500	371.133224824251	49
1	502	371.523281820906	49
1	504	372.036871763645	50
1	505	373.206413670523	50
1	507	373.286284132562	50
1	508	374.519952480513	50
1	509	374.805592155749	49
1	510	375.376671712265	48
1	511	375.94451158416	47
1	512	375.957178559619	46
1	513	376.253264682234	45
1	515	376.336307644944	45
1	516	376.546305832455	45
1	518	377.162125460526	45
1	520	377.828342516418	46
1	521	378.147086786107	46
1	522	378.72738563892	45
1	523	380.106722090623	44
1	524	380.253588888	43
1	525	380.400162348934	42
1	526	380.712115456064	41
1	528	380.737608762467	41
1	529	381.120221513313	41
1	530	381.467415011754	40
1	531	381.493473072571	39
1	532	382.139245155966	38
1	534	383.539151478835	38
1	535	383.554739987131	38
1	537	384.597643506745	38
1	538	384.884040563366	38
1	540	385.515804769862	38
1	541	387.483947140236	38
1	543	387.793791547397	38
1	545	387.821953400228	39
1	547	389.379853469553	40
1	548	390.528305082204	40
1	549	391.5985473034	39
1	550	391.83608380261	38
1	551	392.129357513874	37
1	553	392.835717535049	37
1	554	397.728712831834	37
1	555	398.189635016099	36
1	557	398.272370122322	36
1	559	398.553114442226	37
1	561	399.357645999001	38
1	563	400.409511582907	39
1	564	400.811060549418	39
1	565	401.894303061721	38
1	566	402.035679536475	37
1	567	402.836120790698	36
1	568	403.537016263096	35
1	569	404.054962131049	34
1	570	404.377748612671	33
1	571	404.419445679911	32
1	573	406.661720353876	32
1	574	406.845128198158	32
1	576	407.012319754987	32
1	577	407.890435018482	32
1	578	408.069468672155	31
1	579	408.18213781399	30
1	580	408.476403476783	29
1	581	411.353550850459	28
1	583	412.330104523347	28
1	584	412.569025274697	28
1	585	413.407652173247	27
1	586	414.017178659249	26
1	588	415.176337667485	26
1	590	416.250186839365	27
1	591	416.906408524681	27
1	592	416.970381840372	26
1	593	417.057097397634	25
1	594	418.314266758587	24
1	596	418.44378306365	24
1	598	418.70932640241	25
1	599	420.164126679584	25
1	600	421.958416212065	24
1	602	422.046510022977	24
1	603	422.239518617452	24
1	604	422.646314307362	23
1	605	422.99125521532	22
1	606	423.48646250891	21
1	607	423.568882318383	20
1	608	424.208106445819	19
1	609	424.512240957399	18
1	611	425.005008488502	18
1	612	425.821481359783	18
1	613	425.990722490293	17
1	614	426.502293926539	16
1	615	426.755169068625	15
1	617	427.15610103543	15
1	618	428.050351781651	15
1	619	428.187358298836	14
1	621	428.686437830785	14
1	622	429.304881713947	14
1	624	429.473777409455	14
1	625	429.547729357354	14
1	631	431.739581444764	14
1	633	433.958719302376	15
1	635	435.593295271204	16
1	637	438.447400659297	17
1	639	438.505305757073	18
1	641	438.778438670068	19
1	644	439.772653832323	20
1	646	439.960346291652	21
1	648	441.564616237292	22
1	650	442.05210292711	23
1	652	442.294747539625	24
1	654	445.503529834369	24
1	656	445.853961631764	24
1	657	446.414998351046	24
1	658	447.27350599481	23
1	660	448.292659143167	23
1	662	448.690083148288	24
1	663	449.447548496929	24
1	665	450.282108647456	24
1	666	450.370112615824	24
1	668	450.460773653561	24
1	669	450.512369744106	24
1	670	451.95551901445	23
1	672	452.242558016468	23
1	674	452.639199508373	24
1	676	452.967747744397	25
1	678	453.817818717943	26
1	680	454.068145512012	27
1	681	454.969954557447	27
1	682	455.017447344399	26
1	684	455.093644392517	26
1	685	456.708791338482	26
1	686	457.310675236096	25
1	688	457.55764385612	25
1	689	457.64039558789	25
1	691	458.776938943584	25
1	692	460.226523318739	25
1	694	461.424836668097	25
1	695	462.456087940862	25
1	696	463.500296681894	24
1	698	463.586857785406	24
1	700	463.815963480455	25
1	701	464.269145480127	25
1	702	465.682993184908	24
1	703	466.329507653664	23
1	707	468.011244511344	23
1	709	468.483180281947	24
1	711	468.510191598005	25
1	713	469.671652032542	26
1	715	472.467678623866	27
1	717	472.784659822929	28
1	719	475.330568253973	29
1	723	480.430188403063	30
1	725	480.930488568374	31
1	729	486.874396507163	32
1	731	489.680159310052	33
1	733	490.247108431444	34
1	735	490.765623027922	35
1	737	490.921414792045	36
1	739	491.206401964836	37
1	741	492.011585021463	38
1	743	492.314779303607	39
1	745	493.771748060312	40
1	748	494.015217246361	41
1	750	501.716130277493	42
1	752	502.71696435715	43
1	754	507.530555426944	44
1	756	509.655288919402	45
1	763	516.39118557003	46
1	765	516.839715213557	47
1	767	517.77550777746	48
1	769	518.512794333994	49
1	773	519.276254767417	50
1	775	519.952565213864	51
1	777	521.000457371777	52
1	779	521.954551087191	53
1	781	523.178811713222	54
1	783	527.28204537515	54
1	785	528.81205726796	54
1	786	529.206373566094	54
1	788	529.286981619205	54
1	790	529.549291941676	55
1	791	530.084813368111	55
1	792	530.168523767799	54
1	794	530.638016786312	54
1	795	530.955133391465	54
1	796	533.236207626064	53
1	797	533.835323334498	52
1	798	533.880396535947	51
1	799	534.410134008028	50
1	804	538.482842707936	50
1	805	538.852666870506	50
1	806	539.604824977378	49
1	807	541.35620937369	48
1	808	541.496082858257	47
1	809	541.636710379723	46
1	810	543.432451144463	45
1	811	543.765693643425	44
1	812	543.957058607916	43
1	813	544.019874519197	42
1	814	544.490601250619	41
1	815	546.572345892979	40
1	816	546.809048773734	39
1	818	547.178928317245	39
1	819	547.721532034273	39
1	821	548.733524682854	39
1	822	548.876327900191	39
1	824	549.068661864319	39
1	826	549.231929400092	40
1	827	549.360853619253	40
1	828	549.984894142082	39
1	829	551.802586587418	38
1	830	553.154438110623	37
1	832	553.294015458879	37
1	836	554.605854952902	38
1	838	557.194232830286	39
1	840	558.884840786187	40
1	842	564.51258706422	41
1	844	566.415122661243	42
1	846	567.770904527871	43
1	848	569.691712665721	44
1	853	571.548096124039	45
1	855	572.668804184654	46
1	857	574.396268174088	47
1	859	576.265489326002	48
1	861	578.040583821386	49
1	863	579.871234182523	50
1	865	583.12090100008	51
1	867	584.368468496787	51
1	869	587.045790295191	51
1	870	587.347462479519	51
1	871	587.461323512273	50
1	872	587.853598024226	49
1	873	588.054458882069	48
1	877	591.501853472799	47
1	878	592.113247240421	46
1	879	592.306885317018	45
1	881	593.226080109546	45
1	882	595.315892014338	45
1	883	596.091683991315	44
1	884	596.235633676336	43
1	885	596.310885701471	42
1	886	596.488265170888	41
1	887	596.762975124387	40
1	889	596.781948355796	40
1	890	596.91353866726	40
1	892	597.26732637985	40
1	893	597.3564029255	40
1	894	598.386134606322	39
1	895	598.604549522848	38
1	897	599.945547172708	38
1	898	600.346176451881	38
1	899	600.857877531611	37
1	900	602.186217466511	36
1	902	602.203984983999	36
1	904	602.399563291095	37
1	905	602.416936173163	37
1	906	602.917392776081	36
1	907	602.946306369491	35
1	909	603.60727685176	35
1	911	605.12569644671	36
1	913	605.466920005807	37
1	914	606.108031522207	37
1	916	606.81354707622	37
1	917	607.201371078707	37
1	921	607.416575171157	37
1	923	609.840731474337	38
1	925	610.859101144189	39
1	927	611.369137611757	40
1	929	617.562776675681	41
1	931	618.769337947802	42
1	933	620.718035131038	43
1	935	621.829625872356	44
1	937	622.217239726229	45
1	941	629.643972522323	46
1	943	630.149727782335	47
1	945	631.009769256168	48
1	947	635.976618438773	49
1	949	638.968184492199	50
1	952	640.516370573522	51
1	954	641.069912800549	52
1	956	641.54644091009	53
1	958	643.981146721649	54
1	960	644.115825591014	55
1	962	644.465907277349	56
1	964	647.520704008698	57
1	966	650.115006763557	57
1	967	650.22373524671	56
1	968	651.893286398715	55
1	969	652.799695242521	54
1	970	652.937495264847	53
1	971	652.999449828975	52
1	973	653.530855961908	52
1	974	656.192045012994	52
1	975	657.249297396615	51
1	976	657.949929235022	50
1	978	658.109235726838	50
1	980	660.693820731376	51
1	981	661.289546844642	51
1	983	661.50700729387	51
1	984	661.639546234132	51
1	986	661.873867687979	51
1	987	662.140275282203	51
1	988	662.403171982035	50
1	990	664.20031260378	50
1	991	665.159485127756	50
1	992	665.191900023124	49
1	993	665.581568313581	48
1	994	665.709689321373	47
1	996	665.948732693313	47
1	998	666.078736495538	48
1	1000	666.46805090101	49
1	1001	666.539057701794	49
1	1003	667.386504659289	49
1	1004	667.817083262781	49
1	1006	667.996734277791	49
1	1008	668.5108796826	50
1	1010	668.763026276693	51
1	1012	668.975042923258	52
1	1013	669.476936385507	52
1	1014	669.623474769158	51
1	1015	671.757097808295	50
1	1016	672.504066931576	49
1	1017	672.900976355906	48
1	1018	673.736856901145	47
1	1019	673.742413142549	46
1	1023	677.795183770169	46
1	1025	682.717225414886	46
1	1027	683.917215583691	46
1	1028	684.733911034781	46
1	1029	685.475037545199	45
1	1030	685.666706790835	44
1	1032	685.89072111622	44
1	1034	686.138788016448	45
1	1035	686.202288330948	45
1	1036	686.205686824309	44
1	1038	686.376848784852	44
1	1039	686.641665913519	44
1	1040	686.884060709637	43
1	1041	687.375338744925	42
1	1042	687.618197768606	41
1	1044	688.011429931945	41
1	1045	688.38884092586	41
1	1047	690.121331324903	41
1	1048	691.185437568486	41
1	1049	691.203893515482	40
1	1051	691.462680991986	40
1	1053	692.608564019734	41
1	1055	693.32804760578	42
1	1057	693.753702052878	43
1	1059	694.873967676181	44
1	1061	695.219388481503	45
1	1062	695.266908003598	45
1	1064	696.7234403404	45
1	1066	696.725091826252	46
1	1068	696.895628812802	47
1	1070	696.975270312094	48
1	1071	697.009033246507	48
1	1073	698.316820350825	48
1	1074	699.041716931232	48
1	1075	699.12897996809	47
1	1077	699.672511719965	47
1	1078	700.448420513764	47
1	1079	700.676121044916	46
1	1080	700.888331565714	45
1	1081	701.27764802961	44
1	1083	701.295311429783	44
1	1085	701.645325300869	45
1	1087	701.956755258061	46
1	1088	703.104076857642	46
1	1090	703.649773176772	46
1	1091	704.34861754867	46
1	1093	705.105758950785	46
1	1094	705.148116305107	46
1	1096	705.342402646528	46
1	1098	705.68035356448	47
1	1099	705.71101436389	47
1	1101	707.920870110858	47
1	1102	708.984814316095	47
1	1103	709.592272287029	46
1	1104	710.330816317461	45
1	1105	711.890141333261	44
1	1106	712.450222798461	43
1	1107	713.13253194944	42
1	1108	713.940829798696	41
1	1109	714.095417003186	40
1	1111	714.293120842187	40
1	1112	714.542191845027	40
1	1114	714.690882029252	40
1	1115	715.322045904596	40
1	1116	715.791672810324	39
1	1118	715.959531331558	39
1	1119	716.316787116254	39
1	1120	717.036297949239	38
1	1122	717.235989040317	38
1	1123	717.465756714103	38
1	1124	717.567600805668	37
1	1126	718.379887934275	37
1	1127	718.568721900252	37
1	1128	719.767797685188	36
1	1129	720.49314321635	35
1	1130	720.526782140518	34
1	1131	720.824244584906	33
1	1132	721.999422091854	32
1	1133	723.054593807213	31
1	1135	724.331553120244	31
1	1137	724.398563706206	32
1	1138	725.087237090669	32
1	1139	725.101104096306	31
1	1140	725.31216500249	30
1	1141	725.817644156165	29
1	1143	726.244532535225	29
1	1144	727.360399421127	29
1	1145	727.691253457499	28
1	1146	728.230317056553	27
1	1148	728.765439938125	27
1	1149	729.205961869509	27
1	1150	729.887550403593	26
1	1151	729.922106891823	25
1	1153	730.016198608076	25
1	1155	730.287496088404	26
1	1156	730.916337378447	26
1	1158	732.092759500267	26
1	1160	732.704122036351	27
1	1162	732.993188548401	28
1	1164	734.438531734723	29
1	1165	736.364470060149	29
1	1166	736.493898327908	28
1	1168	736.51587915317	28
1	1169	737.590225696095	28
1	1170	737.874074691679	27
1	1171	740.54768079291	26
1	1172	741.498800246448	25
1	1173	741.555295587329	24
1	1175	742.004182598707	24
1	1176	743.023280584538	24
1	1178	743.054230033811	24
1	1179	743.824461674654	24
1	1181	744.426417626485	24
1	1183	746.074634584557	25
1	1185	746.331636263245	26
1	1187	747.759774489744	27
1	1189	749.141252221576	28
1	1190	749.471836945899	28
1	1191	749.70207145143	27
1	1192	750.155725512651	26
1	1194	750.208679767284	26
1	1196	750.643701365853	27
1	1197	753.139518651407	27
1	1198	753.192928911019	26
1	1199	753.719017791042	25
1	1201	754.313539426121	25
1	1202	754.808322181149	25
1	1203	755.024284106984	24
1	1205	755.139920154413	24
1	1206	755.287882087259	24
1	1207	755.659567057679	23
1	1208	756.764298587586	22
1	1209	760.832566899522	21
1	1210	761.128464371643	20
1	1212	761.218189604885	20
1	1213	761.29954557308	20
1	1215	761.330887145833	20
1	1216	761.79962850629	20
1	1217	762.583242762363	19
1	1218	763.125569203028	18
1	1219	763.788301351618	17
1	1220	763.994142058898	16
1	1224	765.010872846737	16
1	1226	765.889722226499	17
1	1228	769.492366584186	18
1	1230	774.312154319452	19
1	1234	777.187916092429	20
1	1236	781.433533200657	21
1	1240	785.774610792791	22
1	1242	787.605065865188	23
1	1244	787.632693773257	24
1	1248	791.812542128832	25
1	1250	792.825630074558	26
1	1252	793.106118645999	27
1	1254	795.983979322456	28
1	1256	797.31547067304	29
1	1258	798.947913671804	30
1	1261	800.734366954587	31
1	1263	806.029631059075	32
1	1265	807.847741533025	33
1	1267	808.260311205554	34
1	1270	813.282516964542	35
1	1272	814.80326033177	36
1	1274	818.380597665156	37
1	1276	820.204965312734	38
1	1278	820.677722622633	39
1	1280	823.250885573292	40
1	1282	823.636215506689	41
1	1284	823.680603697767	42
1	1287	824.140443518389	43
1	1289	824.5663821598	44
1	1294	830.545973626513	44
1	1295	831.75882772866	43
1	1296	831.804516691157	42
1	1298	831.965951881763	42
1	1300	833.975527892492	43
1	1302	834.073187536907	44
1	1303	834.176111627373	44
1	1304	834.466819878781	43
1	1305	834.741322648964	42
1	1307	837.418737714379	42
1	1309	837.747149868744	43
1	1310	837.995563857588	43
1	1311	838.152343683267	42
1	1313	838.959011875208	42
1	1314	839.220498079344	42
1	1315	839.242595832358	41
1	1317	841.166020368849	41
1	1318	841.247487715669	41
1	1320	841.685744191678	41
1	1322	841.799011240053	42
1	1323	842.29807742115	42
1	1324	843.099721463125	41
1	1326	843.124210790441	41
1	1328	843.46544411402	42
1	1329	843.466153054611	42
1	1331	843.715834367818	42
1	1332	843.915064621235	42
1	1334	845.103795560344	42
1	1335	845.775233452867	42
1	1336	847.684256438186	41
1	1338	848.061481364927	41
1	1342	848.917083284492	42
1	1344	853.693651716453	43
1	1346	853.911773855917	44
1	1348	857.385069520553	45
1	1350	857.900159935581	46
1	1352	858.640105692483	46
1	1353	858.789538882961	45
1	1355	859.230698072923	45
1	1356	859.837578028594	45
1	1357	859.976229209305	44
1	1358	860.810249579021	43
1	1359	861.9613660749	42
1	1360	862.017573001354	41
1	1361	862.516217168628	40
1	1362	864.265821411704	39
1	1363	864.810944245748	38
1	1365	865.144344761167	38
1	1366	866.22983690143	38
1	1368	866.484172554759	38
1	1370	868.062799063376	39
1	1371	868.192070030494	39
1	1373	868.461943861207	39
1	1374	869.429999387295	39
1	1375	870.383292236917	38
1	1379	871.159455576234	38
1	1381	871.273454975753	39
1	1383	872.034504904911	40
1	1385	872.04771715127	41
1	1387	875.058228708188	42
1	1389	878.126773031486	43
1	1393	880.002037860351	44
1	1396	883.70005389078	45
1	1398	889.062400308099	46
1	1400	889.189540069077	47
1	1402	889.612380146626	48
1	1410	898.607801413106	49
1	1412	901.554409570433	50
1	1414	902.361903903002	51
1	1423	907.119633944209	52
1	1425	907.667524238388	53
1	1427	910.654370556012	54
1	1429	914.462906312602	55
1	1431	919.744930545071	56
1	1433	920.095310223823	57
1	1435	925.901466869047	58
1	1437	931.507376905208	59
1	1439	932.216983490642	60
1	1441	933.360039476501	61
1	1443	934.260872373583	62
1	1445	934.569648124422	63
1	1447	934.952087838802	64
1	1449	935.74034302397	65
1	1452	942.690812453095	66
1	1455	943.45587894108	67
1	1457	944.586795422435	68
1	1459	945.542918757345	69
1	1463	951.221910696391	70
1	1466	957.478605080943	71
1	1468	958.774822653768	72
1	1470	959.302037136426	73
1	1472	959.552667700896	74
1	1474	962.020802260956	75
1	1477	964.793223245996	76
1	1479	967.111036862389	77
1	1481	967.152372507332	78
1	1483	967.723845333867	79
1	1485	968.400315165639	80
1	1487	971.673625276461	81
1	1489	971.821424855389	82
1	1491	974.736374890298	83
1	1493	976.527026050755	84
1	1495	978.849575332548	85
1	1497	978.904229455845	86
1	1499	980.519529589722	87
1	1501	980.9335921944	88
1	1503	983.033967220205	89
1	1505	986.349449136726	90
1	1509	988.432299146613	91
1	1511	992.082964898419	92
1	1513	992.736902315575	93
1	1515	993.572343230744	94
1	1517	997.059792217434	95
1	1519	998.524488732491	96
1	1521	1002.948315165793	97
1	1525	1007.309897750726	98
1	1527	1007.846666047912	99
1	1529	1008.538137460777	100
1	1531	1010.316844427901	101
1	1533	1010.32339610515	102
1	1536	1012.661253765336	103
1	1538	1015.847830315247	104
1	1540	1020.002065119623	105
1	1542	1020.529638096667	106
1	1548	1030.630371999522	107
1	1552	1032.131439791749	108
1	1554	1032.535908282347	109
1	1556	1033.550338911019	110
1	1559	1038.133311890602	111
1	1568	1047.34353785101	112
1	1570	1048.452961328502	113
1	1572	1048.851188658538	114
1	1574	1048.965983194782	115
1	1577	1050.296145731878	116
1	1579	1052.889735558881	117
1	1584	1059.556932580499	118
1	1586	1060.473779027897	119
1	1588	1061.366321453799	120
1	1590	1065.666245940433	121
1	1592	1066.322105935879	122
1	1594	1071.917559265743	123
1	1596	1074.285323199861	124
1	1599	1080.756375846712	125
1	1601	1080.803294716724	126
1	1603	1083.920925437386	127
1	1605	1085.632065948788	128
1	1607	1085.881024951777	129
1	1609	1086.526930345249	130
1	1611	1088.677667304748	131
1	1613	1091.090605399845	132
1	1615	1091.572913161553	133
1	1617	1092.470615700581	134
1	1619	1095.209263596196	135
1	1621	1098.909158835205	136
1	1623	1100.130459329658	137
1	1626	1101.199825187616	138
1	1628	1104.758150167743	139
1	1630	1105.003012560043	140
1	1632	1107.394887791978	141
1	1634	1111.081306110806	142
1	1636	1116.157834466965	143
1	1638	1116.872288774698	144
1	1640	1119.514895203193	145
1	1642	1122.145516414426	146
1	1644	1123.23354262624	147
1	1646	1125.169911513354	148
1	1652	1126.779374563809	149
1	1654	1129.209711027372	150
1	1658	1131.038960465685	151
1	1660	1132.557374560692	152
1	1662	1134.187450884406	153
1	1665	1139.438765556535	154
1	1671	1143.290022315633	155
1	1673	1144.501115725244	156
1	1675	1145.921560863155	157
1	1677	1145.938670358564	158
1	1679	1147.238809729512	159
1	1681	1147.4729911281	160
1	1687	1153.077454481509	161
1	1689	1154.077344331839	162
1	1691	1155.040799589928	163
1	1693	1156.148315326523	164
1	1695	1157.433474976802	165
1	1697	1158.522220316812	166
1	1700	1160.106772972285	167
1	1702	1161.375673712814	168
1	1704	1165.765672842169	169
1	1706	1166.205534274449	170
1	1708	1167.338062236198	171
1	1710	1168.099143660134	172
1	1712	1168.168793330247	173
1	1714	1169.928995576489	174
1	1716	1171.720794279516	175
1	1721	1175.452686342609	176
1	1723	1179.13856785774	177
1	1725	1180.480870072571	178
1	1727	1183.491750637775	179
1	1729	1185.497684128544	180
1	1731	1185.662505075319	181
1	1733	1187.418872684063	182
1	1735	1187.584710319416	183
1	1737	1190.460858182918	184
1	1742	1195.173555103475	185
1	1744	1195.598413961956	186
1	1746	1196.454902700783	187
1	1749	1200.219289344093	188
1	1751	1203.159888181434	189
1	1755	1203.847782390463	190
1	1757	1203.956179320445	191
1	1759	1204.297618020684	192
1	1761	1205.172092061761	193
1	1763	1207.694016105792	194
1	1765	1208.270653916928	195
1	1767	1209.470503997461	196
1	1769	1210.23294700089	197
1	1771	1210.870568714365	198
1	1773	1212.298264149774	199
1	1779	1215.056353089888	200
1	1781	1218.453653235772	201
1	1783	1225.935892611531	202
1	1786	1230.571110173611	203
1	1788	1231.081346303788	204
1	1790	1232.216726197292	205
1	1792	1232.986373252132	206
1	1794	1234.754571793928	207
1	1796	1236.248749942962	208
1	1798	1239.389788719175	209
1	1800	1239.393768325231	210
1	1802	1241.136745284186	211
1	1806	1245.328894206735	212
1	1808	1248.453099454901	213
1	1810	1248.988363540226	214
1	1812	1250.012186345676	215
1	1814	1250.189861127574	216
1	1816	1252.294023222415	217
1	1820	1253.419419661115	218
1	1822	1253.67331081511	219
1	1824	1254.689790634648	220
1	1826	1256.781952421222	221
1	1828	1258.164602373172	222
1	1830	1259.674102022718	223
1	1834	1263.258212038806	224
1	1836	1264.993817940483	225
1	1838	1265.449121825671	226
1	1840	1268.994388525007	227
1	1842	1271.727814064513	228
1	1844	1274.342152863859	229
1	1846	1274.420193770631	230
1	1848	1274.507154623989	231
1	1850	1276.472330868062	232
1	1852	1279.905542477467	233
1	1854	1280.686736789309	234
1	1856	1282.808909638685	235
1	1858	1283.667331481048	236
1	1860	1286.551905585352	237
1	1862	1286.84532385459	238
1	1865	1292.112416648227	239
1	1869	1295.340746536063	240
1	1871	1295.932392471978	241
1	1873	1296.50933879653	242
1	1876	1300.094137369838	243
1	1878	1300.873465038817	244
1	1880	1303.373808195003	245
1	1882	1305.049874274615	246
1	1885	1306.058907701242	247
1	1887	1312.707129259891	248
1	1890	1316.864786792839	249
1	1892	1320.418031087507	250
1	1894	1323.07437156518	251
1	1896	1326.133084642322	252
1	1900	1330.578944109867	253
1	1902	1331.185021759995	254
1	1904	1331.598965109403	255
1	1906	1333.422500216951	256
1	1908	1335.22191826534	257
1	1911	1339.831264666098	258
1	1913	1340.390780367065	259
1	1915	1341.679701185789	260
1	1917	1343.005454075102	261
1	1919	1343.229336299774	262
1	1922	1348.327509648797	263
1	1924	1348.938839348954	264
1	1926	1349.052188524187	265
1	1928	1350.002734630147	266
1	1930	1352.95905834314	267
1	1932	1353.8179415929	268
1	1934	1355.850720216032	269
1	1936	1356.438303583888	269
1	1937	1356.592757190091	268
1	1938	1357.010896382777	267
1	1939	1357.833698595937	266
1	1940	1358.15627951869	265
1	1942	1360.458270180457	265
1	1943	1360.869605326869	265
1	1944	1361.004447993073	264
1	1946	1361.273249114121	264
1	1947	1361.426476427404	264
1	1948	1361.951484589613	263
1	1949	1362.105157432215	262
1	1950	1363.391502679455	261
1	1951	1363.603574183614	260
1	1953	1364.234504236699	260
1	1954	1365.522848283036	260
1	1955	1365.864967261022	259
1	1956	1367.000664397181	258
1	1957	1368.879831723693	257
1	1958	1368.942599040329	256
1	1959	1369.315591823815	255
1	1961	1370.116443213195	255
1	1963	1371.52899920864	256
1	1965	1371.534491534158	257
1	1966	1372.474783996111	257
1	1970	1373.091865700613	257
1	1972	1373.949873663053	258
1	1974	1375.75751660706	259
1	1976	1377.356876558237	260
1	1978	1377.791445167085	261
1	1980	1381.812428971341	262
1	1984	1382.958669308845	263
1	1986	1384.575130303071	264
1	1988	1384.818701649873	265
1	1990	1388.276420587099	266
1	1994	1390.847566638563	267
1	1996	1391.268510076198	268
1	1998	1391.47441137179	269
1	2004	1396.778769500508	270
1	2006	1397.494648084326	271
1	2008	1397.498375044314	272
1	2010	1398.71285731209	273
1	2012	1399.50317630287	274
1	2014	1399.698299846551	275
1	2016	1401.580812866988	276
1	2018	1404.379353436096	277
1	2020	1405.977026042735	278
1	2022	1406.490368438304	279
1	2024	1410.158192056012	280
1	2026	1415.103614706921	281
1	2028	1415.394341462439	282
1	2030	1417.395319172212	283
1	2032	1418.627844861155	284
1	2034	1422.827936859465	285
1	2036	1423.80481580921	286
1	2038	1425.775063048871	287
1	2040	1426.400522028149	288
1	2042	1427.959261222197	289
1	2044	1428.237513554132	290
1	2046	1428.997291424554	291
1	2048	1430.56154586651	292
1	2050	1431.791370692697	293
1	2052	1432.364501245154	294
1	2056	1433.056673726956	295
1	2062	1439.542781823638	296
1	2064	1440.526275851162	297
1	2069	1447.684034945384	298
1	2071	1448.165859224861	299
1	2073	1451.26987451218	300
1	2075	1453.365383292978	301
1	2077	1456.158585034071	302
1	2079	1456.45046382558	303
1	2081	1462.31827008628	304
1	2083	1462.419214992148	305
1	2085	1463.808413882489	306
1	2087	1466.756704257698	307
1	2089	1468.706455363855	308
1	2091	1469.697425097923	309
1	2093	1470.671031782863	310
1	2097	1470.94118509425	311
1	2099	1472.612993541756	312
1	2101	1473.450740866124	313
1	2103	1474.882357526786	314
1	2105	1475.046987140616	315
1	2107	1476.905700738086	316
1	2109	1477.103543674936	317
1	2111	1477.892938308454	318
1	2113	1479.646657805214	319
1	2115	1482.344930090856	320
1	2117	1482.747930683245	321
1	2119	1482.782155225829	322
1	2121	1483.184417548009	323
1	2123	1486.142723628993	324
1	2125	1487.243609262194	325
1	2127	1488.24134876254	326
1	2129	1488.74411275498	327
1	2131	1489.25046001659	328
1	2133	1489.752839118277	329
1	2135	1489.864647995392	330
1	2137	1492.244365633252	331
1	2139	1492.486586168886	332
1	2141	1493.284194910397	333
1	2143	1493.881353441835	334
1	2145	1497.896253454439	335
1	2147	1498.306185036506	336
1	2149	1498.801766946637	337
1	2151	1501.6120119012	338
1	2154	1503.607050115098	339
1	2157	1505.836577177949	340
1	2160	1508.2640641251	341
1	2162	1509.975833956702	342
1	2164	1512.085829940584	343
1	2166	1512.44569567584	344
1	2168	1512.669501794383	345
1	2170	1513.363618735028	346
1	2172	1514.634588698105	347
1	2175	1519.194291564833	348
1	2177	1520.049873884956	349
1	2179	1520.679329981912	350
1	2181	1520.727000715399	351
1	2183	1523.116264179861	352
1	2185	1524.70932966556	353
1	2187	1525.895438246071	354
1	2189	1526.042833864235	355
1	2193	1529.585376424713	356
1	2195	1532.403945873472	357
1	2198	1533.636604377575	358
1	2200	1534.791388458157	359
1	2202	1535.060951269148	360
1	2204	1538.084997180854	361
1	2206	1541.297562792853	362
1	2210	1543.118222827375	363
1	2212	1543.547308075887	364
1	2214	1543.830622909133	365
1	2216	1545.156509146558	366
1	2218	1550.183738721464	367
1	2220	1556.216264465597	368
1	2222	1556.670333149843	369
1	2224	1557.032045700026	370
1	2226	1558.588708311076	371
1	2228	1559.250600008565	372
1	2230	1563.937956633301	373
1	2232	1564.024943000036	374
1	2234	1566.597673361496	375
1	2236	1574.452353699369	376
1	2238	1574.510212128625	377
1	2240	1575.223391961702	378
1	2242	1575.30458860804	379
1	2244	1576.419412575943	380
1	2246	1578.260526343212	381
1	2248	1578.998468266163	382
1	2250	1580.312420095478	383
1	2252	1581.99811461902	384
1	2254	1585.197260848078	385
1	2256	1585.666684709244	386
1	2258	1589.110246940739	387
1	2260	1589.896679619321	388
1	2262	1590.978037467298	389
1	2264	1591.294257639751	390
1	2266	1591.560842900328	391
1	2268	1597.544036906989	392
1	2270	1609.607896978516	393
1	2272	1609.713641164872	394
1	2275	1615.882547268257	395
1	2277	1616.382188647343	396
1	2279	1618.059883883054	397
1	2281	1618.211737360709	398
1	2283	1623.335221006784	399
1	2285	1627.139313587098	400
1	2287	1627.194034199063	401
1	2290	1629.949954566335	402
1	2294	1632.501976780952	403
1	2296	1632.955952760892	404
1	2298	1634.970101561144	405
1	2300	1637.364510800185	406
1	2302	1638.509702846288	407
1	2304	1639.014950977312	408
1	2306	1640.413984064595	409
1	2308	1643.217069216035	410
1	2310	1648.278416497043	411
1	2312	1648.491071862436	412
1	2314	1649.881786083118	413
1	2316	1653.358453247724	414
1	2318	1653.937802512837	415
1	2320	1654.650013730847	416
1	2324	1656.397912283482	417
1	2326	1656.939713279971	418
1	2330	1657.444686841537	419
1	2332	1659.608776113447	420
1	2336	1660.21629329052	421
1	2338	1664.326924313352	422
1	2342	1666.871100331792	423
1	2344	1667.094451459834	424
1	2346	1667.188260374575	425
1	2348	1667.448779190795	426
1	2350	1668.083185355501	427
1	2352	1668.175665752626	428
1	2354	1672.178537195357	429
1	2356	1673.099392113966	430
1	2358	1674.85687199392	431
1	2360	1679.933543613541	432
1	2362	1681.727822027512	433
1	2364	1686.911010887301	434
1	2366	1687.239397786158	435
1	2368	1694.6865707735	436
1	2370	1697.617145393358	437
1	2372	1698.900232486959	438
1	2374	1703.018271489841	439
1	2376	1707.789770581291	440
1	2378	1711.927112744821	441
1	2380	1712.69042950407	442
1	2382	1717.937471335721	443
1	2390	1726.122842590563	444
1	2392	1729.109933589582	445
1	2394	1731.418547997972	446
1	2396	1732.997032932728	447
1	2398	1735.470156814804	448
1	2400	1739.36501747703	449
1	2402	1741.385221542883	450
1	2404	1743.571859873223	451
1	2407	1746.482703478967	452
1	2409	1748.729296264803	453
1	2411	1749.156475051153	454
1	2413	1749.567269955612	455
1	2415	1750.344577085544	456
1	2417	1750.582495766292	457
1	2421	1754.60369889294	458
1	2423	1758.077172157404	459
1	2425	1759.031618463979	460
1	2427	1761.837893523546	461
1	2429	1762.085833791782	462
1	2431	1763.926623044167	463
1	2433	1764.747437299975	464
1	2435	1766.658127375794	465
1	2439	1768.606623275514	466
1	2444	1772.395479352622	467
1	2446	1774.332963244348	468
1	2449	1777.231552371419	469
1	2451	1778.826190138181	470
1	2453	1780.534744736915	471
1	2455	1781.168002845825	472
1	2462	1785.721381312958	473
1	2464	1786.376975220256	474
1	2466	1787.184736675019	475
1	2469	1788.92159615462	476
1	2471	1789.14433901361	477
1	2478	1800.857324766478	478
1	2480	1801.775689598277	479
1	2482	1802.363097695196	480
1	2484	1804.641915450888	481
1	2486	1805.298012484273	482
1	2488	1806.666678346741	483
1	2490	1807.183608088958	484
1	2492	1807.461690048178	485
1	2494	1808.329944721451	486
1	2498	1817.047046641728	487
1	2500	1818.041818439602	488
1	2503	1821.070593468562	489
1	2505	1821.767263445641	490
1	2507	1825.166922171412	491
1	2509	1826.839361308503	492
1	2511	1827.038313847445	493
1	2514	1830.647605972788	494
1	2516	1832.980949433625	495
1	2518	1835.180096560522	496
1	2520	1839.019835507447	497
1	2522	1841.997483216748	498
1	2524	1843.303066691574	499
1	2526	1847.58094772392	500
1	2529	1849.877312814886	501
1	2531	1852.685816311952	502
1	2533	1855.361330481861	503
1	2537	1863.440672524591	504
1	2539	1865.949524461633	505
1	2541	1866.690147382722	506
1	2543	1866.95612910475	507
1	2545	1868.288357836215	508
1	2547	1871.308828676687	509
1	2550	1876.048704212131	510
1	2552	1876.883602664767	511
1	2554	1877.966402190146	512
1	2556	1879.465773087009	513
1	2558	1880.530335692416	514
1	2560	1885.626816186748	515
1	2562	1886.365405998186	516
1	2565	1891.761741635233	517
1	2567	1892.222080707508	518
1	2569	1896.593066130908	519
1	2571	1897.189427953506	520
1	2573	1898.245129467002	521
1	2576	1902.058753370833	522
1	2578	1905.704466330056	523
1	2580	1910.193313562957	524
1	2582	1911.99144765468	525
1	2584	1913.169745724595	526
1	2586	1913.938477903036	527
1	2589	1917.548001054411	528
1	2592	1920.42805366936	529
1	2594	1921.538264310811	530
1	2596	1931.883659257907	531
1	2598	1932.129816539447	532
1	2600	1933.240089453454	533
1	2602	1935.821087602153	534
1	2604	1936.801539209352	535
1	2606	1937.877395983014	536
1	2608	1940.844399031135	537
1	2610	1941.78034219676	538
1	2612	1944.056495785594	539
1	2614	1944.200492928881	540
1	2616	1946.023563838666	541
1	2618	1947.53883171644	542
1	2620	1948.592269627586	543
1	2624	1957.222315854522	544
1	2626	1960.765416208088	545
1	2628	1962.377265210755	546
1	2630	1965.085721296682	547
1	2632	1966.230240031188	548
1	2634	1966.904006675467	549
1	2636	1969.569863779232	550
1	2638	1970.368450177818	551
1	2640	1970.776534547479	552
1	2642	1972.412727005375	553
1	2644	1972.424163042593	554
1	2646	1972.509583965115	555
1	2650	1976.077967167774	556
1	2652	1976.302999531291	557
1	2658	1981.426385383304	558
1	2660	1983.94576634012	559
1	2662	1984.991695885974	560
1	2664	1988.308128063356	561
1	2666	1995.709110604959	562
1	2668	1996.644743421628	563
1	2670	1996.83992348177	564
1	2672	1999.385878219508	565
1	2674	2000.894848783053	566
1	2676	2001.349985750781	567
1	2678	2002.171316598683	568
1	2682	2006.181019530057	569
1	2684	2006.849894038569	570
1	2686	2008.341918288326	571
1	2690	2012.840155810753	572
1	2692	2016.688536541699	573
1	2694	2016.76029341667	574
1	2696	2017.0419362472	575
1	2698	2024.15018001441	576
1	2704	2026.419610623003	577
1	2706	2030.22410931921	578
1	2708	2035.158340542376	579
1	2710	2035.305408591641	580
1	2712	2035.572657768235	581
1	2714	2040.645339186392	582
1	2716	2042.651486968701	583
1	2720	2050.565696489084	584
1	2722	2051.198154378433	585
1	2724	2053.353873708348	586
1	2726	2053.830012772961	587
1	2728	2054.280417349501	588
1	2730	2055.286148976046	589
1	2732	2057.116224141214	590
1	2734	2057.242822841104	591
1	2738	2062.829903530237	592
1	2742	2065.974855790593	593
1	2744	2067.045226709774	594
1	2746	2068.241010344334	595
1	2748	2068.255431674969	596
1	2750	2069.571796746897	597
1	2752	2073.438363934745	598
1	2754	2075.804491548901	599
1	2758	2076.949591343961	600
1	2762	2077.989912925297	601
1	2764	2079.717298970582	602
1	2766	2080.771333733683	603
1	2768	2080.925762454204	604
1	2770	2080.942014627346	605
1	2772	2082.468673930771	606
1	2774	2083.062146661388	607
1	2776	2084.894157837032	608
1	2778	2086.635639586267	609
1	2780	2088.566041311045	610
1	2782	2090.308087176242	611
1	2785	2093.051646944163	612
1	2787	2095.841440509226	613
1	2789	2096.911443730501	614
1	2791	2097.027669449256	615
1	2795	2103.34647548851	616
1	2797	2104.043663377701	617
1	2799	2105.134054313759	618
1	2801	2113.148647449152	619
1	2803	2116.180131304909	620
1	2805	2116.350013294353	621
1	2807	2116.509818221995	622
1	2809	2116.53478632278	623
1	2811	2122.630812175937	624
1	2813	2123.437804055577	625
1	2815	2123.517615216361	626
1	2817	2126.577872731407	627
1	2820	2134.433425405469	628
1	2822	2136.748537613195	629
1	2824	2137.821743051394	630
1	2826	2138.970225734909	631
1	2828	2140.73677603685	632
1	2830	2141.619281239021	633
1	2832	2143.497387632275	634
1	2834	2143.623618193165	635
1	2836	2145.835933515444	636
1	2838	2146.062395376584	637
1	2840	2146.238685584686	638
1	2844	2149.720866590806	639
1	2848	2153.277661315485	640
1	2850	2155.841326629387	641
1	2852	2156.088444685307	642
1	2854	2157.845053008816	643
1	2858	2161.048145486771	644
1	2860	2162.825491181989	645
1	2862	2164.119405588144	646
1	2864	2164.140632675827	647
1	2866	2164.863995443028	648
1	2868	2166.232806141856	649
1	2870	2167.543512783653	650
1	2872	2173.120751945231	651
1	2874	2173.175030937497	652
1	2876	2173.859412342471	653
1	2878	2177.959861613485	654
1	2881	2178.490859381215	655
1	2883	2179.170961112288	656
1	2887	2180.942743948069	657
1	2889	2185.053695858643	658
1	2891	2187.114308292998	659
1	2893	2191.98506606341	660
1	2895	2192.178273547931	661
1	2897	2194.494528666087	662
1	2899	2195.848245779389	663
1	2903	2198.009304097299	664
1	2905	2198.094631087297	665
1	2907	2204.763541412136	666
1	2909	2204.913179708114	667
1	2911	2204.992839229928	668
1	2915	2213.092021909159	669
1	2917	2216.848294146567	670
1	2919	2218.09739987427	671
1	2921	2220.62381579655	672
1	2923	2222.801321580066	673
1	2925	2223.475675478072	674
1	2927	2223.493131536091	675
1	2929	2224.095884750795	676
1	2931	2224.783429054036	677
1	2933	2224.901324880293	678
1	2936	2230.573318402884	679
1	2938	2235.168545125882	680
1	2940	2237.638615068675	681
1	2942	2238.206960839263	682
1	2944	2239.153609191039	683
1	2946	2239.688623548079	684
1	2948	2241.44893973128	685
1	2950	2241.876149060744	686
1	2953	2246.211711277518	687
1	2955	2248.369217266501	688
1	2957	2248.53092395945	689
1	2962	2269.204564108811	690
1	2966	2270.792026813357	691
1	2968	2272.416155837553	692
1	2970	2273.697235490142	693
1	2974	2274.306998704886	694
1	2976	2278.756238471455	695
1	2978	2279.16447322268	696
1	2980	2279.583791241702	697
1	2982	2280.994202682741	698
1	2984	2281.851609747752	699
1	2986	2286.500527234445	700
1	2988	2288.4634579467	701
1	2990	2289.634213739968	702
1	2992	2290.397965240717	703
1	2994	2291.344683675237	704
1	2997	2294.401956286523	705
1	2999	2295.174376491113	706
1	3001	2295.42773656835	707
1	3003	2299.18532032348	708
1	3005	2301.251668468584	709
1	3007	2303.174760892712	710
1	3010	2315.486057630067	711
1	3012	2319.321850953461	712
1	3014	2321.429430972236	713
1	3016	2322.758512927972	714
1	3018	2325.944621963176	715
1	3020	2328.320564830923	716
1	3022	2328.825656731449	717
1	3024	2329.598737197798	718
1	3026	2332.554994251036	719
1	3031	2333.540489638543	720
1	3033	2334.277024532663	721
1	3035	2335.315041991098	722
1	3037	2335.781470490298	723
1	3039	2340.368215122829	724
1	3041	2341.536345130957	725
1	3043	2342.18150784635	726
1	3045	2344.895055809135	727
1	3047	2347.46877042551	728
1	3049	2348.932223549564	729
1	3051	2354.21852485772	730
1	3053	2354.382555897089	731
1	3055	2358.421939575835	732
1	3057	2359.579025801638	733
1	3059	2359.836093495381	734
1	3061	2365.238010253929	735
1	3063	2365.566329953933	736
1	3067	2370.36401620558	737
1	3069	2370.735232719338	738
1	3071	2373.050875462023	739
1	3073	2373.146144003998	740
1	3075	2373.654074392142	741
1	3077	2375.858854307903	742
1	3079	2380.812348197921	743
1	3081	2385.666610642444	744
1	3085	2391.798009068446	745
1	3087	2392.514570519963	746
1	3089	2395.348209063001	747
1	3091	2395.432563348872	748
1	3093	2396.616849823822	749
1	3095	2398.721512851252	750
1	3099	2401.261064597467	751
1	3101	2401.373355456863	752
1	3104	2402.304579054592	753
1	3106	2403.839094925324	754
1	3108	2404.641113489222	755
1	3110	2405.787407975018	756
1	3113	2407.230741275016	757
1	3115	2408.355515591349	758
1	3117	2408.955789686738	759
1	3119	2412.295805606077	760
1	3121	2416.596487259793	761
1	3123	2418.223174626725	762
1	3125	2422.839061660828	763
1	3127	2429.317501682001	764
1	3129	2431.135569729593	765
1	3131	2432.435326462342	766
1	3133	2433.012583477683	767
1	3135	2433.174305727926	768
1	3137	2435.88562220242	769
1	3139	2439.484993944236	770
1	3141	2439.789253467203	771
1	3143	2440.287096485631	772
1	3145	2441.086484039917	773
1	3147	2443.412055975502	774
1	3149	2443.799903508839	775
1	3151	2443.881753948873	776
1	3153	2444.849148055736	777
1	3155	2445.291348673237	778
1	3157	2445.467016250613	779
1	3159	2446.599865319553	780
1	3163	2450.765017596397	781
1	3171	2458.159889235068	782
1	3173	2460.245286697437	783
1	3176	2460.67413144418	784
1	3178	2461.378790801556	785
1	3180	2462.231284001006	786
1	3182	2462.844518267354	787
1	3184	2463.15892608418	788
1	3186	2463.271359888326	789
1	3188	2471.80779719176	790
1	3190	2473.290601446978	791
1	3192	2474.840082115337	792
1	3194	2480.157813525942	793
1	3198	2483.769031729455	794
1	3200	2485.198281528129	795
1	3202	2488.439543298742	796
1	3204	2489.898629248756	797
1	3206	2491.471016392379	798
1	3210	2491.983464305138	799
1	3212	2491.992512858694	800
1	3214	2495.650678526978	801
1	3216	2498.447283582462	802
1	3218	2499.737305029895	803
1	3220	2499.744487321385	804
2	467	353.56430443218	99
2	470	356.060488371875	100
2	471	356.474549139372	101
2	472	356.947122913583	102
2	473	358.145440102873	103
2	474	358.158687144065	104
2	477	359.507872255651	105
2	478	360.856501495638	106
2	479	360.878773210166	107
2	480	361.19504042241	108
2	481	361.559389944864	109
2	482	361.865962833962	110
2	485	363.790944252433	111
2	488	364.318552344621	112
2	489	365.727298087557	113
2	490	365.797875886657	114
2	491	365.804853426345	115
2	492	366.66274094137	116
2	493	367.979920973799	117
2	494	368.081516136228	118
2	495	368.172576848818	119
2	496	370.609498183642	120
2	499	370.940509800541	121
2	500	371.133224824251	122
2	505	373.206413670523	123
2	508	374.519952480513	124
2	509	374.805592155749	125
2	510	375.376671712265	126
2	511	375.94451158416	127
2	512	375.957178559619	128
2	513	376.253264682234	129
2	516	376.546305832455	130
2	521	378.147086786107	131
2	522	378.72738563892	132
2	523	380.106722090623	133
2	524	380.253588888	134
2	525	380.400162348934	135
2	526	380.712115456064	136
2	529	381.120221513313	137
2	530	381.467415011754	138
2	531	381.493473072571	139
2	532	382.139245155966	140
2	535	383.554739987131	141
2	538	384.884040563366	142
2	541	387.483947140236	143
2	548	390.528305082204	144
2	549	391.5985473034	145
2	550	391.83608380261	146
2	551	392.129357513874	147
2	554	397.728712831834	148
2	555	398.189635016099	149
2	564	400.811060549418	150
2	565	401.894303061721	151
2	566	402.035679536475	152
2	567	402.836120790698	153
2	568	403.537016263096	154
2	569	404.054962131049	155
2	570	404.377748612671	156
2	571	404.419445679911	157
2	574	406.845128198158	158
2	577	407.890435018482	159
2	578	408.069468672155	160
2	579	408.18213781399	161
2	580	408.476403476783	162
2	581	411.353550850459	163
2	584	412.569025274697	164
2	585	413.407652173247	165
2	586	414.017178659249	166
2	591	416.906408524681	167
2	592	416.970381840372	168
2	593	417.057097397634	169
2	594	418.314266758587	170
2	599	420.164126679584	171
2	600	421.958416212065	172
2	603	422.239518617452	173
2	604	422.646314307362	174
2	605	422.99125521532	175
2	606	423.48646250891	176
2	607	423.568882318383	177
2	608	424.208106445819	178
2	609	424.512240957399	179
2	612	425.821481359783	180
2	613	425.990722490293	181
2	614	426.502293926539	182
2	615	426.755169068625	183
2	618	428.050351781651	184
2	619	428.187358298836	185
2	622	429.304881713947	186
2	625	429.547729357354	187
2	654	445.503529834369	188
2	657	446.414998351046	189
2	658	447.27350599481	190
2	663	449.447548496929	191
2	666	450.370112615824	192
2	669	450.512369744106	193
2	670	451.95551901445	194
2	681	454.969954557447	195
2	682	455.017447344399	196
2	685	456.708791338482	197
2	686	457.310675236096	198
2	689	457.64039558789	199
2	692	460.226523318739	200
2	695	462.456087940862	201
2	696	463.500296681894	202
2	701	464.269145480127	203
2	702	465.682993184908	204
2	703	466.329507653664	205
2	783	527.28204537515	206
2	786	529.206373566094	207
2	791	530.084813368111	208
2	792	530.168523767799	209
2	795	530.955133391465	210
2	796	533.236207626064	211
2	797	533.835323334498	212
2	798	533.880396535947	213
2	799	534.410134008028	214
2	805	538.852666870506	215
2	806	539.604824977378	216
2	807	541.35620937369	217
2	808	541.496082858257	218
2	809	541.636710379723	219
2	810	543.432451144463	220
2	811	543.765693643425	221
2	812	543.957058607916	222
2	813	544.019874519197	223
2	814	544.490601250619	224
2	815	546.572345892979	225
2	816	546.809048773734	226
2	819	547.721532034273	227
2	822	548.876327900191	228
2	827	549.360853619253	229
2	828	549.984894142082	230
2	829	551.802586587418	231
2	830	553.154438110623	232
2	867	584.368468496787	233
2	870	587.347462479519	234
2	871	587.461323512273	235
2	872	587.853598024226	236
2	873	588.054458882069	237
2	877	591.501853472799	238
2	878	592.113247240421	239
2	879	592.306885317018	240
2	882	595.315892014338	241
2	883	596.091683991315	242
2	884	596.235633676336	243
2	885	596.310885701471	244
2	886	596.488265170888	245
2	887	596.762975124387	246
2	890	596.91353866726	247
2	893	597.3564029255	248
2	894	598.386134606322	249
2	895	598.604549522848	250
2	898	600.346176451881	251
2	899	600.857877531611	252
2	900	602.186217466511	253
2	905	602.416936173163	254
2	906	602.917392776081	255
2	907	602.946306369491	256
2	914	606.108031522207	257
2	917	607.201371078707	258
2	966	650.115006763557	259
2	967	650.22373524671	260
2	968	651.893286398715	261
2	969	652.799695242521	262
2	970	652.937495264847	263
2	971	652.999449828975	264
2	974	656.192045012994	265
2	975	657.249297396615	266
2	976	657.949929235022	267
2	981	661.289546844642	268
2	984	661.639546234132	269
2	987	662.140275282203	270
2	988	662.403171982035	271
2	991	665.159485127756	272
2	992	665.191900023124	273
2	993	665.581568313581	274
2	994	665.709689321373	275
2	1001	666.539057701794	276
2	1004	667.817083262781	277
2	1013	669.476936385507	278
2	1014	669.623474769158	279
2	1015	671.757097808295	280
2	1016	672.504066931576	281
2	1017	672.900976355906	282
2	1018	673.736856901145	283
2	1019	673.742413142549	284
2	1025	682.717225414886	285
2	1028	684.733911034781	286
2	1029	685.475037545199	287
2	1030	685.666706790835	288
2	1035	686.202288330948	289
2	1036	686.205686824309	290
2	1039	686.641665913519	291
2	1040	686.884060709637	292
2	1041	687.375338744925	293
2	1042	687.618197768606	294
2	1045	688.38884092586	295
2	1048	691.185437568486	296
2	1049	691.203893515482	297
2	1062	695.266908003598	298
2	1071	697.009033246507	299
2	1074	699.041716931232	300
2	1075	699.12897996809	301
2	1078	700.448420513764	302
2	1079	700.676121044916	303
2	1080	700.888331565714	304
2	1081	701.27764802961	305
2	1088	703.104076857642	306
2	1091	704.34861754867	307
2	1094	705.148116305107	308
2	1099	705.71101436389	309
2	1102	708.984814316095	310
2	1103	709.592272287029	311
2	1104	710.330816317461	312
2	1105	711.890141333261	313
2	1106	712.450222798461	314
2	1107	713.13253194944	315
2	1108	713.940829798696	316
2	1109	714.095417003186	317
2	1112	714.542191845027	318
2	1115	715.322045904596	319
2	1116	715.791672810324	320
2	1119	716.316787116254	321
2	1120	717.036297949239	322
2	1123	717.465756714103	323
2	1124	717.567600805668	324
2	1127	718.568721900252	325
2	1128	719.767797685188	326
2	1129	720.49314321635	327
2	1130	720.526782140518	328
2	1131	720.824244584906	329
2	1132	721.999422091854	330
2	1133	723.054593807213	331
2	1138	725.087237090669	332
2	1139	725.101104096306	333
2	1140	725.31216500249	334
2	1141	725.817644156165	335
2	1144	727.360399421127	336
2	1145	727.691253457499	337
2	1146	728.230317056553	338
2	1149	729.205961869509	339
2	1150	729.887550403593	340
2	1151	729.922106891823	341
2	1156	730.916337378447	342
2	1165	736.364470060149	343
2	1166	736.493898327908	344
2	1169	737.590225696095	345
2	1170	737.874074691679	346
2	1171	740.54768079291	347
2	1172	741.498800246448	348
2	1173	741.555295587329	349
2	1176	743.023280584538	350
2	1179	743.824461674654	351
2	1190	749.471836945899	352
2	1191	749.70207145143	353
2	1192	750.155725512651	354
2	1197	753.139518651407	355
2	1198	753.192928911019	356
2	1199	753.719017791042	357
2	1202	754.808322181149	358
2	1203	755.024284106984	359
2	1206	755.287882087259	360
2	1207	755.659567057679	361
2	1208	756.764298587586	362
2	1209	760.832566899522	363
2	1210	761.128464371643	364
2	1213	761.29954557308	365
2	1216	761.79962850629	366
2	1217	762.583242762363	367
2	1218	763.125569203028	368
2	1219	763.788301351618	369
2	1220	763.994142058898	370
2	1294	830.545973626513	371
2	1295	831.75882772866	372
2	1296	831.804516691157	373
2	1303	834.176111627373	374
2	1304	834.466819878781	375
2	1305	834.741322648964	376
2	1310	837.995563857588	377
2	1311	838.152343683267	378
2	1314	839.220498079344	379
2	1315	839.242595832358	380
2	1318	841.247487715669	381
2	1323	842.29807742115	382
2	1324	843.099721463125	383
2	1329	843.466153054611	384
2	1332	843.915064621235	385
2	1335	845.775233452867	386
2	1336	847.684256438186	387
2	1352	858.640105692483	388
2	1353	858.789538882961	389
2	1356	859.837578028594	390
2	1357	859.976229209305	391
2	1358	860.810249579021	392
2	1359	861.9613660749	393
2	1360	862.017573001354	394
2	1361	862.516217168628	395
2	1362	864.265821411704	396
2	1363	864.810944245748	397
2	1366	866.22983690143	398
2	1371	868.192070030494	399
2	1374	869.429999387295	400
2	1375	870.383292236917	401
2	1936	1356.438303583888	402
2	1937	1356.592757190091	403
2	1938	1357.010896382777	404
2	1939	1357.833698595937	405
2	1940	1358.15627951869	406
2	1943	1360.869605326869	407
2	1944	1361.004447993073	408
2	1947	1361.426476427404	409
2	1948	1361.951484589613	410
2	1949	1362.105157432215	411
2	1950	1363.391502679455	412
2	1951	1363.603574183614	413
2	1954	1365.522848283036	414
2	1955	1365.864967261022	415
2	1956	1367.000664397181	416
2	1957	1368.879831723693	417
2	1958	1368.942599040329	418
2	1959	1369.315591823815	419
2	1966	1372.474783996111	420
3	467	353.56430443218	152.44171524986
3	470	356.060488371875	151.08966840218
3	471	356.474549139372	150.39037211696
3	472	356.947122913583	150.75554346895
3	473	358.145440102873	147.10160444022
3	474	358.158687144065	146.28209057321
3	477	359.507872255651	147.57229982156
3	478	360.856501495638	146.28483530341
3	479	360.878773210166	143.62940482156
3	480	361.19504042241	143.28472927578
3	481	361.559389944864	141.32909684218
3	482	361.865962833962	140.46657820777
3	485	363.790944252433	136.32047516624
3	488	364.318552344621	136.03120032233
3	489	365.727298087557	135.49141293832
3	490	365.797875886657	135.36277247846
3	491	365.804853426345	128.37030890193
3	492	366.66274094137	128.77774680224
3	493	367.979920973799	129.4731954974
3	494	368.081516136228	127.42106784304
3	495	368.172576848818	124.01012800128
3	496	370.609498183642	123.73991027426
3	499	370.940509800541	123.90316348299
[...]
4	1314	839.220498079344	89.01181831206
4	1315	839.242595832358	88.598894466505
4	1318	841.247487715669	86.933948289548
4	1323	842.29807742115	87.158157266737
4	1324	843.099721463125	81.88153185824
4	1329	843.466153054611	82.135265908778
4	1332	843.915064621235	79.444559716129
4	1335	845.775233452867	80.76436060613
4	1336	847.684256438186	81.794534211687
4	1351	858.318366928618	88.826000344432
4	1352	858.640105692483	84.327951373031
4	1353	858.789538882961	81.601622790532
4	1356	859.837578028594	78.404044827937
4	1357	859.976229209305	74.201618416514
4	1358	860.810249579021	73.205183713833
4	1359	861.9613660749	74.328672301643
4	1360	862.017573001354	70.205030872522
4	1361	862.516217168628	69.69058709407
4	1362	864.265821411704	71.159702765705
4	1363	864.810944245748	68.826964923292
4	1366	866.22983690143	68.91436622839
4	1371	868.192070030494	69.24415635869
4	1374	869.429999387295	68.695632432708
4	1375	870.383292236917	64.353661177842
4	1935	1356.145081881974	548.29734034895
4	1936	1356.438303583888	548.17799237833
4	1937	1356.592757190091	543.31024022555
4	1938	1357.010896382777	542.20763605101
4	1939	1357.833698595937	539.45310093078
4	1940	1358.15627951869	537.95131420596
4	1943	1360.869605326869	540.19188270424
4	1944	1361.004447993073	537.75356241978
4	1947	1361.426476427404	537.79026092072
4	1948	1361.951484589613	538.27088089185
4	1949	1362.105157432215	537.96471391383
4	1950	1363.391502679455	538.82512051966
4	1951	1363.603574183614	531.63762230185
4	1954	1365.522848283036	531.54732039054
4	1955	1365.864967261022	531.79177972412
4	1956	1367.000664397181	529.5819266828
4	1957	1368.879831723693	531.13268185495
4	1958	1368.942599040329	529.98358716512
4	1959	1369.315591823815	528.14957145497
4	1966	1372.474783996111	530.78903980443
5	627	429.805982642391	1
5	629	430.916857740633	2
5	705	466.653881971489	1
5	721	480.389168178264	2
5	727	484.948397214337	3
5	758	512.001023992162	3
5	761	514.879586108997	3
5	801	535.130219618578	1
5	834	554.221217929245	1
5	850	570.767783391724	2
5	875	588.745989415819	1
5	919	607.322329357257	1
5	939	628.022716239493	2
5	1021	674.775076348193	1
5	1222	764.470504905106	1
5	1232	774.960595730851	2
5	1238	783.124851826298	3
5	1246	791.721574633861	4
5	1291	824.780890083904	2
5	1340	848.692955585837	1
5	1377	870.921734785184	1
5	1391	879.673987701764	2
5	1404	895.123859609024	2
5	1406	897.087892095928	3
5	1408	898.52874520143	4
5	1416	902.91848991985	5
5	1419	904.793744658038	5
5	1421	905.939782639788	6
5	1461	947.021854286984	5
5	1507	987.453075687167	4
5	1523	1005.189367569506	5
5	1544	1023.320450005643	5
5	1546	1024.913558464395	6
5	1550	1031.671513355563	7
5	1562	1040.106693722765	6
5	1565	1046.858083196316	6
5	1582	1055.983033979393	4
5	1648	1125.834444860383	3
5	1650	1126.073229754912	4
5	1656	1130.022379586988	5
5	1668	1141.684305339612	4
5	1683	1151.943478581168	4
5	1685	1153.044067096581	5
5	1718	1171.972828433619	5
5	1740	1194.303568463282	4
5	1775	1213.120390775644	2
5	1777	1213.776412320688	3
5	1804	1242.965419129603	3
5	1818	1252.671518180385	4
5	1832	1260.25153521397	5
5	1867	1295.012015674614	5
5	1898	1327.222139794696	3
5	1968	1372.895957883817	1
5	1982	1381.917485442831	2
5	1992	1389.920731222985	3
5	2000	1392.698472785622	4
5	2002	1394.746713787062	5
5	2054	1432.553521227889	6
5	2058	1436.728348757593	7
5	2060	1439.464295754499	8
5	2066	1443.061154915565	9
5	2095	1470.841717359854	9
5	2191	1526.219174686146	6
5	2208	1541.672132057119	6
5	2292	1630.679673971452	5
5	2322	1655.103665596055	6
5	2328	1657.053844268986	7
5	2334	1659.651746286242	8
5	2340	1665.733231704901	9
5	2384	1721.3251219319	10
5	2386	1724.171842528881	11
5	2388	1726.073576885084	12
5	2419	1751.590492483728	12
5	2437	1767.158865982002	13
5	2441	1771.406341330737	14
5	2457	1783.417919866976	13
5	2459	1783.722003023927	14
5	2473	1791.971053425055	13
5	2476	1795.316317058822	13
5	2496	1809.741195744578	14
5	2535	1856.116173852789	12
5	2622	1955.565590503443	8
5	2648	1974.625094548522	9
5	2654	1977.29678444029	10
5	2656	1979.329242199321	11
5	2680	2006.126563464277	12
5	2688	2009.768996666181	13
5	2700	2024.933254232398	14
5	2702	2025.029423131321	15
5	2718	2047.149323694852	16
5	2736	2059.631904285061	17
5	2756	2076.523648562165	16
5	2760	2077.975665000054	17
5	2793	2101.625901507583	17
5	2842	2149.373686329546	17
5	2846	2153.118579912666	18
5	2856	2159.544133062312	19
5	2885	2179.996831832368	19
5	2901	2197.398710182264	20
5	2913	2205.942543528282	21
5	2959	2251.306218299661	20
5	2964	2270.38284243292	20
5	2972	2273.847229097608	21
5	3028	2332.685519984248	20
5	3065	2366.358492865929	20
5	3083	2389.953426147872	21
5	3097	2400.252778801939	22
5	3161	2447.619588604821	21
5	3165	2452.902374295182	22
5	3167	2454.586400927438	23
5	3169	2457.141402415183	24
5	3196	2483.620657694845	24
5	3208	2491.727201881822	25
6	627	429.805982642391	0
6	629	430.916857740633	1
6	642	439.585180166118	1
6	653	444.415792961414	0
6	705	466.653881971489	0
6	721	480.389168178264	1
6	727	484.948397214337	2
6	746	493.859332512811	2
6	758	512.001023992162	2
6	759	512.388335706114	2
6	761	514.879586108997	2
6	770	519.029111704764	2
6	771	519.11138347022	1
6	782	526.07635430022	0
6	801	535.130219618578	0
6	802	535.540669196267	0
6	834	554.221217929245	0
6	850	570.767783391724	1
6	851	571.28711008271	1
6	866	584.10391793435	0
6	875	588.745989415819	0
6	876	589.711408861939	0
6	919	607.322329357257	0
6	939	628.022716239493	1
6	950	639.553084962215	1
6	965	649.343637342744	0
6	1021	674.775076348193	0
6	1024	680.5964806426	0
6	1222	764.470504905106	0
6	1232	774.960595730851	1
6	1238	783.124851826298	2
6	1246	791.721574633861	3
6	1259	800.455508499559	3
6	1268	809.169641216017	2
6	1285	823.893535464239	1
6	1291	824.780890083904	1
6	1292	826.554198758649	1
6	1293	829.282611930202	0
6	1340	848.692955585837	0
6	1351	858.318366928618	0
6	1377	870.921734785184	0
6	1391	879.673987701764	1
6	1394	881.642000440782	1
6	1404	895.123859609024	1
6	1406	897.087892095928	2
6	1408	898.52874520143	3
6	1416	902.91848991985	4
6	1417	903.234750952593	4
6	1419	904.793744658038	4
6	1421	905.939782639788	5
6	1450	937.62243688662	5
6	1453	943.177675561119	4
6	1461	947.021854286984	4
6	1464	951.629378158048	4
6	1475	962.624093463913	3
6	1507	987.453075687167	3
6	1523	1005.189367569506	4
6	1534	1012.130880141866	4
6	1544	1023.320450005643	4
6	1546	1024.913558464395	5
6	1550	1031.671513355563	6
6	1557	1035.863953507929	6
6	1560	1040.015440364124	5
6	1562	1040.106693722765	5
6	1563	1046.346120432467	5
6	1565	1046.858083196316	5
6	1566	1046.900470520435	5
6	1575	1050.213459614276	4
6	1580	1055.628212093906	3
6	1582	1055.983033979393	3
6	1597	1075.146081656214	3
6	1624	1100.588016626879	2
6	1648	1125.834444860383	2
6	1650	1126.073229754912	3
6	1656	1130.022379586988	4
6	1663	1134.725502146598	4
6	1666	1140.998360982209	3
6	1668	1141.684305339612	3
6	1669	1142.97696141689	3
6	1683	1151.943478581168	3
6	1685	1153.044067096581	4
6	1698	1159.688646610641	4
6	1718	1171.972828433619	4
6	1719	1173.934203182898	4
6	1738	1193.817533749665	3
6	1740	1194.303568463282	3
6	1747	1198.542217796438	3
6	1752	1203.321646982138	2
6	1753	1203.728291661086	1
6	1775	1213.120390775644	1
6	1777	1213.776412320688	2
6	1784	1230.529972233031	2
6	1804	1242.965419129603	2
6	1818	1252.671518180385	3
6	1832	1260.25153521397	4
6	1863	1289.460252613026	4
6	1867	1295.012015674614	4
6	1874	1297.978716469499	4
6	1883	1305.233961221696	3
6	1888	1313.091564917307	2
6	1898	1327.222139794696	2
6	1909	1338.013457288155	2
6	1920	1345.641144976435	1
6	1935	1356.145081881974	0
6	1968	1372.895957883817	0
6	1982	1381.917485442831	1
6	1992	1389.920731222985	2
6	2000	1392.698472785622	3
6	2002	1394.746713787062	4
6	2054	1432.553521227889	5
6	2058	1436.728348757593	6
6	2060	1439.464295754499	7
6	2066	1443.061154915565	8
6	2067	1444.15844793409	8
6	2095	1470.841717359854	8
6	2152	1501.640981186122	8
6	2155	1504.077952724557	7
6	2158	1506.781122376466	6
6	2173	1514.829709015157	5
6	2191	1526.219174686146	5
6	2196	1533.069906140545	5
6	2208	1541.672132057119	5
6	2273	1609.742340149562	5
6	2288	1627.559181681443	4
6	2292	1630.679673971452	4
6	2322	1655.103665596055	5
6	2328	1657.053844268986	6
6	2334	1659.651746286242	7
6	2340	1665.733231704901	8
6	2384	1721.3251219319	9
6	2386	1724.171842528881	10
6	2388	1726.073576885084	11
6	2405	1744.545438728182	11
6	2419	1751.590492483728	11
6	2437	1767.158865982002	12
6	2441	1771.406341330737	13
6	2442	1771.836428753479	13
6	2447	1775.826740958376	12
6	2457	1783.417919866976	12
6	2459	1783.722003023927	13
6	2460	1785.463207302848	13
6	2467	1788.462063163061	12
6	2473	1791.971053425055	12
6	2474	1793.891909331195	12
6	2476	1795.316317058822	12
6	2496	1809.741195744578	13
6	2501	1818.679170582934	13
6	2512	1827.081446968046	12
6	2527	1848.4815157372	11
6	2535	1856.116173852789	11
6	2548	1871.416632201975	11
6	2563	1890.311703245204	10
6	2574	1900.854907961116	9
6	2587	1914.713013666637	8
6	2590	1919.838850995964	7
6	2622	1955.565590503443	7
6	2648	1974.625094548522	8
6	2654	1977.29678444029	9
6	2656	1979.329242199321	10
6	2680	2006.126563464277	11
6	2688	2009.768996666181	12
6	2700	2024.933254232398	13
6	2702	2025.029423131321	14
6	2718	2047.149323694852	15
6	2736	2059.631904285061	16
6	2739	2063.914831076845	16
6	2740	2063.974256713643	15
6	2756	2076.523648562165	15
6	2760	2077.975665000054	16
6	2783	2090.873114996665	16
6	2793	2101.625901507583	16
6	2818	2133.03724054102	16
6	2842	2149.373686329546	16
6	2846	2153.118579912666	17
6	2856	2159.544133062312	18
6	2879	2178.399407436408	18
6	2885	2179.996831832368	18
6	2901	2197.398710182264	19
6	2913	2205.942543528282	20
6	2934	2227.874591883382	20
6	2951	2243.745691598506	19
6	2959	2251.306218299661	19
6	2960	2265.486183397051	19
6	2964	2270.38284243292	19
6	2972	2273.847229097608	20
6	2995	2293.735853088856	20
6	3008	2314.01961567901	19
6	3028	2332.685519984248	19
6	3029	2333.525979773975	19
6	3065	2366.358492865929	19
6	3083	2389.953426147872	20
6	3097	2400.252778801939	21
6	3102	2402.211828143126	21
6	3111	2406.85302632583	20
6	3161	2447.619588604821	20
6	3165	2452.902374295182	21
6	3167	2454.586400927438	22
6	3169	2457.141402415183	23
6	3174	2460.578227198977	23
6	3196	2483.620657694845	23
6	3208	2491.727201881822	24
7	627	429.805982642391	4
7	705	466.653881971489	5
7	801	535.130219618578	6
7	834	554.221217929245	7
7	875	588.745989415819	8
7	919	607.322329357257	9
7	1021	674.775076348193	10
7	1222	764.470504905106	11
7	1340	848.692955585837	12
7	1377	870.921734785184	13
7	1968	1372.895957883817	14
8	627	429.805982642391	0
8	642	439.585180166118	8.668322425485
8	705	466.653881971489	0
8	746	493.859332512811	13.470164334547
8	759	512.388335706114	27.439938491777
8	770	519.029111704764	7.028087712602
8	771	519.11138347022	4.231797361223
8	801	535.130219618578	0
8	834	554.221217929245	0
8	851	571.28711008271	0.519326690986
8	875	588.745989415819	0
8	919	607.322329357257	0
8	950	639.553084962215	11.530368722722
8	1021	674.775076348193	0
8	1222	764.470504905106	0
8	1259	800.455508499559	25.494912768708
8	1268	809.169641216017	26.044789389719
8	1285	823.893535464239	32.171960830378
8	1292	826.554198758649	1.773308674745
8	1340	848.692955585837	0
8	1377	870.921734785184	0
8	1394	881.642000440782	1.968012739018
8	1417	903.234750952593	8.110891343569
8	1450	937.62243688662	40.534544790692
8	1453	943.177675561119	44.648930359689
8	1464	951.629378158048	48.710888238198
8	1475	962.624093463913	57.830348805875
8	1534	1012.130880141866	106.19109750208
8	1557	1035.863953507929	88.842099220945
8	1560	1040.015440364124	52.562364676957
8	1563	1046.346120432467	41.156752862961
8	1566	1046.900470520435	23.580020514792
8	1575	1050.213459614276	25.299901149881
8	1580	1055.628212093906	23.956698738343
8	1597	1075.146081656214	35.039387933449
8	1624	1100.588016626879	53.729933430563
8	1663	1134.725502146598	78.742468167205
8	1666	1140.998360982209	15.163916121826
8	1669	1142.97696141689	16.903731661978
8	1698	1159.688646610641	29.666267023653
8	1719	1173.934203182898	32.249897843286
8	1738	1193.817533749665	41.874055168497
8	1747	1198.542217796438	45.498150699857
8	1752	1203.321646982138	31.348818548519
8	1753	1203.728291661086	9.424723197804
8	1784	1230.529972233031	17.409581457387
8	1863	1289.460252613026	75.683840292338
8	1874	1297.978716469499	55.013297339896
8	1883	1305.233961221696	52.562443041311
8	1888	1313.091564917307	52.840029703337
8	1909	1338.013457288155	43.001441613541
8	1920	1345.641144976435	18.419005181739
8	1968	1372.895957883817	0
8	2067	1444.15844793409	62.240962491259
8	2152	1501.640981186122	111.72024996314
8	2155	1504.077952724557	111.37947993893
8	2158	1506.781122376466	112.0344085894
8	2173	1514.829709015157	82.276187787268
8	2196	1533.069906140545	96.341557382952
8	2273	1609.742340149562	170.27804439506
8	2288	1627.559181681443	184.49802676588
8	2405	1744.545438728182	273.70372136833
8	2442	1771.836428753479	245.61725406733
8	2447	1775.826740958376	234.15460890126
8	2460	1785.463207302848	154.7835333314
8	2467	1788.462063163061	133.35839756701
8	2474	1793.891909331195	136.83806506221
8	2501	1818.679170582934	159.02742429669
8	2512	1827.081446968046	161.34821526314
8	2527	1848.4815157372	127.1563938053
8	2548	1871.416632201975	147.24478967309
8	2563	1890.311703245204	164.23812636012
8	2574	1900.854907961116	149.26441547739
8	2587	1914.713013666637	147.55414768463
8	2590	1919.838850995964	148.43250966523
8	2739	2063.914831076845	280.49691120987
8	2740	2063.974256713643	280.25225368972
8	2783	2090.873114996665	298.90206157161
8	2818	2133.03724054102	337.7209234822
8	2879	2178.399407436408	368.65821169183
8	2934	2227.874591883382	371.75841803059
8	2951	2243.745691598506	288.18010109506
8	2960	2265.486183397051	290.86108884853
8	2995	2293.735853088856	316.43906864857
8	3008	2314.01961567901	334.69037347969
8	3029	2333.525979773975	327.3994163097
8	3102	2402.211828143126	392.44283147695
8	3111	2406.85302632583	381.91977209343
8	3174	2460.578227198977	435.54880406766
9	642	439.585180166118	13
9	653	444.415792961414	14
9	746	493.859332512811	15
9	759	512.388335706114	16
9	770	519.029111704764	17
9	771	519.11138347022	18
9	782	526.07635430022	19
9	802	535.540669196267	20
9	851	571.28711008271	21
9	866	584.10391793435	22
9	876	589.711408861939	23
9	950	639.553084962215	24
9	965	649.343637342744	25
9	1024	680.5964806426	26
9	1259	800.455508499559	27
9	1268	809.169641216017	28
9	1285	823.893535464239	29
9	1292	826.554198758649	30
9	1293	829.282611930202	31
9	1351	858.318366928618	32
9	1394	881.642000440782	33
9	1417	903.234750952593	34
9	1450	937.62243688662	35
9	1453	943.177675561119	36
9	1464	951.629378158048	37
9	1475	962.624093463913	38
9	1534	1012.130880141866	39
9	1557	1035.863953507929	40
9	1560	1040.015440364124	41
9	1563	1046.346120432467	42
9	1566	1046.900470520435	43
9	1575	1050.213459614276	44
9	1580	1055.628212093906	45
9	1597	1075.146081656214	46
9	1624	1100.588016626879	47
9	1663	1134.725502146598	48
9	1666	1140.998360982209	49
9	1669	1142.97696141689	50
9	1698	1159.688646610641	51
9	1719	1173.934203182898	52
9	1738	1193.817533749665	53
9	1747	1198.542217796438	54
9	1752	1203.321646982138	55
9	1753	1203.728291661086	56
9	1784	1230.529972233031	57
9	1863	1289.460252613026	58
9	1874	1297.978716469499	59
9	1883	1305.233961221696	60
9	1888	1313.091564917307	61
9	1909	1338.013457288155	62
9	1920	1345.641144976435	63
9	1935	1356.145081881974	64
9	2067	1444.15844793409	65
9	2152	1501.640981186122	66
9	2155	1504.077952724557	67
9	2158	1506.781122376466	68
9	2173	1514.829709015157	69
9	2196	1533.069906140545	70
9	2273	1609.742340149562	71
9	2288	1627.559181681443	72
9	2405	1744.545438728182	73
9	2442	1771.836428753479	74
9	2447	1775.826740958376	75
9	2460	1785.463207302848	76
9	2467	1788.462063163061	77
9	2474	1793.891909331195	78
9	2501	1818.679170582934	79
9	2512	1827.081446968046	80
9	2527	1848.4815157372	81
9	2548	1871.416632201975	82
9	2563	1890.311703245204	83
9	2574	1900.854907961116	84
9	2587	1914.713013666637	85
9	2590	1919.838850995964	86
9	2739	2063.914831076845	87
9	2740	2063.974256713643	88
9	2783	2090.873114996665	89
9	2818	2133.03724054102	90
9	2879	2178.399407436408	91
9	2934	2227.874591883382	92
9	2951	2243.745691598506	93
9	2960	2265.486183397051	94
9	2995	2293.735853088856	95
9	3008	2314.01961567901	96
9	3029	2333.525979773975	97
9	3102	2402.211828143126	98
9	3111	2406.85302632583	99
9	3174	2460.578227198977	100
10	642	439.585180166118	9.779197523727
10	653	444.415792961414	13.498935220781
10	746	493.859332512811	27.205450541322
10	759	512.388335706114	31.99916752785
10	770	519.029111704764	34.080714490427
10	771	519.11138347022	7.110359478058
10	782	526.07635430022	11.196768191223
10	802	535.540669196267	0.410449577689
10	851	571.28711008271	17.065892153465
10	866	584.10391793435	13.336134542626
10	876	589.711408861939	0.96541944612
10	950	639.553084962215	32.230755604958
10	965	649.343637342744	21.320921103251
10	1024	680.5964806426	5.821404294407
10	1259	800.455508499559	35.985003594453
10	1268	809.169641216017	34.209045485166
10	1285	823.893535464239	40.768683637941
10	1292	826.554198758649	34.832624124788
10	1293	829.282611930202	4.501721846298
10	1351	858.318366928618	9.625411342781
10	1394	881.642000440782	10.720265655598
10	1417	903.234750952593	23.560763250829
10	1450	937.62243688662	42.498577277596
10	1453	943.177675561119	46.089783465191
10	1464	951.629378158048	53.100632956618
10	1475	962.624093463913	59.705603544063
10	1534	1012.130880141866	107.33713548383
10	1557	1035.863953507929	129.92417086814
10	1560	1040.015440364124	92.99358607714
10	1563	1046.346120432467	58.8930447453
10	1566	1046.900470520435	41.711102950929
10	1575	1050.213459614276	26.893009608633
10	1580	1055.628212093906	30.714653629511
10	1597	1075.146081656214	43.474568300651
10	1624	1100.588016626879	60.481322904114
10	1663	1134.725502146598	87.867418950282
10	1666	1140.998360982209	85.015327002816
10	1669	1142.97696141689	17.142516556507
10	1698	1159.688646610641	33.615416855729
10	1719	1173.934203182898	43.91182359591
10	1738	1193.817533749665	52.133228410053
10	1747	1198.542217796438	46.59873921527
10	1752	1203.321646982138	50.277579885557
10	1753	1203.728291661086	31.755463227467
10	1784	1230.529972233031	36.226403769749
10	1863	1289.460252613026	76.339861837382
10	1874	1297.978716469499	84.202304148811
10	1883	1305.233961221696	62.268542092093
10	1888	1313.091564917307	60.420046736922
10	1909	1338.013457288155	77.761922074185
10	1920	1345.641144976435	50.629129301821
10	1935	1356.145081881974	28.922942087278
10	2067	1444.15844793409	71.262490050273
10	2152	1501.640981186122	119.72349574329
10	2155	1504.077952724557	114.15722150157
10	2158	1506.781122376466	114.08264959084
10	2173	1514.829709015157	120.0829952281
10	2196	1533.069906140545	100.51638491266
10	2273	1609.742340149562	173.01399139197
10	2288	1627.559181681443	188.09488592694
10	2405	1744.545438728182	301.48428381262
10	2442	1771.836428753479	300.99471139362
10	2447	1775.826740958376	249.60756627223
10	2460	1785.463207302848	243.79107524573
10	2467	1788.462063163061	157.78238919161
10	2474	1793.891909331195	138.78824373514
10	2501	1818.679170582934	161.62532631395
10	2512	1827.081446968046	167.4297006818
10	2527	1848.4815157372	182.7482840323
10	2548	1871.416632201975	150.09151027007
10	2563	1890.311703245204	166.13986071632
10	2574	1900.854907961116	174.78133107603
10	2587	1914.713013666637	163.12252118291
10	2590	1919.838850995964	152.67998501396
10	2739	2063.914831076845	292.50848974611
10	2740	2063.974256713643	280.55633684667
10	2783	2090.873114996665	307.15111197274
10	2818	2133.03724054102	341.06618711596
10	2879	2178.399407436408	383.08309037759
10	2934	2227.874591883382	418.1333961388
10	2951	2243.745691598506	387.62951774572
10	2960	2265.486183397051	309.92059289361
10	2995	2293.735853088856	319.11075854033
10	3008	2314.01961567901	336.72283123872
10	3029	2333.525979773975	354.19673757465
10	3102	2402.211828143126	396.08526467885
10	3111	2406.85302632583	397.08402965965
10	3174	2460.578227198977	435.64497296658
11	3221	2500	0.168
12	3221	2500	0.04

