version 2
run factors_calibration_bosses-295-20230303-16:36:57-9128
attr configname factors_calibration_bosses
attr datetime 20230303-16:36:57
attr experiment factors_calibration_bosses
attr inifile omnetpp.ini
attr iterationvars $0=30
attr iterationvarsf 30-
attr measurement $0=30
attr network Network
attr processid 9128
attr repetition 25
attr replication #25
attr resultdir results
attr runnumber 295
attr seedset 25
param *.minion.arrival_mean 2
param *.minion.service_mean 1
param *.boss.arrival_mean 20
param *.boss.service_mean 30
param *.player.recover_rate_x 100
param **.minion.arrival_distribution 0
param **.minion.service_distribution 0
param **.boss.arrival_distribution 0
param **.boss.service_distribution 0

vector 0 Network.player minion_jobs_number_stat:vector ETV
attr source signal_minion_jobs_number
vector 1 Network.player minion_jobs_queue_number_stat:vector ETV
attr source signal_minion_jobs_queue_number
vector 2 Network.player boss_defeated_stat:vector ETV
attr source signal_boss_defeated
vector 3 Network.player boss_jobs_queue_number_stat:vector ETV
attr source signal_boss_jobs_queue_number
vector 4 Network.player boss_response_time_stat:vector ETV
attr source signal_boss_response_time
vector 5 Network.player boss_waiting_time_stat:vector ETV
attr source signal_boss_waiting_time
vector 6 Network.player boss_jobs_number_stat:vector ETV
attr source signal_boss_jobs_number
vector 7 Network.player minion_throughput:vector ETV
attr source signal_minion_throughput
vector 8 Network.player boss_throughput:vector ETV
attr source signal_boss_throughput
0	467	350.142549661861	166
0	469	351.061590894461	167
0	471	353.111020891696	168
0	473	354.0059352795	169
0	475	354.452531419881	170
0	477	358.693366615062	171
0	480	360.837062812062	172
0	482	361.478967103779	173
0	485	364.491730145092	174
0	487	365.000434101238	175
0	489	368.025041964484	176
0	491	371.388770808912	177
0	493	373.273671434147	178
0	495	373.39359771025	179
0	497	374.132829617057	180
0	499	376.752633050417	181
0	501	379.145534802755	182
0	503	379.211984754749	183
0	505	383.138764915698	184
0	507	384.971282534112	185
0	509	386.934668510166	186
0	511	386.996702916293	187
0	513	395.077305212483	188
0	515	399.003894373522	189
0	517	406.505414640029	190
0	521	407.664264368695	191
0	523	408.028973398842	192
0	525	409.672956710048	193
0	527	409.71985865438	194
0	529	413.120830921563	195
0	531	413.471311228241	196
0	533	413.657749815206	197
0	536	418.798595915088	198
0	538	421.216484374786	199
0	540	427.355235595255	200
0	542	428.329363051826	201
0	544	428.803286267246	202
0	546	428.838438482789	203
0	548	429.732654771035	204
0	550	429.837277919578	205
0	552	431.431518625821	206
0	554	432.573631674039	207
0	556	433.208075484243	208
0	558	440.739066761562	209
0	560	441.973668517416	210
0	562	442.170622176446	211
0	564	444.55314055342	212
0	566	446.156920729012	213
0	568	447.544639164542	214
0	570	449.605256057224	215
0	574	452.123318146247	216
0	578	453.283864756585	217
0	580	454.776774734869	218
0	584	457.887373440334	219
0	586	457.890173437485	220
0	588	460.328058968666	221
0	590	461.33212205498	222
0	594	463.881330107077	223
0	596	465.236535234348	224
0	598	466.609977906925	225
0	600	467.641253373327	226
0	602	470.286732850792	227
0	604	471.161568142072	228
0	608	475.312985279244	229
0	610	476.701738426207	230
0	612	478.34324237755	231
0	615	479.521453313166	232
0	617	481.802915305452	233
0	619	481.992488070027	234
0	621	482.91158374843	235
0	623	483.550790553711	236
0	625	485.339500696058	237
0	630	491.085719497559	238
0	632	492.389970864988	239
0	634	492.443777493559	240
0	636	493.640966924321	241
0	638	493.722608188837	242
0	640	494.288780942981	243
0	642	494.954531372854	244
0	644	498.044613708293	245
0	646	499.790808840244	246
0	648	500.952375326315	247
0	651	510.349755631336	248
0	654	512.758515030351	249
0	660	522.582512775246	250
0	662	526.023955797798	251
0	666	535.981465391105	252
0	668	536.911053667842	253
0	670	537.14422990464	254
0	672	543.239297612534	255
0	675	545.423453642663	256
0	677	552.836304436616	257
0	679	554.320923974828	258
0	681	555.434430671177	259
0	683	555.814694404072	260
0	685	557.192737017418	261
0	688	562.920750673222	262
0	690	565.118885370938	263
0	692	565.672660034316	264
0	694	566.204807167568	265
0	699	579.889245061451	266
0	701	581.486354237371	267
0	703	583.234224366251	268
0	707	592.266967684906	269
0	709	592.671883158586	270
0	711	592.784487318638	271
0	713	593.762763743038	272
0	715	595.682242020123	273
0	717	596.102878151413	274
0	719	596.341190940053	275
0	721	597.399070575909	276
0	723	598.64067899284	277
0	725	600.446836108912	278
0	727	603.10190888999	279
0	731	605.623602659764	280
0	733	606.442796528835	281
0	735	607.77733236282	282
0	739	609.357246959627	283
0	741	610.098185735254	284
0	747	616.195655937687	285
0	749	617.918510094413	286
0	751	618.160935783328	287
0	753	619.326681427709	288
0	755	627.400790698711	289
0	757	628.29235922257	290
0	759	631.005013973458	291
0	761	631.780260207906	292
0	763	635.54897633354	293
0	765	636.015887498169	294
0	767	638.651368636184	295
0	769	639.851624704589	296
0	771	640.459208460611	297
0	773	641.813137731346	298
0	775	647.747396197629	299
0	779	652.334177580287	300
0	781	652.9642148092	301
0	785	655.578149709493	302
0	788	662.758329017962	303
0	790	665.698461739135	304
0	792	667.960634374901	305
0	794	668.902047703406	306
0	796	672.221401766526	307
0	798	673.063796810577	308
0	800	674.234425507802	309
0	802	676.363051369295	310
0	804	676.594414178982	311
0	806	679.077334285764	312
0	808	686.116783644076	313
0	810	686.357816732528	314
0	814	687.341431440567	315
0	816	687.626930226165	316
0	819	688.810058191576	317
0	821	690.027813865296	318
0	823	690.45211002139	319
0	825	690.800188858352	320
0	827	695.235947443474	321
0	829	701.757526784346	322
0	833	703.043300464511	323
0	835	706.678880142332	324
0	837	707.156358678455	325
0	839	708.624966656938	326
0	841	710.503825030224	327
0	843	710.9963225429	328
0	847	712.454714268745	329
0	851	712.744577889952	330
0	853	713.776123506177	331
0	857	721.509300375509	332
0	859	722.289527313167	333
0	862	724.744989552048	334
0	865	726.521244668113	335
0	867	730.453121223381	336
0	869	731.437722842444	337
0	871	732.417066828941	338
0	873	733.616196561297	339
0	875	734.193785999775	340
0	877	734.760956446746	341
0	879	735.472701321617	342
0	881	737.205698183684	343
0	885	741.094058786896	344
0	889	747.335773976839	345
0	891	748.616822664979	346
0	893	750.421795878585	347
0	895	752.598785461663	348
0	898	753.269881740353	349
0	900	756.546880089736	350
0	902	756.702304238219	351
0	904	757.285632220241	352
0	906	758.938438175176	353
0	908	759.104274304407	354
0	910	759.520152934062	355
0	912	762.159373764178	356
0	914	763.861853611634	357
0	916	770.370728905529	358
0	918	770.66185599647	359
0	922	776.811612052004	360
0	924	777.753628867371	361
0	926	779.102275992266	362
0	928	779.90326437487	363
0	930	781.903653164351	364
0	932	783.490888073138	365
0	934	786.131864025177	366
0	936	786.573083210999	367
0	938	791.227033587317	368
0	940	791.806537092525	369
0	942	792.16060083408	370
0	944	795.475589797175	371
0	946	796.516942156875	372
0	948	801.719184689416	373
0	950	802.798632166372	374
0	954	807.401557935479	375
0	956	809.78032428953	376
0	958	810.920576555921	377
0	962	812.02681577539	378
0	964	812.069970696464	379
0	966	815.975436548075	380
0	969	819.050613713256	381
0	971	822.804366031506	382
0	973	823.207576763804	383
0	975	823.353146394546	384
0	977	825.071254406671	385
0	979	825.789617471013	386
0	981	826.67084573975	387
0	983	834.457609184868	388
0	985	837.33587022886	389
0	987	837.408424480702	390
0	989	838.930472267879	391
0	991	840.286566390396	392
0	993	841.191855038995	393
0	995	847.280727893522	394
0	997	848.340296813764	395
0	1000	851.66780794586	396
0	1002	852.233187026929	397
0	1004	852.930403434859	398
0	1006	853.168052314842	399
0	1008	854.98188949859	400
0	1010	855.46088683443	401
0	1012	856.589261761439	402
0	1014	858.994471479502	403
0	1016	860.789397160187	404
0	1020	865.944887987518	405
0	1024	870.42884847181	406
0	1026	874.857340295159	407
0	1028	876.472307977583	408
0	1032	877.349365187653	409
0	1034	878.707327209192	410
0	1036	882.172550245325	411
0	1040	882.941730640806	412
0	1042	883.902634266439	413
0	1044	884.513961929184	414
0	1046	884.58316363034	415
0	1048	886.146161580826	416
0	1050	890.510804059574	417
0	1052	890.682496225776	418
0	1054	892.057454374692	419
0	1058	894.0766621264	420
0	1060	894.129679214963	421
0	1062	897.31292649894	422
0	1064	901.760866135206	423
0	1068	907.951861049704	424
0	1070	917.761937329992	425
0	1072	920.069918450982	426
0	1074	920.7276229591	427
0	1076	922.067629783002	428
0	1078	923.250636532796	429
0	1080	924.579422890241	430
0	1082	928.395556307671	431
0	1084	935.199526714431	432
0	1086	936.485691424608	433
0	1088	936.96055137834	434
0	1090	937.610525445771	435
0	1092	938.671385649894	436
0	1094	942.357391957068	437
0	1098	951.501942728886	438
0	1100	951.936079247077	439
0	1102	951.993725806771	440
0	1104	955.873978434928	441
0	1106	958.290787103869	442
0	1108	959.026523869543	443
0	1110	959.077511448761	444
0	1112	959.321454239567	445
0	1114	960.095374201861	446
0	1116	960.62344392129	447
0	1118	960.776184818591	448
0	1121	961.197905419394	449
0	1123	961.323539161891	450
0	1125	965.867170480128	451
0	1127	966.103400868678	452
0	1129	968.599016730936	453
0	1131	968.96991499353	454
0	1133	969.605703964602	455
0	1135	971.581740842221	456
0	1137	972.386892787684	457
0	1140	973.540799067484	458
0	1142	973.827267122986	459
0	1144	977.381841730349	460
0	1146	978.658373184305	461
0	1148	979.206700065571	462
0	1151	983.373419078131	463
0	1153	983.794991284541	464
0	1155	985.936410081468	465
0	1157	988.425302975996	466
0	1159	991.111578478866	467
0	1161	995.019593081004	468
0	1164	998.578738044635	469
0	1166	1000.21641230211	470
0	1168	1003.335096862547	471
0	1170	1005.772731127198	472
0	1172	1008.60510684568	473
0	1174	1010.463413220433	474
0	1176	1012.25984977011	475
0	1178	1013.898256231672	476
0	1180	1014.391512495473	477
0	1182	1018.329377417616	478
0	1184	1019.668295592058	479
0	1186	1024.713646215799	480
0	1188	1026.653801438701	481
0	1190	1030.442812581939	482
0	1192	1036.668529688599	483
0	1194	1037.255840197904	484
0	1196	1037.820823450881	485
0	1200	1042.02101900712	486
0	1202	1042.186778815373	487
0	1204	1043.329098804182	488
0	1206	1044.708950206991	489
0	1208	1047.32387472742	490
0	1210	1048.468449928108	491
0	1212	1049.532687269948	492
0	1214	1050.243847319772	493
0	1216	1050.667354765079	494
0	1218	1052.011246661883	495
0	1220	1054.459730475942	496
0	1224	1058.91406899879	497
0	1226	1059.464608709349	498
0	1228	1060.880869289564	499
0	1230	1064.692846763861	500
0	1234	1065.586755394401	501
0	1236	1069.062460675692	502
0	1238	1073.746908050789	503
0	1240	1075.236680940517	504
0	1244	1077.769426836923	505
0	1248	1078.746057927728	506
0	1250	1080.820091271086	507
0	1252	1082.60758868512	508
0	1254	1083.186382584841	509
0	1256	1083.482277616582	510
0	1258	1083.782238758733	511
0	1260	1087.085577291791	512
0	1262	1089.913689226099	513
0	1266	1096.666258578051	514
0	1268	1098.335046748002	515
0	1270	1101.361446777103	516
0	1272	1101.681965753359	517
0	1274	1102.22909041515	518
0	1278	1108.204397277188	519
0	1281	1112.243129420132	520
0	1283	1112.77042254502	521
0	1285	1116.072140696598	522
0	1287	1126.078421822211	523
0	1289	1126.210020177343	524
0	1291	1129.524726239956	525
0	1293	1130.050648720692	526
0	1295	1131.979109850915	527
0	1298	1133.760772278814	528
0	1300	1134.108640924583	529
0	1302	1134.404450918223	530
0	1304	1137.499547809911	531
0	1307	1139.768694448024	532
0	1309	1144.908591107159	533
0	1311	1154.613469637588	534
0	1313	1154.800970226139	535
0	1315	1155.474020276243	536
0	1317	1155.854977460259	537
0	1319	1158.716830999282	538
0	1323	1161.878523673184	539
0	1325	1161.973812364334	540
0	1329	1164.625522260504	541
0	1331	1165.434061626416	542
0	1333	1169.252864660319	543
0	1335	1175.037512311922	544
0	1337	1176.809570964582	545
0	1339	1178.833616702421	546
0	1341	1179.067805230655	547
0	1343	1180.909651151279	548
0	1345	1182.356820584431	549
0	1347	1187.624135590513	550
0	1349	1187.858224464106	551
0	1351	1188.259226654515	552
0	1353	1190.964946853209	553
0	1355	1191.00091471691	554
0	1357	1191.618768489628	555
0	1359	1192.040388764036	556
0	1361	1194.065686230807	557
0	1363	1195.541439000165	558
0	1365	1195.564151045772	559
0	1367	1196.933802775078	560
0	1369	1198.09500712089	561
0	1371	1201.31880102555	562
0	1378	1205.835413185649	563
0	1382	1209.759602446874	564
0	1384	1209.932541203885	565
0	1386	1210.411483534249	566
0	1388	1213.745552515319	567
0	1390	1214.895459079716	568
0	1392	1215.999788101263	569
0	1396	1217.094827873749	570
0	1398	1217.423163006478	571
0	1400	1217.535705663469	572
0	1402	1217.605007611072	573
0	1404	1217.62497432782	574
0	1406	1220.796097992818	575
0	1408	1223.915163105317	576
0	1410	1224.200262075195	577
0	1412	1224.844293555649	578
0	1414	1227.354953224743	579
0	1416	1229.884806543431	580
0	1420	1232.323089763268	581
0	1422	1233.417225185936	582
0	1426	1234.793587023834	583
0	1428	1235.103005743485	584
0	1430	1235.321344730392	585
0	1432	1235.749022878724	586
0	1434	1237.192787646095	587
0	1436	1237.946004336598	588
0	1438	1239.922023196384	589
0	1440	1243.193280737648	590
0	1443	1244.65049114555	591
0	1445	1244.675903581234	592
0	1447	1245.290841755032	593
0	1449	1245.391547075559	594
0	1451	1245.572920018307	595
0	1453	1247.242343274649	596
0	1457	1249.787021970486	597
0	1459	1252.108916916373	598
0	1461	1252.565081843633	599
0	1465	1255.160263975415	600
0	1467	1256.058044373093	601
0	1469	1257.364719795653	602
0	1471	1260.372043501095	603
0	1473	1261.288689243528	604
0	1477	1265.546662555082	605
0	1479	1269.211451749695	606
0	1481	1269.932799588167	607
0	1483	1271.143671385453	608
0	1485	1271.469610101755	609
0	1487	1272.244956260576	610
0	1489	1274.925007190761	611
0	1491	1275.119615231834	612
0	1497	1279.984068929219	613
0	1499	1280.108751716858	614
0	1501	1285.614527669467	615
0	1503	1285.805240602819	616
0	1505	1285.846972067338	617
0	1508	1288.142827939077	618
0	1510	1289.422944794592	619
0	1512	1291.706417236706	620
0	1514	1291.800669727355	621
0	1516	1292.357913987829	622
0	1518	1292.468316558676	623
0	1520	1294.514184253462	624
0	1523	1296.545223052845	625
0	1525	1296.688514079458	626
0	1527	1296.840135638225	627
0	1529	1300.966011884742	628
0	1533	1310.485135469002	629
0	1535	1310.71732002569	630
0	1537	1313.741305867562	631
0	1539	1314.111691040413	632
0	1541	1316.517185866854	633
0	1543	1317.777072433936	634
0	1545	1318.053294434418	635
0	1547	1321.045059542508	636
0	1549	1321.679128028698	637
0	1554	1325.53352384267	638
0	1556	1327.366070356981	639
0	1558	1327.838493602333	640
0	1560	1329.766545575391	641
0	1562	1329.926021793712	642
0	1564	1331.581415160908	643
0	1566	1334.69240201802	644
0	1570	1336.807966081145	645
0	1572	1338.393901113282	646
0	1574	1338.927717745749	647
0	1577	1342.013659566592	648
0	1579	1342.773360581683	649
0	1585	1347.825994195319	650
0	1587	1350.563804993038	651
0	1589	1351.875402821291	652
0	1592	1355.998072012178	653
0	1594	1357.228791907143	654
0	1596	1358.547553913432	655
0	1598	1360.375037650089	656
0	1600	1361.29280827933	657
0	1602	1363.121986559951	658
0	1604	1363.325041549996	659
0	1606	1364.728906678121	660
0	1608	1367.059140068745	661
0	1610	1367.792240103538	662
0	1612	1367.861726077631	663
0	1614	1369.420674873095	664
0	1616	1369.562564182796	665
0	1618	1374.741151192306	666
0	1620	1379.546122846302	667
0	1622	1386.596299770183	668
0	1624	1388.225003837322	669
0	1626	1389.232686026566	670
0	1628	1389.931861072361	671
0	1630	1393.138228765496	672
0	1632	1395.780128923588	673
0	1636	1397.796327840899	674
0	1638	1398.428100497626	675
0	1640	1398.950749937337	676
0	1642	1403.027837325708	677
0	1644	1403.132966776424	678
0	1646	1405.299715468223	679
0	1648	1405.357468986082	680
0	1650	1406.361039621941	681
0	1652	1406.62318902972	682
0	1654	1406.949242710963	683
0	1656	1407.446710409228	684
0	1658	1410.885109556614	685
0	1660	1414.417559117787	686
0	1662	1415.657456752233	687
0	1664	1416.329778432681	688
0	1666	1417.624087963259	689
0	1668	1420.662040340621	690
0	1670	1422.460658659563	691
0	1672	1423.865703893484	692
0	1676	1426.770572661049	693
0	1678	1427.068614519395	694
0	1680	1437.091402200086	695
0	1682	1440.101887337738	696
0	1684	1440.979578371191	697
0	1686	1446.064610802695	698
0	1688	1446.189495203892	699
0	1691	1451.919557144988	700
0	1693	1452.5044523323	701
0	1695	1454.942190730038	702
0	1697	1455.466570557358	703
0	1701	1457.834364858982	704
0	1703	1460.479970376266	705
0	1705	1462.061718897165	706
0	1707	1464.020527234798	707
0	1709	1464.942114708704	708
0	1711	1467.44475168211	709
0	1715	1475.53215816607	710
0	1718	1478.032381743702	711
0	1722	1478.168102823559	712
0	1724	1478.547325837177	713
0	1726	1483.106593084668	714
0	1728	1483.945837430137	715
0	1730	1484.558700218057	716
0	1732	1487.000981054825	717
0	1734	1488.709848177917	718
0	1736	1489.444047539473	719
0	1738	1490.882480712313	720
0	1743	1491.51570603351	721
0	1745	1493.13271797972	722
0	1747	1494.181576971746	723
0	1749	1496.265099665627	724
0	1751	1501.167962088815	725
0	1753	1501.578260343188	726
0	1755	1502.103596805506	727
0	1757	1502.738445387954	728
0	1759	1504.825993058835	729
0	1761	1505.147360551454	730
0	1763	1506.134661877226	731
0	1765	1506.196207541305	732
0	1767	1511.406440194981	733
0	1771	1517.008600379715	734
0	1773	1518.460821250553	735
0	1775	1519.312424641301	736
0	1777	1520.80917932125	737
0	1779	1521.041268784456	738
0	1781	1521.64109652979	739
0	1783	1522.591778596345	740
0	1785	1525.798177294513	741
0	1787	1526.767451936802	742
0	1789	1527.672589511053	743
0	1791	1529.862370080002	744
0	1794	1531.459079506913	745
0	1796	1532.019806501165	746
0	1798	1532.118357960968	747
0	1800	1534.28470792482	748
0	1802	1535.357444715616	749
0	1804	1535.56481940822	750
0	1806	1535.746226924158	751
0	1808	1537.485340613051	752
0	1810	1538.119375988788	753
0	1812	1538.345412188616	754
0	1814	1538.889518597496	755
0	1816	1540.478791270282	756
0	1818	1541.363803066077	757
0	1820	1542.830707142542	758
0	1822	1543.640992446427	759
0	1824	1544.343611504844	760
0	1826	1544.935110431425	761
0	1828	1546.151726587205	762
0	1830	1549.458097752058	763
0	1832	1549.536965584036	764
0	1834	1550.850429212631	765
0	1836	1552.678032002647	766
0	1838	1552.813866149218	767
0	1840	1552.814839906565	768
0	1842	1555.594255163014	769
0	1844	1556.987817088604	770
0	1846	1558.091067671099	771
0	1848	1559.484278471746	772
0	1850	1559.766714473495	773
0	1852	1559.891890673269	774
0	1854	1562.618268870768	775
0	1856	1568.603221455412	776
0	1858	1574.33847832812	777
0	1860	1576.214830522992	778
0	1862	1576.576235131314	779
0	1865	1578.805734861708	780
0	1867	1579.924660272071	781
0	1869	1581.167331312835	782
0	1871	1586.452945389632	783
0	1873	1588.889583134304	784
0	1877	1591.537837555325	785
0	1879	1591.937343920471	786
0	1881	1592.658624354013	787
0	1883	1594.744499989259	788
0	1885	1596.275238491908	789
0	1887	1597.954401325082	790
0	1891	1600.042177378192	791
0	1894	1606.206427859692	792
0	1896	1609.185913107273	793
0	1898	1612.371962201732	794
0	1901	1615.422464728446	795
0	1903	1617.182914701404	796
0	1905	1617.359671758368	797
0	1908	1618.574913790002	798
0	1910	1618.8171715679	799
0	1912	1621.499442885694	800
0	1915	1623.693029714185	801
0	1917	1627.038171466965	802
0	1919	1630.551055304557	803
0	1923	1635.79364030085	804
0	1925	1637.214728697607	805
0	1929	1640.716450685002	806
0	1931	1641.76759465163	807
0	1933	1641.828423577201	808
0	1935	1643.125604989133	809
0	1937	1646.089479015626	810
0	1941	1651.561779009627	811
0	1943	1653.037136911594	812
0	1945	1653.730428325172	813
0	1947	1658.062822281019	814
0	1949	1658.349174380152	815
0	1953	1659.576226599055	816
0	1955	1659.795544767244	817
0	1957	1661.351746445879	818
0	1959	1663.453970575111	819
0	1964	1668.220801814833	820
0	1966	1670.183035115156	821
0	1968	1671.808293606121	822
0	1971	1674.022896057037	823
0	1973	1674.437226622967	824
0	1976	1679.066572347309	825
0	1980	1681.352399038265	826
0	1982	1681.97212888825	827
0	1984	1682.000015769274	828
0	1986	1684.140922730065	829
0	1988	1685.097290006303	830
0	1990	1687.857960624055	831
0	1992	1691.165623217922	832
0	1994	1696.618324605802	833
0	1996	1698.334959880551	834
0	1998	1702.880719431067	835
0	2000	1703.209960546768	836
0	2002	1704.05199975436	837
0	2004	1704.852521386032	838
0	2006	1706.271568470759	839
0	2008	1712.33524702998	840
0	2010	1712.903796765171	841
0	2012	1712.965508586273	842
0	2014	1714.29993453412	843
0	2016	1717.311654207997	844
0	2018	1720.577248577897	845
0	2020	1720.977528572837	846
0	2022	1722.635144657745	847
0	2024	1723.115868708037	848
0	2026	1724.329948828565	849
0	2028	1726.44448395572	850
0	2030	1727.281537597694	851
0	2032	1727.592722232937	852
0	2034	1729.54577567854	853
0	2036	1730.505099200942	854
0	2038	1730.982527128788	855
0	2040	1732.02338541621	856
0	2042	1732.308917085728	857
0	2044	1734.460459975513	858
0	2046	1735.688642245404	859
0	2048	1737.122795376641	860
0	2050	1738.16018751449	861
0	2052	1739.478007966875	862
0	2054	1739.937900060101	863
0	2056	1741.422666502086	864
0	2058	1741.839549050917	865
0	2060	1745.122292654881	866
0	2062	1745.173203252761	867
0	2064	1748.436479120116	868
0	2066	1749.068360564251	869
0	2068	1749.387994990696	870
0	2070	1755.741924639789	871
0	2073	1765.799596592695	872
0	2079	1774.864194057436	873
0	2081	1775.004540621607	874
0	2083	1776.490178891104	875
0	2093	1787.443063977859	876
0	2095	1787.691877046619	877
0	2097	1787.955399404719	878
0	2099	1788.585438576613	879
0	2101	1788.713298284428	880
0	2103	1789.271359776767	881
0	2105	1791.706390898266	882
0	2107	1792.819951650469	883
0	2109	1799.307295862683	884
0	2111	1801.567006094655	885
0	2113	1804.057644205057	886
0	2115	1804.555845049754	887
0	2117	1806.731672405486	888
0	2119	1808.378752357605	889
0	2121	1808.665742577337	890
0	2123	1811.213580927319	891
0	2125	1811.61132484634	892
0	2130	1815.685689718047	893
0	2132	1816.026592375305	894
0	2134	1820.080968878616	895
0	2136	1820.270631139754	896
0	2138	1820.48467760409	897
0	2140	1827.626241316909	898
0	2142	1828.44989030343	899
0	2144	1829.876023330954	900
0	2146	1831.271745067111	901
0	2148	1832.470612440248	902
0	2150	1833.761236069149	903
0	2152	1834.561298809621	904
0	2154	1835.145409460341	905
0	2156	1836.505918940126	906
0	2158	1836.555572129651	907
0	2161	1836.865609858609	908
0	2164	1843.116276863661	909
0	2167	1843.443481287885	910
0	2169	1845.021511855686	911
0	2171	1848.399974390296	912
0	2173	1850.715758157022	913
0	2175	1851.190450744075	914
0	2177	1852.248116612727	915
0	2179	1852.429153068628	916
0	2182	1856.714159502603	917
0	2184	1857.693780219359	918
0	2186	1860.328715419044	919
0	2190	1864.806122953525	920
0	2192	1865.886947048377	921
0	2195	1867.006430193207	922
0	2197	1868.705181318354	923
0	2199	1871.612649737439	924
0	2201	1872.890393242405	925
0	2206	1883.596112766877	926
0	2208	1883.627930457239	927
0	2210	1883.668464151456	928
0	2212	1884.282451253124	929
0	2214	1884.511474058597	930
0	2216	1885.620297813118	931
0	2219	1887.993498127423	932
0	2221	1892.866281061176	933
0	2224	1897.292941150744	934
0	2226	1897.904784466205	935
0	2228	1899.261208306838	936
0	2230	1899.893605545526	937
0	2232	1900.039323351852	938
0	2234	1900.083833303173	939
0	2236	1900.269023247158	940
0	2238	1900.509630827214	941
0	2240	1900.734195567334	942
0	2242	1903.375404406323	943
0	2244	1903.824841194398	944
0	2246	1904.774831804885	945
0	2248	1908.971901256645	946
0	2250	1910.07678914349	947
0	2252	1915.814019498605	948
0	2254	1916.373494576643	949
0	2256	1916.66501749692	950
0	2258	1917.306566054337	951
0	2262	1921.220687908087	952
0	2264	1921.785265411412	953
0	2266	1924.615956252927	954
0	2268	1925.653949470305	955
0	2270	1927.971767453543	956
0	2272	1928.205576217313	957
0	2274	1932.086931465921	958
0	2276	1932.301040468927	959
0	2278	1932.826051175259	960
0	2280	1933.992140137942	961
0	2282	1935.457321969317	962
0	2284	1937.466882999972	963
0	2286	1938.308040826309	964
0	2288	1944.647977173657	965
0	2292	1946.798391423447	966
0	2294	1950.545547885296	967
0	2296	1951.210321786252	968
0	2298	1952.148798473657	969
0	2300	1953.544982988618	970
0	2302	1953.835243558827	971
0	2304	1954.557979784297	972
0	2306	1956.534876786353	973
0	2308	1958.143165758226	974
0	2310	1962.170545848075	975
0	2312	1962.521937984692	976
0	2316	1966.862615873831	977
0	2318	1968.543818381676	978
0	2320	1969.222662866029	979
0	2322	1970.552598278436	980
0	2324	1977.227428002237	981
0	2326	1977.500258058911	982
0	2328	1978.542015897563	983
0	2330	1980.111191145895	984
0	2332	1982.424397367339	985
0	2334	1982.87191136125	986
0	2336	1991.972196415172	987
0	2338	1994.190496815571	988
0	2340	1994.238466698792	989
0	2342	1995.871865319437	990
0	2344	1998.563243264982	991
0	2346	1999.092159803052	992
0	2348	2002.415584392892	993
0	2350	2003.86522539022	994
0	2352	2004.124329611436	995
0	2354	2004.880979066348	996
0	2356	2004.902073141495	997
0	2359	2008.65138880354	998
0	2361	2009.876218506712	999
0	2363	2011.062374372091	1000
0	2365	2015.666030142636	1001
0	2367	2015.876940570676	1002
0	2369	2016.982415321911	1003
0	2371	2021.619683383389	1004
0	2373	2022.288893856382	1005
0	2375	2026.166003881362	1006
0	2377	2028.496173652712	1007
0	2379	2029.170842527611	1008
0	2383	2029.460824852515	1009
0	2385	2030.060374036435	1010
0	2387	2030.077888930208	1011
0	2389	2030.215241988437	1012
0	2395	2036.8208827508	1013
0	2397	2037.585254139509	1014
0	2399	2038.317944658617	1015
0	2401	2038.42441501217	1016
0	2403	2038.494161828542	1017
0	2405	2044.265705889472	1018
0	2407	2047.735025336054	1019
0	2410	2050.261178358521	1020
0	2414	2053.136613638757	1021
0	2416	2054.749958605193	1022
0	2418	2060.125508931002	1023
0	2420	2061.017285705101	1024
0	2422	2063.25383712444	1025
0	2424	2063.600597943952	1026
0	2428	2066.715718080077	1027
0	2432	2067.850362036119	1028
0	2434	2069.70541899212	1029
0	2436	2070.360656181125	1030
0	2438	2072.602247178019	1031
0	2440	2079.092565261409	1032
0	2442	2080.526331524064	1033
0	2444	2080.732906081505	1034
0	2446	2091.955675222313	1035
0	2449	2093.000781993642	1036
0	2451	2093.87038723485	1037
0	2453	2093.887210683355	1038
0	2455	2095.489019526717	1039
0	2457	2097.167951733034	1040
0	2459	2101.783754391864	1041
0	2461	2103.502676374699	1042
0	2463	2103.611287282248	1043
0	2465	2103.906302821327	1044
0	2467	2104.26358401427	1045
0	2469	2106.494400513906	1046
0	2471	2108.61413066798	1047
0	2473	2108.922470732533	1048
0	2475	2109.111772588193	1049
0	2479	2110.535338081154	1050
0	2481	2112.306027396521	1051
0	2483	2113.226171866663	1052
0	2485	2114.390949121461	1053
0	2487	2114.963934378285	1054
0	2490	2118.481133505106	1055
0	2492	2118.774151692282	1056
0	2494	2121.860832609397	1057
0	2496	2122.114888929043	1058
0	2498	2124.690550583265	1059
0	2500	2124.798171133709	1060
0	2502	2125.532271446133	1061
0	2506	2126.673774152487	1062
0	2508	2131.904480367334	1063
0	2510	2134.849975512262	1064
0	2512	2135.151002261382	1065
0	2514	2138.957468687084	1066
0	2516	2139.592927264625	1067
0	2519	2141.534857626044	1068
0	2521	2141.676087368712	1069
0	2524	2142.631796698289	1070
0	2526	2143.762943267028	1071
0	2528	2146.041255881594	1072
0	2530	2147.638480888679	1073
0	2532	2148.391552648721	1074
0	2534	2148.616801342234	1075
0	2538	2151.210717930921	1076
0	2540	2151.551514110335	1077
0	2542	2156.469598886845	1078
0	2544	2156.92073773523	1079
0	2546	2157.120147437179	1080
0	2548	2160.575813121146	1081
0	2550	2162.76292502098	1082
0	2552	2164.847144873875	1083
0	2554	2165.729970361273	1084
0	2558	2167.575406764048	1085
0	2560	2170.448822184854	1086
0	2562	2171.446089012664	1087
0	2566	2177.247140203922	1088
0	2568	2180.60428777623	1089
0	2570	2181.110828986937	1090
0	2572	2181.376589209109	1091
0	2574	2181.494504328115	1092
0	2576	2181.512557448621	1093
0	2578	2183.571486649275	1094
0	2580	2188.031793117361	1095
0	2582	2188.217728604076	1096
0	2584	2191.522140391274	1097
0	2588	2193.727010064221	1098
0	2590	2195.133568733845	1099
0	2592	2197.002587012507	1100
0	2594	2199.446269404429	1101
0	2596	2199.485858290507	1102
0	2598	2200.140424974055	1103
0	2600	2201.141493627886	1104
0	2604	2209.091132022243	1105
0	2606	2210.321680331376	1106
0	2608	2210.684577828141	1107
0	2610	2210.727302972581	1108
0	2612	2211.925401456334	1109
0	2614	2212.86122396971	1110
0	2616	2215.65634219518	1111
0	2618	2217.323769914278	1112
0	2620	2217.663916264399	1113
0	2622	2217.681745859655	1114
0	2624	2217.870506087381	1115
0	2626	2218.225998994686	1116
0	2628	2219.273197807005	1117
0	2630	2223.841347486733	1118
0	2632	2224.24116948626	1119
0	2634	2225.119523475404	1120
0	2636	2226.410013480141	1121
0	2638	2227.151426524771	1122
0	2640	2227.24517335465	1123
0	2642	2228.990470845651	1124
0	2644	2231.375224245176	1125
0	2646	2232.852202251171	1126
0	2650	2233.291495295851	1127
0	2653	2237.573376523529	1128
0	2655	2238.672788682812	1129
0	2657	2239.308643695368	1130
0	2659	2240.034034857376	1131
0	2661	2240.746870670177	1132
0	2663	2244.293491055935	1133
0	2665	2245.030947674723	1134
0	2667	2245.312695643125	1135
0	2669	2245.5256496371	1136
0	2671	2249.555980486071	1137
0	2673	2250.25515700089	1138
0	2675	2250.452512907769	1139
0	2677	2253.063083338736	1140
0	2679	2253.309995440237	1141
0	2681	2254.146728066133	1142
0	2683	2254.673086330766	1143
0	2685	2255.347021872992	1144
0	2689	2259.704747715145	1145
0	2691	2265.967742016793	1146
0	2693	2270.047365486218	1147
0	2698	2285.167469315827	1148
0	2700	2288.939764703565	1149
0	2702	2289.762787156428	1150
0	2705	2290.872486761745	1151
0	2707	2292.161663899416	1152
0	2710	2296.361122288355	1153
0	2716	2299.900918599574	1154
0	2718	2300.922278446326	1155
0	2720	2301.13167800612	1156
0	2724	2305.465203425394	1157
0	2726	2306.884222612965	1158
0	2730	2309.844831076245	1159
0	2732	2313.434397977776	1160
0	2734	2314.665122734889	1161
0	2736	2317.605544496141	1162
0	2738	2318.825061713179	1163
0	2740	2322.21070453554	1164
0	2742	2331.703734111925	1165
0	2744	2331.809586473411	1166
0	2746	2334.305681734714	1167
0	2748	2336.592841108443	1168
0	2750	2340.265519112292	1169
0	2752	2346.875129072922	1170
0	2754	2350.018726931377	1171
0	2756	2352.432998944783	1172
0	2758	2352.574929554946	1173
0	2760	2353.629674667689	1174
0	2762	2354.274895910092	1175
0	2764	2354.738862393456	1176
0	2766	2355.888624101386	1177
0	2769	2362.136786197541	1178
0	2771	2362.768495508321	1179
0	2773	2363.810285047563	1180
0	2775	2366.518897287504	1181
0	2777	2369.042667104065	1182
0	2779	2370.126472475035	1183
0	2781	2372.357977621943	1184
0	2783	2372.577280176341	1185
0	2785	2376.26933690523	1186
0	2787	2377.953856366293	1187
0	2789	2383.605511096042	1188
0	2791	2383.798499117551	1189
0	2793	2385.067505273087	1190
0	2795	2385.400295354288	1191
0	2797	2385.628238155402	1192
0	2799	2385.848762299045	1193
0	2801	2387.521344812873	1194
0	2805	2389.995964866624	1195
0	2808	2397.79783685387	1196
0	2810	2402.404864543083	1197
0	2812	2403.54288556153	1198
0	2814	2404.515737999523	1199
0	2816	2407.923613655602	1200
0	2818	2409.27228686222	1201
0	2820	2410.42212502728	1202
0	2822	2411.586154443576	1203
0	2824	2414.913249013183	1204
0	2826	2415.157108496065	1205
0	2828	2415.67882131237	1206
0	2830	2417.564059434175	1207
0	2832	2418.622643405294	1208
0	2836	2423.27249602774	1209
0	2838	2425.898220615331	1210
0	2840	2426.515077042005	1211
0	2843	2428.543514931063	1212
0	2845	2430.515563273416	1213
0	2849	2433.447474174047	1214
0	2851	2433.720657360612	1215
0	2855	2439.977998393023	1216
0	2857	2441.030622731745	1217
0	2859	2441.973853907613	1218
0	2861	2445.991461792888	1219
0	2863	2450.512456865633	1220
0	2865	2453.731048606536	1221
0	2868	2454.198650119783	1222
0	2870	2455.429073075649	1223
0	2872	2455.559636406719	1224
0	2874	2457.353679361407	1225
0	2876	2457.901031703421	1226
0	2880	2465.131369055113	1227
0	2885	2468.16143669393	1228
0	2887	2469.824706093397	1229
0	2889	2470.76815773633	1230
0	2891	2471.530912712286	1231
0	2893	2473.272991745245	1232
0	2895	2473.374519383604	1233
0	2897	2473.9278774029	1234
0	2901	2475.325729326202	1235
0	2903	2476.480210787423	1236
0	2905	2477.023801536005	1237
0	2907	2477.421806832298	1238
0	2909	2477.671569613888	1239
0	2911	2478.605571400257	1240
0	2913	2479.849895666072	1241
0	2915	2483.839117130218	1242
0	2917	2487.609960269042	1243
0	2919	2491.485756373805	1244
0	2921	2492.148023082775	1245
0	2924	2497.77749801316	1246
0	2926	2498.440286192934	1247
0	2928	2499.481162836068	1248
1	467	350.142549661861	165
1	469	351.061590894461	166
1	471	353.111020891696	167
1	473	354.0059352795	168
1	475	354.452531419881	169
1	477	358.693366615062	170
1	480	360.837062812062	171
1	482	361.478967103779	172
1	485	364.491730145092	173
1	487	365.000434101238	174
1	489	368.025041964484	175
1	491	371.388770808912	176
1	493	373.273671434147	177
1	495	373.39359771025	178
1	497	374.132829617057	179
1	499	376.752633050417	180
1	501	379.145534802755	181
1	503	379.211984754749	182
1	505	383.138764915698	183
1	507	384.971282534112	184
1	509	386.934668510166	185
1	511	386.996702916293	186
1	513	395.077305212483	187
1	515	399.003894373522	188
1	517	406.505414640029	189
1	521	407.664264368695	190
1	523	408.028973398842	191
1	525	409.672956710048	192
1	527	409.71985865438	193
1	529	413.120830921563	194
1	531	413.471311228241	195
1	533	413.657749815206	196
1	536	418.798595915088	197
1	538	421.216484374786	198
1	540	427.355235595255	199
1	542	428.329363051826	200
1	544	428.803286267246	201
1	546	428.838438482789	202
1	548	429.732654771035	203
1	550	429.837277919578	204
1	552	431.431518625821	205
1	554	432.573631674039	206
1	556	433.208075484243	207
1	558	440.739066761562	208
1	560	441.973668517416	209
1	562	442.170622176446	210
1	564	444.55314055342	211
1	566	446.156920729012	212
1	568	447.544639164542	213
1	570	449.605256057224	214
1	574	452.123318146247	215
1	578	453.283864756585	216
1	580	454.776774734869	217
1	584	457.887373440334	218
1	586	457.890173437485	219
1	588	460.328058968666	220
1	590	461.33212205498	221
1	594	463.881330107077	222
1	596	465.236535234348	223
1	598	466.609977906925	224
1	600	467.641253373327	225
1	602	470.286732850792	226
1	604	471.161568142072	227
1	608	475.312985279244	228
1	610	476.701738426207	229
1	612	478.34324237755	230
1	615	479.521453313166	231
1	617	481.802915305452	232
1	619	481.992488070027	233
1	621	482.91158374843	234
1	623	483.550790553711	235
1	625	485.339500696058	236
1	630	491.085719497559	237
1	632	492.389970864988	238
1	634	492.443777493559	239
1	636	493.640966924321	240
1	638	493.722608188837	241
1	640	494.288780942981	242
1	642	494.954531372854	243
1	644	498.044613708293	244
1	646	499.790808840244	245
1	648	500.952375326315	246
1	651	510.349755631336	247
1	654	512.758515030351	248
1	660	522.582512775246	249
1	662	526.023955797798	250
1	666	535.981465391105	251
1	668	536.911053667842	252
1	670	537.14422990464	253
1	672	543.239297612534	254
1	675	545.423453642663	255
1	677	552.836304436616	256
1	679	554.320923974828	257
1	681	555.434430671177	258
1	683	555.814694404072	259
1	685	557.192737017418	260
1	688	562.920750673222	261
1	690	565.118885370938	262
1	692	565.672660034316	263
1	694	566.204807167568	264
1	699	579.889245061451	265
1	701	581.486354237371	266
1	703	583.234224366251	267
1	707	592.266967684906	268
1	709	592.671883158586	269
1	711	592.784487318638	270
1	713	593.762763743038	271
1	715	595.682242020123	272
1	717	596.102878151413	273
1	719	596.341190940053	274
1	721	597.399070575909	275
1	723	598.64067899284	276
1	725	600.446836108912	277
1	727	603.10190888999	278
1	731	605.623602659764	279
1	733	606.442796528835	280
1	735	607.77733236282	281
1	739	609.357246959627	282
1	741	610.098185735254	283
1	747	616.195655937687	284
1	749	617.918510094413	285
1	751	618.160935783328	286
1	753	619.326681427709	287
1	755	627.400790698711	288
1	757	628.29235922257	289
1	759	631.005013973458	290
1	761	631.780260207906	291
1	763	635.54897633354	292
1	765	636.015887498169	293
1	767	638.651368636184	294
1	769	639.851624704589	295
1	771	640.459208460611	296
1	773	641.813137731346	297
1	775	647.747396197629	298
1	779	652.334177580287	299
1	781	652.9642148092	300
1	785	655.578149709493	301
1	788	662.758329017962	302
1	790	665.698461739135	303
1	792	667.960634374901	304
1	794	668.902047703406	305
1	796	672.221401766526	306
1	798	673.063796810577	307
1	800	674.234425507802	308
1	802	676.363051369295	309
1	804	676.594414178982	310
1	806	679.077334285764	311
1	808	686.116783644076	312
1	810	686.357816732528	313
1	814	687.341431440567	314
1	816	687.626930226165	315
1	819	688.810058191576	316
1	821	690.027813865296	317
1	823	690.45211002139	318
1	825	690.800188858352	319
1	827	695.235947443474	320
1	829	701.757526784346	321
1	833	703.043300464511	322
1	835	706.678880142332	323
1	837	707.156358678455	324
1	839	708.624966656938	325
1	841	710.503825030224	326
1	843	710.9963225429	327
1	847	712.454714268745	328
1	851	712.744577889952	329
1	853	713.776123506177	330
1	857	721.509300375509	331
1	859	722.289527313167	332
1	862	724.744989552048	333
1	865	726.521244668113	334
1	867	730.453121223381	335
1	869	731.437722842444	336
1	871	732.417066828941	337
1	873	733.616196561297	338
1	875	734.193785999775	339
1	877	734.760956446746	340
1	879	735.472701321617	341
1	881	737.205698183684	342
1	885	741.094058786896	343
1	889	747.335773976839	344
1	891	748.616822664979	345
1	893	750.421795878585	346
1	895	752.598785461663	347
1	898	753.269881740353	348
1	900	756.546880089736	349
1	902	756.702304238219	350
1	904	757.285632220241	351
1	906	758.938438175176	352
1	908	759.104274304407	353
1	910	759.520152934062	354
1	912	762.159373764178	355
1	914	763.861853611634	356
1	916	770.370728905529	357
1	918	770.66185599647	358
1	922	776.811612052004	359
1	924	777.753628867371	360
1	926	779.102275992266	361
1	928	779.90326437487	362
1	930	781.903653164351	363
1	932	783.490888073138	364
1	934	786.131864025177	365
1	936	786.573083210999	366
1	938	791.227033587317	367
1	940	791.806537092525	368
1	942	792.16060083408	369
1	944	795.475589797175	370
1	946	796.516942156875	371
1	948	801.719184689416	372
1	950	802.798632166372	373
1	954	807.401557935479	374
1	956	809.78032428953	375
1	958	810.920576555921	376
1	962	812.02681577539	377
1	964	812.069970696464	378
1	966	815.975436548075	379
1	969	819.050613713256	380
1	971	822.804366031506	381
1	973	823.207576763804	382
1	975	823.353146394546	383
1	977	825.071254406671	384
1	979	825.789617471013	385
1	981	826.67084573975	386
1	983	834.457609184868	387
1	985	837.33587022886	388
1	987	837.408424480702	389
1	989	838.930472267879	390
1	991	840.286566390396	391
1	993	841.191855038995	392
1	995	847.280727893522	393
1	997	848.340296813764	394
1	1000	851.66780794586	395
1	1002	852.233187026929	396
1	1004	852.930403434859	397
1	1006	853.168052314842	398
1	1008	854.98188949859	399
1	1010	855.46088683443	400
1	1012	856.589261761439	401
1	1014	858.994471479502	402
1	1016	860.789397160187	403
1	1020	865.944887987518	404
1	1024	870.42884847181	405
1	1026	874.857340295159	406
1	1028	876.472307977583	407
1	1032	877.349365187653	408
1	1034	878.707327209192	409
1	1036	882.172550245325	410
1	1040	882.941730640806	411
1	1042	883.902634266439	412
1	1044	884.513961929184	413
1	1046	884.58316363034	414
1	1048	886.146161580826	415
1	1050	890.510804059574	416
1	1052	890.682496225776	417
1	1054	892.057454374692	418
1	1058	894.0766621264	419
1	1060	894.129679214963	420
1	1062	897.31292649894	421
1	1064	901.760866135206	422
1	1068	907.951861049704	423
1	1070	917.761937329992	424
1	1072	920.069918450982	425
1	1074	920.7276229591	426
1	1076	922.067629783002	427
1	1078	923.250636532796	428
1	1080	924.579422890241	429
1	1082	928.395556307671	430
1	1084	935.199526714431	431
1	1086	936.485691424608	432
1	1088	936.96055137834	433
1	1090	937.610525445771	434
1	1092	938.671385649894	435
1	1094	942.357391957068	436
1	1098	951.501942728886	437
1	1100	951.936079247077	438
1	1102	951.993725806771	439
1	1104	955.873978434928	440
1	1106	958.290787103869	441
1	1108	959.026523869543	442
1	1110	959.077511448761	443
1	1112	959.321454239567	444
1	1114	960.095374201861	445
1	1116	960.62344392129	446
1	1118	960.776184818591	447
1	1121	961.197905419394	448
1	1123	961.323539161891	449
1	1125	965.867170480128	450
1	1127	966.103400868678	451
1	1129	968.599016730936	452
1	1131	968.96991499353	453
1	1133	969.605703964602	454
1	1135	971.581740842221	455
1	1137	972.386892787684	456
1	1140	973.540799067484	457
1	1142	973.827267122986	458
1	1144	977.381841730349	459
1	1146	978.658373184305	460
1	1148	979.206700065571	461
1	1151	983.373419078131	462
1	1153	983.794991284541	463
1	1155	985.936410081468	464
1	1157	988.425302975996	465
1	1159	991.111578478866	466
1	1161	995.019593081004	467
1	1164	998.578738044635	468
1	1166	1000.21641230211	469
1	1168	1003.335096862547	470
1	1170	1005.772731127198	471
1	1172	1008.60510684568	472
1	1174	1010.463413220433	473
1	1176	1012.25984977011	474
1	1178	1013.898256231672	475
1	1180	1014.391512495473	476
1	1182	1018.329377417616	477
1	1184	1019.668295592058	478
1	1186	1024.713646215799	479
1	1188	1026.653801438701	480
1	1190	1030.442812581939	481
1	1192	1036.668529688599	482
1	1194	1037.255840197904	483
1	1196	1037.820823450881	484
1	1200	1042.02101900712	485
1	1202	1042.186778815373	486
1	1204	1043.329098804182	487
1	1206	1044.708950206991	488
1	1208	1047.32387472742	489
1	1210	1048.468449928108	490
1	1212	1049.532687269948	491
1	1214	1050.243847319772	492
1	1216	1050.667354765079	493
1	1218	1052.011246661883	494
1	1220	1054.459730475942	495
1	1224	1058.91406899879	496
1	1226	1059.464608709349	497
1	1228	1060.880869289564	498
1	1230	1064.692846763861	499
1	1234	1065.586755394401	500
1	1236	1069.062460675692	501
1	1238	1073.746908050789	502
1	1240	1075.236680940517	503
1	1244	1077.769426836923	504
1	1248	1078.746057927728	505
1	1250	1080.820091271086	506
1	1252	1082.60758868512	507
1	1254	1083.186382584841	508
1	1256	1083.482277616582	509
1	1258	1083.782238758733	510
1	1260	1087.085577291791	511
1	1262	1089.913689226099	512
1	1266	1096.666258578051	513
1	1268	1098.335046748002	514
1	1270	1101.361446777103	515
1	1272	1101.681965753359	516
1	1274	1102.22909041515	517
1	1278	1108.204397277188	518
1	1281	1112.243129420132	519
1	1283	1112.77042254502	520
1	1285	1116.072140696598	521
1	1287	1126.078421822211	522
1	1289	1126.210020177343	523
1	1291	1129.524726239956	524
1	1293	1130.050648720692	525
1	1295	1131.979109850915	526
1	1298	1133.760772278814	527
1	1300	1134.108640924583	528
1	1302	1134.404450918223	529
1	1304	1137.499547809911	530
1	1307	1139.768694448024	531
1	1309	1144.908591107159	532
1	1311	1154.613469637588	533
1	1313	1154.800970226139	534
1	1315	1155.474020276243	535
1	1317	1155.854977460259	536
1	1319	1158.716830999282	537
1	1323	1161.878523673184	538
1	1325	1161.973812364334	539
1	1329	1164.625522260504	540
1	1331	1165.434061626416	541
1	1333	1169.252864660319	542
1	1335	1175.037512311922	543
1	1337	1176.809570964582	544
1	1339	1178.833616702421	545
1	1341	1179.067805230655	546
1	1343	1180.909651151279	547
1	1345	1182.356820584431	548
1	1347	1187.624135590513	549
1	1349	1187.858224464106	550
1	1351	1188.259226654515	551
1	1353	1190.964946853209	552
1	1355	1191.00091471691	553
1	1357	1191.618768489628	554
1	1359	1192.040388764036	555
1	1361	1194.065686230807	556
1	1363	1195.541439000165	557
1	1365	1195.564151045772	558
1	1367	1196.933802775078	559
1	1369	1198.09500712089	560
1	1371	1201.31880102555	561
1	1378	1205.835413185649	562
1	1382	1209.759602446874	563
1	1384	1209.932541203885	564
1	1386	1210.411483534249	565
1	1388	1213.745552515319	566
1	1390	1214.895459079716	567
1	1392	1215.999788101263	568
1	1396	1217.094827873749	569
1	1398	1217.423163006478	570
1	1400	1217.535705663469	571
1	1402	1217.605007611072	572
1	1404	1217.62497432782	573
1	1406	1220.796097992818	574
1	1408	1223.915163105317	575
1	1410	1224.200262075195	576
1	1412	1224.844293555649	577
1	1414	1227.354953224743	578
1	1416	1229.884806543431	579
1	1420	1232.323089763268	580
1	1422	1233.417225185936	581
1	1426	1234.793587023834	582
1	1428	1235.103005743485	583
1	1430	1235.321344730392	584
1	1432	1235.749022878724	585
1	1434	1237.192787646095	586
1	1436	1237.946004336598	587
1	1438	1239.922023196384	588
1	1440	1243.193280737648	589
1	1443	1244.65049114555	590
1	1445	1244.675903581234	591
1	1447	1245.290841755032	592
1	1449	1245.391547075559	593
1	1451	1245.572920018307	594
1	1453	1247.242343274649	595
1	1457	1249.787021970486	596
1	1459	1252.108916916373	597
1	1461	1252.565081843633	598
1	1465	1255.160263975415	599
1	1467	1256.058044373093	600
1	1469	1257.364719795653	601
1	1471	1260.372043501095	602
1	1473	1261.288689243528	603
1	1477	1265.546662555082	604
1	1479	1269.211451749695	605
1	1481	1269.932799588167	606
1	1483	1271.143671385453	607
1	1485	1271.469610101755	608
1	1487	1272.244956260576	609
1	1489	1274.925007190761	610
1	1491	1275.119615231834	611
1	1497	1279.984068929219	612
1	1499	1280.108751716858	613
1	1501	1285.614527669467	614
1	1503	1285.805240602819	615
1	1505	1285.846972067338	616
1	1508	1288.142827939077	617
1	1510	1289.422944794592	618
1	1512	1291.706417236706	619
1	1514	1291.800669727355	620
1	1516	1292.357913987829	621
1	1518	1292.468316558676	622
1	1520	1294.514184253462	623
1	1523	1296.545223052845	624
1	1525	1296.688514079458	625
1	1527	1296.840135638225	626
1	1529	1300.966011884742	627
1	1533	1310.485135469002	628
1	1535	1310.71732002569	629
1	1537	1313.741305867562	630
1	1539	1314.111691040413	631
1	1541	1316.517185866854	632
1	1543	1317.777072433936	633
1	1545	1318.053294434418	634
1	1547	1321.045059542508	635
1	1549	1321.679128028698	636
1	1554	1325.53352384267	637
1	1556	1327.366070356981	638
1	1558	1327.838493602333	639
1	1560	1329.766545575391	640
1	1562	1329.926021793712	641
1	1564	1331.581415160908	642
1	1566	1334.69240201802	643
1	1570	1336.807966081145	644
1	1572	1338.393901113282	645
1	1574	1338.927717745749	646
1	1577	1342.013659566592	647
1	1579	1342.773360581683	648
1	1585	1347.825994195319	649
1	1587	1350.563804993038	650
1	1589	1351.875402821291	651
1	1592	1355.998072012178	652
1	1594	1357.228791907143	653
1	1596	1358.547553913432	654
1	1598	1360.375037650089	655
1	1600	1361.29280827933	656
1	1602	1363.121986559951	657
1	1604	1363.325041549996	658
1	1606	1364.728906678121	659
1	1608	1367.059140068745	660
1	1610	1367.792240103538	661
1	1612	1367.861726077631	662
1	1614	1369.420674873095	663
1	1616	1369.562564182796	664
1	1618	1374.741151192306	665
1	1620	1379.546122846302	666
1	1622	1386.596299770183	667
1	1624	1388.225003837322	668
1	1626	1389.232686026566	669
1	1628	1389.931861072361	670
1	1630	1393.138228765496	671
1	1632	1395.780128923588	672
1	1636	1397.796327840899	673
1	1638	1398.428100497626	674
1	1640	1398.950749937337	675
1	1642	1403.027837325708	676
1	1644	1403.132966776424	677
1	1646	1405.299715468223	678
1	1648	1405.357468986082	679
1	1650	1406.361039621941	680
1	1652	1406.62318902972	681
1	1654	1406.949242710963	682
1	1656	1407.446710409228	683
1	1658	1410.885109556614	684
1	1660	1414.417559117787	685
1	1662	1415.657456752233	686
1	1664	1416.329778432681	687
1	1666	1417.624087963259	688
1	1668	1420.662040340621	689
1	1670	1422.460658659563	690
1	1672	1423.865703893484	691
1	1676	1426.770572661049	692
1	1678	1427.068614519395	693
1	1680	1437.091402200086	694
1	1682	1440.101887337738	695
1	1684	1440.979578371191	696
1	1686	1446.064610802695	697
1	1688	1446.189495203892	698
1	1691	1451.919557144988	699
1	1693	1452.5044523323	700
1	1695	1454.942190730038	701
1	1697	1455.466570557358	702
1	1701	1457.834364858982	703
1	1703	1460.479970376266	704
1	1705	1462.061718897165	705
1	1707	1464.020527234798	706
1	1709	1464.942114708704	707
1	1711	1467.44475168211	708
1	1715	1475.53215816607	709
1	1718	1478.032381743702	710
1	1722	1478.168102823559	711
1	1724	1478.547325837177	712
1	1726	1483.106593084668	713
1	1728	1483.945837430137	714
1	1730	1484.558700218057	715
1	1732	1487.000981054825	716
1	1734	1488.709848177917	717
1	1736	1489.444047539473	718
1	1738	1490.882480712313	719
1	1743	1491.51570603351	720
1	1745	1493.13271797972	721
1	1747	1494.181576971746	722
1	1749	1496.265099665627	723
1	1751	1501.167962088815	724
1	1753	1501.578260343188	725
1	1755	1502.103596805506	726
1	1757	1502.738445387954	727
1	1759	1504.825993058835	728
1	1761	1505.147360551454	729
1	1763	1506.134661877226	730
1	1765	1506.196207541305	731
1	1767	1511.406440194981	732
1	1771	1517.008600379715	733
1	1773	1518.460821250553	734
1	1775	1519.312424641301	735
1	1777	1520.80917932125	736
1	1779	1521.041268784456	737
1	1781	1521.64109652979	738
1	1783	1522.591778596345	739
1	1785	1525.798177294513	740
1	1787	1526.767451936802	741
1	1789	1527.672589511053	742
1	1791	1529.862370080002	743
1	1794	1531.459079506913	744
1	1796	1532.019806501165	745
1	1798	1532.118357960968	746
1	1800	1534.28470792482	747
1	1802	1535.357444715616	748
1	1804	1535.56481940822	749
1	1806	1535.746226924158	750
1	1808	1537.485340613051	751
1	1810	1538.119375988788	752
1	1812	1538.345412188616	753
1	1814	1538.889518597496	754
1	1816	1540.478791270282	755
1	1818	1541.363803066077	756
1	1820	1542.830707142542	757
1	1822	1543.640992446427	758
1	1824	1544.343611504844	759
1	1826	1544.935110431425	760
1	1828	1546.151726587205	761
1	1830	1549.458097752058	762
1	1832	1549.536965584036	763
1	1834	1550.850429212631	764
1	1836	1552.678032002647	765
1	1838	1552.813866149218	766
1	1840	1552.814839906565	767
1	1842	1555.594255163014	768
1	1844	1556.987817088604	769
1	1846	1558.091067671099	770
1	1848	1559.484278471746	771
1	1850	1559.766714473495	772
1	1852	1559.891890673269	773
1	1854	1562.618268870768	774
1	1856	1568.603221455412	775
1	1858	1574.33847832812	776
1	1860	1576.214830522992	777
1	1862	1576.576235131314	778
1	1865	1578.805734861708	779
1	1867	1579.924660272071	780
1	1869	1581.167331312835	781
1	1871	1586.452945389632	782
1	1873	1588.889583134304	783
1	1877	1591.537837555325	784
1	1879	1591.937343920471	785
1	1881	1592.658624354013	786
1	1883	1594.744499989259	787
1	1885	1596.275238491908	788
1	1887	1597.954401325082	789
1	1891	1600.042177378192	790
1	1894	1606.206427859692	791
1	1896	1609.185913107273	792
1	1898	1612.371962201732	793
1	1901	1615.422464728446	794
1	1903	1617.182914701404	795
1	1905	1617.359671758368	796
1	1908	1618.574913790002	797
1	1910	1618.8171715679	798
1	1912	1621.499442885694	799
1	1915	1623.693029714185	800
1	1917	1627.038171466965	801
1	1919	1630.551055304557	802
1	1923	1635.79364030085	803
1	1925	1637.214728697607	804
1	1929	1640.716450685002	805
1	1931	1641.76759465163	806
1	1933	1641.828423577201	807
1	1935	1643.125604989133	808
1	1937	1646.089479015626	809
1	1941	1651.561779009627	810
1	1943	1653.037136911594	811
1	1945	1653.730428325172	812
1	1947	1658.062822281019	813
1	1949	1658.349174380152	814
1	1953	1659.576226599055	815
1	1955	1659.795544767244	816
1	1957	1661.351746445879	817
1	1959	1663.453970575111	818
1	1964	1668.220801814833	819
1	1966	1670.183035115156	820
1	1968	1671.808293606121	821
1	1971	1674.022896057037	822
1	1973	1674.437226622967	823
1	1976	1679.066572347309	824
1	1980	1681.352399038265	825
1	1982	1681.97212888825	826
1	1984	1682.000015769274	827
1	1986	1684.140922730065	828
1	1988	1685.097290006303	829
1	1990	1687.857960624055	830
1	1992	1691.165623217922	831
1	1994	1696.618324605802	832
1	1996	1698.334959880551	833
1	1998	1702.880719431067	834
1	2000	1703.209960546768	835
1	2002	1704.05199975436	836
1	2004	1704.852521386032	837
1	2006	1706.271568470759	838
1	2008	1712.33524702998	839
1	2010	1712.903796765171	840
1	2012	1712.965508586273	841
1	2014	1714.29993453412	842
1	2016	1717.311654207997	843
1	2018	1720.577248577897	844
1	2020	1720.977528572837	845
1	2022	1722.635144657745	846
1	2024	1723.115868708037	847
1	2026	1724.329948828565	848
1	2028	1726.44448395572	849
1	2030	1727.281537597694	850
1	2032	1727.592722232937	851
1	2034	1729.54577567854	852
1	2036	1730.505099200942	853
1	2038	1730.982527128788	854
1	2040	1732.02338541621	855
1	2042	1732.308917085728	856
1	2044	1734.460459975513	857
1	2046	1735.688642245404	858
1	2048	1737.122795376641	859
1	2050	1738.16018751449	860
1	2052	1739.478007966875	861
1	2054	1739.937900060101	862
1	2056	1741.422666502086	863
1	2058	1741.839549050917	864
1	2060	1745.122292654881	865
1	2062	1745.173203252761	866
1	2064	1748.436479120116	867
1	2066	1749.068360564251	868
1	2068	1749.387994990696	869
1	2070	1755.741924639789	870
1	2073	1765.799596592695	871
1	2079	1774.864194057436	872
1	2081	1775.004540621607	873
1	2083	1776.490178891104	874
1	2093	1787.443063977859	875
1	2095	1787.691877046619	876
1	2097	1787.955399404719	877
1	2099	1788.585438576613	878
1	2101	1788.713298284428	879
1	2103	1789.271359776767	880
1	2105	1791.706390898266	881
1	2107	1792.819951650469	882
1	2109	1799.307295862683	883
1	2111	1801.567006094655	884
1	2113	1804.057644205057	885
1	2115	1804.555845049754	886
1	2117	1806.731672405486	887
1	2119	1808.378752357605	888
1	2121	1808.665742577337	889
1	2123	1811.213580927319	890
1	2125	1811.61132484634	891
1	2130	1815.685689718047	892
1	2132	1816.026592375305	893
1	2134	1820.080968878616	894
1	2136	1820.270631139754	895
1	2138	1820.48467760409	896
1	2140	1827.626241316909	897
1	2142	1828.44989030343	898
1	2144	1829.876023330954	899
1	2146	1831.271745067111	900
1	2148	1832.470612440248	901
1	2150	1833.761236069149	902
1	2152	1834.561298809621	903
1	2154	1835.145409460341	904
1	2156	1836.505918940126	905
1	2158	1836.555572129651	906
1	2161	1836.865609858609	907
1	2164	1843.116276863661	908
1	2167	1843.443481287885	909
1	2169	1845.021511855686	910
1	2171	1848.399974390296	911
1	2173	1850.715758157022	912
1	2175	1851.190450744075	913
1	2177	1852.248116612727	914
1	2179	1852.429153068628	915
1	2182	1856.714159502603	916
1	2184	1857.693780219359	917
1	2186	1860.328715419044	918
1	2190	1864.806122953525	919
1	2192	1865.886947048377	920
1	2195	1867.006430193207	921
1	2197	1868.705181318354	922
1	2199	1871.612649737439	923
1	2201	1872.890393242405	924
1	2206	1883.596112766877	925
1	2208	1883.627930457239	926
1	2210	1883.668464151456	927
1	2212	1884.282451253124	928
1	2214	1884.511474058597	929
1	2216	1885.620297813118	930
1	2219	1887.993498127423	931
1	2221	1892.866281061176	932
1	2224	1897.292941150744	933
1	2226	1897.904784466205	934
1	2228	1899.261208306838	935
1	2230	1899.893605545526	936
1	2232	1900.039323351852	937
1	2234	1900.083833303173	938
1	2236	1900.269023247158	939
1	2238	1900.509630827214	940
1	2240	1900.734195567334	941
1	2242	1903.375404406323	942
1	2244	1903.824841194398	943
1	2246	1904.774831804885	944
1	2248	1908.971901256645	945
1	2250	1910.07678914349	946
1	2252	1915.814019498605	947
1	2254	1916.373494576643	948
1	2256	1916.66501749692	949
1	2258	1917.306566054337	950
1	2262	1921.220687908087	951
1	2264	1921.785265411412	952
1	2266	1924.615956252927	953
1	2268	1925.653949470305	954
1	2270	1927.971767453543	955
1	2272	1928.205576217313	956
1	2274	1932.086931465921	957
1	2276	1932.301040468927	958
1	2278	1932.826051175259	959
1	2280	1933.992140137942	960
1	2282	1935.457321969317	961
1	2284	1937.466882999972	962
1	2286	1938.308040826309	963
1	2288	1944.647977173657	964
1	2292	1946.798391423447	965
1	2294	1950.545547885296	966
1	2296	1951.210321786252	967
1	2298	1952.148798473657	968
1	2300	1953.544982988618	969
1	2302	1953.835243558827	970
1	2304	1954.557979784297	971
1	2306	1956.534876786353	972
1	2308	1958.143165758226	973
1	2310	1962.170545848075	974
1	2312	1962.521937984692	975
1	2316	1966.862615873831	976
1	2318	1968.543818381676	977
1	2320	1969.222662866029	978
1	2322	1970.552598278436	979
1	2324	1977.227428002237	980
1	2326	1977.500258058911	981
1	2328	1978.542015897563	982
1	2330	1980.111191145895	983
1	2332	1982.424397367339	984
1	2334	1982.87191136125	985
1	2336	1991.972196415172	986
1	2338	1994.190496815571	987
1	2340	1994.238466698792	988
1	2342	1995.871865319437	989
1	2344	1998.563243264982	990
1	2346	1999.092159803052	991
1	2348	2002.415584392892	992
1	2350	2003.86522539022	993
1	2352	2004.124329611436	994
1	2354	2004.880979066348	995
1	2356	2004.902073141495	996
1	2359	2008.65138880354	997
1	2361	2009.876218506712	998
1	2363	2011.062374372091	999
1	2365	2015.666030142636	1000
1	2367	2015.876940570676	1001
1	2369	2016.982415321911	1002
1	2371	2021.619683383389	1003
1	2373	2022.288893856382	1004
1	2375	2026.166003881362	1005
1	2377	2028.496173652712	1006
1	2379	2029.170842527611	1007
1	2383	2029.460824852515	1008
1	2385	2030.060374036435	1009
1	2387	2030.077888930208	1010
1	2389	2030.215241988437	1011
1	2395	2036.8208827508	1012
1	2397	2037.585254139509	1013
1	2399	2038.317944658617	1014
1	2401	2038.42441501217	1015
1	2403	2038.494161828542	1016
1	2405	2044.265705889472	1017
1	2407	2047.735025336054	1018
1	2410	2050.261178358521	1019
1	2414	2053.136613638757	1020
1	2416	2054.749958605193	1021
1	2418	2060.125508931002	1022
1	2420	2061.017285705101	1023
1	2422	2063.25383712444	1024
1	2424	2063.600597943952	1025
1	2428	2066.715718080077	1026
1	2432	2067.850362036119	1027
1	2434	2069.70541899212	1028
1	2436	2070.360656181125	1029
1	2438	2072.602247178019	1030
1	2440	2079.092565261409	1031
1	2442	2080.526331524064	1032
1	2444	2080.732906081505	1033
1	2446	2091.955675222313	1034
1	2449	2093.000781993642	1035
1	2451	2093.87038723485	1036
1	2453	2093.887210683355	1037
1	2455	2095.489019526717	1038
1	2457	2097.167951733034	1039
1	2459	2101.783754391864	1040
1	2461	2103.502676374699	1041
1	2463	2103.611287282248	1042
1	2465	2103.906302821327	1043
1	2467	2104.26358401427	1044
1	2469	2106.494400513906	1045
1	2471	2108.61413066798	1046
1	2473	2108.922470732533	1047
1	2475	2109.111772588193	1048
1	2479	2110.535338081154	1049
1	2481	2112.306027396521	1050
1	2483	2113.226171866663	1051
1	2485	2114.390949121461	1052
1	2487	2114.963934378285	1053
1	2490	2118.481133505106	1054
1	2492	2118.774151692282	1055
1	2494	2121.860832609397	1056
1	2496	2122.114888929043	1057
1	2498	2124.690550583265	1058
1	2500	2124.798171133709	1059
1	2502	2125.532271446133	1060
1	2506	2126.673774152487	1061
1	2508	2131.904480367334	1062
1	2510	2134.849975512262	1063
1	2512	2135.151002261382	1064
1	2514	2138.957468687084	1065
1	2516	2139.592927264625	1066
1	2519	2141.534857626044	1067
1	2521	2141.676087368712	1068
1	2524	2142.631796698289	1069
1	2526	2143.762943267028	1070
1	2528	2146.041255881594	1071
1	2530	2147.638480888679	1072
1	2532	2148.391552648721	1073
1	2534	2148.616801342234	1074
1	2538	2151.210717930921	1075
1	2540	2151.551514110335	1076
1	2542	2156.469598886845	1077
1	2544	2156.92073773523	1078
1	2546	2157.120147437179	1079
1	2548	2160.575813121146	1080
1	2550	2162.76292502098	1081
1	2552	2164.847144873875	1082
1	2554	2165.729970361273	1083
1	2558	2167.575406764048	1084
1	2560	2170.448822184854	1085
1	2562	2171.446089012664	1086
1	2566	2177.247140203922	1087
1	2568	2180.60428777623	1088
1	2570	2181.110828986937	1089
1	2572	2181.376589209109	1090
1	2574	2181.494504328115	1091
1	2576	2181.512557448621	1092
1	2578	2183.571486649275	1093
1	2580	2188.031793117361	1094
1	2582	2188.217728604076	1095
1	2584	2191.522140391274	1096
1	2588	2193.727010064221	1097
1	2590	2195.133568733845	1098
1	2592	2197.002587012507	1099
1	2594	2199.446269404429	1100
1	2596	2199.485858290507	1101
1	2598	2200.140424974055	1102
1	2600	2201.141493627886	1103
1	2604	2209.091132022243	1104
1	2606	2210.321680331376	1105
1	2608	2210.684577828141	1106
1	2610	2210.727302972581	1107
1	2612	2211.925401456334	1108
1	2614	2212.86122396971	1109
1	2616	2215.65634219518	1110
1	2618	2217.323769914278	1111
1	2620	2217.663916264399	1112
1	2622	2217.681745859655	1113
1	2624	2217.870506087381	1114
1	2626	2218.225998994686	1115
1	2628	2219.273197807005	1116
1	2630	2223.841347486733	1117
1	2632	2224.24116948626	1118
1	2634	2225.119523475404	1119
1	2636	2226.410013480141	1120
1	2638	2227.151426524771	1121
1	2640	2227.24517335465	1122
1	2642	2228.990470845651	1123
1	2644	2231.375224245176	1124
1	2646	2232.852202251171	1125
1	2650	2233.291495295851	1126
1	2653	2237.573376523529	1127
1	2655	2238.672788682812	1128
1	2657	2239.308643695368	1129
1	2659	2240.034034857376	1130
1	2661	2240.746870670177	1131
1	2663	2244.293491055935	1132
1	2665	2245.030947674723	1133
1	2667	2245.312695643125	1134
1	2669	2245.5256496371	1135
1	2671	2249.555980486071	1136
1	2673	2250.25515700089	1137
1	2675	2250.452512907769	1138
1	2677	2253.063083338736	1139
1	2679	2253.309995440237	1140
1	2681	2254.146728066133	1141
1	2683	2254.673086330766	1142
1	2685	2255.347021872992	1143
1	2689	2259.704747715145	1144
1	2691	2265.967742016793	1145
1	2693	2270.047365486218	1146
1	2698	2285.167469315827	1147
1	2700	2288.939764703565	1148
1	2702	2289.762787156428	1149
1	2705	2290.872486761745	1150
1	2707	2292.161663899416	1151
1	2710	2296.361122288355	1152
1	2716	2299.900918599574	1153
1	2718	2300.922278446326	1154
1	2720	2301.13167800612	1155
1	2724	2305.465203425394	1156
1	2726	2306.884222612965	1157
1	2730	2309.844831076245	1158
1	2732	2313.434397977776	1159
1	2734	2314.665122734889	1160
1	2736	2317.605544496141	1161
1	2738	2318.825061713179	1162
1	2740	2322.21070453554	1163
1	2742	2331.703734111925	1164
1	2744	2331.809586473411	1165
1	2746	2334.305681734714	1166
1	2748	2336.592841108443	1167
1	2750	2340.265519112292	1168
1	2752	2346.875129072922	1169
1	2754	2350.018726931377	1170
1	2756	2352.432998944783	1171
1	2758	2352.574929554946	1172
1	2760	2353.629674667689	1173
1	2762	2354.274895910092	1174
1	2764	2354.738862393456	1175
1	2766	2355.888624101386	1176
1	2769	2362.136786197541	1177
1	2771	2362.768495508321	1178
1	2773	2363.810285047563	1179
1	2775	2366.518897287504	1180
1	2777	2369.042667104065	1181
1	2779	2370.126472475035	1182
1	2781	2372.357977621943	1183
1	2783	2372.577280176341	1184
1	2785	2376.26933690523	1185
1	2787	2377.953856366293	1186
1	2789	2383.605511096042	1187
1	2791	2383.798499117551	1188
1	2793	2385.067505273087	1189
1	2795	2385.400295354288	1190
1	2797	2385.628238155402	1191
1	2799	2385.848762299045	1192
1	2801	2387.521344812873	1193
1	2805	2389.995964866624	1194
1	2808	2397.79783685387	1195
1	2810	2402.404864543083	1196
1	2812	2403.54288556153	1197
1	2814	2404.515737999523	1198
1	2816	2407.923613655602	1199
1	2818	2409.27228686222	1200
1	2820	2410.42212502728	1201
1	2822	2411.586154443576	1202
1	2824	2414.913249013183	1203
1	2826	2415.157108496065	1204
1	2828	2415.67882131237	1205
1	2830	2417.564059434175	1206
1	2832	2418.622643405294	1207
1	2836	2423.27249602774	1208
1	2838	2425.898220615331	1209
1	2840	2426.515077042005	1210
1	2843	2428.543514931063	1211
1	2845	2430.515563273416	1212
1	2849	2433.447474174047	1213
1	2851	2433.720657360612	1214
1	2855	2439.977998393023	1215
1	2857	2441.030622731745	1216
1	2859	2441.973853907613	1217
1	2861	2445.991461792888	1218
1	2863	2450.512456865633	1219
1	2865	2453.731048606536	1220
1	2868	2454.198650119783	1221
1	2870	2455.429073075649	1222
1	2872	2455.559636406719	1223
1	2874	2457.353679361407	1224
1	2876	2457.901031703421	1225
1	2880	2465.131369055113	1226
1	2885	2468.16143669393	1227
1	2887	2469.824706093397	1228
1	2889	2470.76815773633	1229
1	2891	2471.530912712286	1230
1	2893	2473.272991745245	1231
1	2895	2473.374519383604	1232
1	2897	2473.9278774029	1233
1	2901	2475.325729326202	1234
1	2903	2476.480210787423	1235
1	2905	2477.023801536005	1236
1	2907	2477.421806832298	1237
1	2909	2477.671569613888	1238
1	2911	2478.605571400257	1239
1	2913	2479.849895666072	1240
1	2915	2483.839117130218	1241
1	2917	2487.609960269042	1242
1	2919	2491.485756373805	1243
1	2921	2492.148023082775	1244
1	2924	2497.77749801316	1245
1	2926	2498.440286192934	1246
1	2928	2499.481162836068	1247
2	478	360.084668983354	13
2	483	362.631378542588	14
2	534	414.334465188728	15
2	613	478.803154086326	16
2	628	489.810118703759	17
2	649	504.090027493815	18
2	652	510.817891922436	19
2	673	545.169418556607	20
2	686	560.656247119728	21
2	697	573.593736329061	22
2	786	662.225303101553	23
2	817	688.520955718279	24
2	860	722.474653472476	25
2	863	724.971846141184	26
2	896	753.141367400695	27
2	967	817.518571523634	28
2	998	850.994074929971	29
2	1037	882.516754395484	30
2	1038	882.757193503729	31
2	1119	960.933005303724	32
2	1138	973.24250719298	33
2	1149	983.288167503304	34
2	1162	996.54919260433	35
2	1279	1112.175378780314	36
2	1296	1132.144840698729	37
2	1305	1138.423277039795	38
2	1374	1201.604830648877	39
2	1441	1244.168100916338	40
2	1506	1286.351834264165	41
2	1521	1295.426540951195	42
2	1552	1325.291831345365	43
2	1575	1341.390926859126	44
2	1590	1355.562337051009	45
2	1689	1450.781456735098	46
2	1716	1477.541226670782	47
2	1739	1491.260593775806	48
2	1792	1531.366153715564	49
2	1863	1577.969295903107	50
2	1892	1605.170385383074	51
2	1899	1615.020577648387	52
2	1906	1617.931755757513	53
2	1913	1622.834446660972	54
2	1926	1638.272978916515	55
2	1927	1639.53831723324	56
2	1962	1666.263330767495	57
2	1969	1673.443063298818	58
2	1974	1677.122091570223	59
2	2071	1761.850620107398	60
2	2084	1776.59083395717	61
2	2089	1784.582522143496	62
2	2090	1786.431172009873	63
2	2091	1786.511632304222	64
2	2126	1812.820693222183	65
2	2159	1836.70325391108	66
2	2162	1842.175015186546	67
2	2165	1843.211820634031	68
2	2180	1856.04753123502	69
2	2193	1866.154726286131	70
2	2204	1882.594933191661	71
2	2217	1887.492307450692	72
2	2222	1896.101731757271	73
2	2357	2005.330861168651	74
2	2408	2049.414984548407	75
2	2447	2092.770467775515	76
2	2488	2116.813173746047	77
2	2517	2141.07588091431	78
2	2522	2141.87519704031	79
2	2651	2234.805398874045	80
2	2696	2279.023229651859	81
2	2703	2290.784121441022	82
2	2708	2293.719701617258	83
2	2767	2358.493805074157	84
2	2806	2394.893920462986	85
2	2841	2427.84204584635	86
2	2866	2453.834140257879	87
2	2881	2465.908717248928	88
2	2922	2493.338832009879	89
3	478	360.084668983354	8
3	483	362.631378542588	7
3	519	407.023051346512	7
3	534	414.334465188728	7
3	572	451.986862219571	7
3	576	452.241254781419	8
3	582	456.269153484022	9
3	592	462.788085686888	10
3	606	471.750175842528	11
3	613	478.803154086326	11
3	627	485.838955213216	11
3	628	489.810118703759	11
3	649	504.090027493815	10
3	652	510.817891922436	9
3	656	519.115936014759	9
3	658	522.251961692532	10
3	664	530.364669045925	11
3	673	545.169418556607	11
3	686	560.656247119728	10
3	696	572.603760894772	10
3	697	573.593736329061	10
3	705	587.239462929909	10
3	729	603.134950270608	11
3	737	609.200889985245	12
3	743	610.173953034799	13
3	745	612.980541173579	14
3	777	652.09946073414	15
3	783	654.711139710773	16
3	786	662.225303101553	16
3	812	686.391080063499	16
3	817	688.520955718279	16
3	831	702.435029905981	16
3	845	711.955453553369	17
3	849	712.551934658254	18
3	855	721.347548185523	19
3	860	722.474653472476	19
3	863	724.971846141184	18
3	883	739.812602447366	18
3	887	744.908658692014	19
3	896	753.141367400695	19
3	920	772.705257103947	19
3	952	806.13012311482	20
3	960	811.858998937252	21
3	967	817.518571523634	21
3	998	850.994074929971	20
3	1018	863.28509472209	20
3	1022	867.68999344566	21
3	1030	876.537854406773	22
3	1037	882.516754395484	22
3	1038	882.757193503729	21
3	1056	893.602110190585	21
3	1066	901.844889125823	22
3	1096	948.259548206261	23
3	1119	960.933005303724	23
3	1138	973.24250719298	22
3	1149	983.288167503304	21
3	1162	996.54919260433	20
3	1198	1041.233624618206	20
3	1222	1055.755977745646	21
3	1232	1065.018720876321	22
3	1242	1075.275228128681	23
3	1246	1078.450599689527	24
3	1264	1093.025662129838	25
3	1276	1106.189148516697	26
3	1279	1112.175378780314	26
3	1296	1132.144840698729	25
3	1305	1138.423277039795	24
3	1321	1161.606097471778	24
3	1327	1163.578442419488	25
3	1373	1201.575345488697	26
3	1374	1201.604830648877	26
3	1376	1205.21468365384	26
3	1380	1209.074318248075	27
3	1394	1216.39044955247	28
3	1418	1231.062298958818	29
3	1424	1234.247326850965	30
3	1441	1244.168100916338	30
3	1455	1248.342184019664	30
3	1463	1253.386172667756	31
3	1475	1261.957583257431	32
3	1493	1277.467176934737	33
3	1495	1278.936722892472	34
3	1506	1286.351834264165	34
3	1521	1295.426540951195	33
3	1531	1306.576914852068	33
3	1551	1323.736502562113	34
3	1552	1325.291831345365	34
3	1568	1334.919738381796	34
3	1575	1341.390926859126	34
3	1581	1345.193422541783	34
3	1583	1347.404884195096	35
3	1590	1355.562337051009	35
3	1634	1395.880752839439	35
3	1674	1423.878087902705	36
3	1689	1450.781456735098	36
3	1699	1456.975740307744	36
3	1713	1475.209722097707	37
3	1716	1477.541226670782	37
3	1720	1478.042304220319	37
3	1739	1491.260593775806	37
3	1741	1491.383258494281	37
3	1769	1516.479068035088	38
3	1792	1531.366153715564	38
3	1863	1577.969295903107	37
3	1875	1590.50042477963	37
3	1889	1599.013666144167	38
3	1892	1605.170385383074	38
3	1899	1615.020577648387	37
3	1906	1617.931755757513	36
3	1913	1622.834446660972	35
3	1921	1631.434037847915	35
3	1926	1638.272978916515	35
3	1927	1639.53831723324	34
3	1939	1650.493728198422	34
3	1951	1658.593476369919	35
3	1961	1665.372692648625	36
3	1962	1666.263330767495	36
3	1969	1673.443063298818	35
3	1974	1677.122091570223	34
3	1978	1681.278513467016	34
3	2071	1761.850620107398	34
3	2075	1766.04703695457	34
3	2077	1773.520726651988	35
3	2084	1776.59083395717	35
3	2086	1779.875668708269	35
3	2088	1781.162383615031	36
3	2089	1784.582522143496	36
3	2090	1786.431172009873	35
3	2091	1786.511632304222	34
3	2126	1812.820693222183	33
3	2128	1815.390857124158	33
3	2159	1836.70325391108	33
3	2162	1842.175015186546	32
3	2165	1843.211820634031	31
3	2180	1856.04753123502	30
3	2188	1862.080332632237	30
3	2193	1866.154726286131	30
3	2203	1880.381953975635	30
3	2204	1882.594933191661	30
3	2217	1887.492307450692	29
3	2222	1896.101731757271	28
3	2260	1919.782592244217	28
3	2290	1945.274415883366	29
3	2314	1965.142792458315	30
3	2357	2005.330861168651	30
3	2381	2029.457987501145	30
3	2391	2034.339112489427	31
3	2393	2036.288220455867	32
3	2408	2049.414984548407	32
3	2412	2052.514086448142	32
3	2426	2064.672210610458	33
3	2430	2066.987813455407	34
3	2447	2092.770467775515	34
3	2477	2109.822365075834	34
3	2488	2116.813173746047	34
3	2504	2125.829693711752	34
3	2517	2141.07588091431	34
3	2522	2141.87519704031	33
3	2536	2149.756655770248	33
3	2556	2167.166571253802	34
3	2564	2174.916574713006	35
3	2586	2192.895363616005	36
3	2602	2201.892852908397	37
3	2648	2232.882083632135	38
3	2651	2234.805398874045	38
3	2687	2259.340022759345	38
3	2695	2277.162737970621	39
3	2696	2279.023229651859	39
3	2703	2290.784121441022	38
3	2708	2293.719701617258	37
3	2712	2296.648678655655	37
3	2714	2298.575357641728	38
3	2722	2303.500581520958	39
3	2728	2307.262137981784	40
3	2767	2358.493805074157	40
3	2803	2388.40867807511	40
3	2806	2394.893920462986	40
3	2834	2422.686534544323	40
3	2841	2427.84204584635	40
3	2847	2432.913250480392	40
3	2853	2438.546595932053	41
3	2866	2453.834140257879	41
3	2878	2463.754640204455	41
3	2881	2465.908717248928	41
3	2883	2467.837102292445	41
3	2899	2475.119593842137	42
3	2922	2493.338832009879	42
4	478	360.084668983354	168.57426400777
4	483	362.631378542588	165.67781600276
4	534	414.334465188728	209.89735923961
4	613	478.803154086326	260.93743760861
4	628	489.810118703759	263.08319493607
4	649	504.090027493815	216.13859410841
4	652	510.817891922436	209.33092830364
4	673	545.169418556607	238.41684264098
4	686	560.656247119728	240.42900460447
4	697	573.593736329061	166.57068498255
4	786	662.225303101553	210.23844088198
4	817	688.520955718279	236.27970093686
4	860	722.474653472476	266.20549998845
4	863	724.971846141184	262.1837604543
4	896	753.141367400695	281.39119155817
4	967	817.518571523634	331.67961631042
4	998	850.994074929971	331.87813891521
4	1037	882.516754395484	360.26479270295
4	1038	882.757193503729	352.3925244578
4	1119	960.933005303724	388.32924440895
4	1138	973.24250719298	386.00304426307
4	1149	983.288167503304	380.1532172327
4	1162	996.54919260433	387.34830261909
4	1279	1112.175378780314	502.00142574552
4	1296	1132.144840698729	519.16429952515
4	1305	1138.423277039795	486.32381630565
4	1374	1201.604830648877	546.8936909381
4	1441	1244.168100916338	557.77702085284
4	1506	1286.351834264165	583.91680435818
4	1521	1295.426540951195	583.47108739783
4	1552	1325.291831345365	612.73989668711
4	1575	1341.390926859126	620.0433786736
4	1590	1355.562337051009	615.74973460364
4	1689	1450.781456735098	705.87279804308
4	1716	1477.541226670782	704.83596956683
4	1739	1491.260593775806	685.13047066099
4	1792	1531.366153715564	719.50715477831
4	1863	1577.969295903107	714.68420118102
4	1892	1605.170385383074	737.48039193741
4	1899	1615.020577648387	738.48272324161
4	1906	1617.931755757513	724.32964556693
4	1913	1622.834446660972	720.98955753515
4	1926	1638.272978916515	690.01343071025
4	1927	1639.53831723324	598.30469261503
4	1962	1666.263330767495	610.50735302185
4	1969	1673.443063298818	608.4243424225
4	1974	1677.122091570223	601.84686344154
4	2071	1761.850620107398	683.40002041787
4	2084	1776.59083395717	683.56517182733
4	2089	1784.582522143496	678.3933736268
4	2090	1786.431172009873	624.8250745381
4	2091	1786.511632304222	622.93318988473
4	2126	1812.820693222183	611.24534773349
4	2159	1836.70325391108	631.48857025724
4	2162	1842.175015186546	633.10069693847
4	2165	1843.211820634031	626.82137108156
4	2180	1856.04753123502	624.9852322762
4	2193	1866.154726286131	631.90739943517
4	2204	1882.594933191661	634.252749172
4	2217	1887.492307450692	634.10613478294
4	2222	1896.101731757271	634.14414849984
4	2357	2005.330861168651	727.86368423391
4	2408	2049.414984548407	770.47826165593
4	2447	2092.770467775515	786.19355292345
4	2488	2116.813173746047	793.07667118393
4	2517	2141.07588091431	806.15614253251
4	2522	2141.87519704031	796.68177449853
4	2651	2234.805398874045	887.40051467895
4	2696	2279.023229651859	883.14247681242
4	2703	2290.784121441022	866.90603353832
4	2708	2293.719701617258	836.74396130951
4	2767	2358.493805074157	883.28408297645
4	2806	2394.893920462986	916.85161624267
4	2841	2427.84204584635	936.45878735207
4	2866	2453.834140257879	937.35507222279
4	2881	2465.908717248928	875.4082924693
4	2922	2493.338832009879	894.32516586571
5	478	360.084668983354	163.13110644353
5	483	362.631378542588	158.19427259347
5	534	414.334465188728	196.46874871101
5	613	478.803154086326	252.07623031863
5	628	489.810118703759	201.85868531835
5	649	504.090027493815	202.60306387502
5	652	510.817891922436	204.06531600681
5	673	545.169418556607	224.94217604135
5	686	560.656247119728	153.63319577322
5	697	573.593736329061	121.60687410949
5	786	662.225303101553	209.98404832013
5	817	688.520955718279	232.25180223426
5	860	722.474653472476	259.68656778559
5	863	724.971846141184	253.22167029866
5	896	753.141367400695	267.30241218748
5	967	817.518571523634	298.40263550887
5	998	850.994074929971	328.74211323744
5	1037	882.516754395484	352.15208534956
5	1038	882.757193503729	310.15343260896
5	1119	960.933005303724	373.69354237381
5	1138	973.24250719298	370.10755692237
5	1149	983.288167503304	374.08727751806
5	1162	996.54919260433	386.37523956953
5	1279	1112.175378780314	499.19483760674
5	1296	1132.144840698729	480.04537996459
5	1305	1138.423277039795	483.71213732902
5	1374	1201.604830648877	515.21375058538
5	1441	1244.168100916338	541.73307101036
5	1506	1286.351834264165	574.3963807108
5	1521	1295.426540951195	582.87460629294
5	1552	1325.291831345365	603.94428315984
5	1575	1341.390926859126	601.57832441176
5	1590	1355.562337051009	610.65367835899
5	1689	1450.781456735098	678.07619963115
5	1716	1477.541226670782	671.41110355596
5	1739	1491.260593775806	679.40159483855
5	1792	1531.366153715564	668.08105899347
5	1863	1577.969295903107	710.27930245745
5	1892	1605.170385383074	728.6325309763
5	1899	1615.020577648387	721.4184674578
5	1906	1617.931755757513	716.08686663169
5	1913	1622.834446660972	674.57489845471
5	1926	1638.272978916515	597.03935429831
5	1927	1639.53831723324	583.78233948759
5	1962	1666.263330767495	601.24460989117
5	1969	1673.443063298818	598.16783517014
5	1974	1677.122091570223	598.6714918807
5	2071	1761.850620107398	668.82495797756
5	2084	1776.59083395717	670.40168544047
5	2089	1784.582522143496	622.97642467172
5	2090	1786.431172009873	622.85272959039
5	2091	1786.511632304222	584.93628681553
5	2126	1812.820693222183	607.60600956834
5	2159	1836.70325391108	627.628935663
5	2162	1842.175015186546	625.78456563408
5	2165	1843.211820634031	612.14952167521
5	2180	1856.04753123502	621.80020438405
5	2193	1866.154726286131	617.81254226647
5	2204	1882.594933191661	629.2087605239
5	2217	1887.492307450692	625.53472419326
5	2222	1896.101731757271	618.63455482253
5	2357	2005.330861168651	726.39413827618
5	2408	2049.414984548407	742.83806969634
5	2447	2092.770467775515	769.0339652134
5	2488	2116.813173746047	781.89343536425
5	2517	2141.07588091431	795.88245837253
5	2522	2141.87519704031	794.47031284521
5	2651	2234.805398874045	838.92464603461
5	2696	2279.023229651859	855.14514174915
5	2703	2290.784121441022	833.80838113328
5	2708	2293.719701617258	818.50997951955
5	2767	2358.493805074157	880.45150085384
5	2806	2394.893920462986	903.5106619687
5	2841	2427.84204584635	911.36297781126
5	2866	2453.834140257879	863.33371547825
5	2881	2465.908717248928	866.89505110476
5	2922	2493.338832009879	861.90479416196
6	519	407.023051346512	8
6	572	451.986862219571	8
6	576	452.241254781419	9
6	582	456.269153484022	10
6	592	462.788085686888	11
6	606	471.750175842528	12
6	627	485.838955213216	12
6	656	519.115936014759	10
6	658	522.251961692532	11
6	664	530.364669045925	12
6	696	572.603760894772	11
6	705	587.239462929909	11
6	729	603.134950270608	12
6	737	609.200889985245	13
6	743	610.173953034799	14
6	745	612.980541173579	15
6	777	652.09946073414	16
6	783	654.711139710773	17
6	812	686.391080063499	17
6	831	702.435029905981	17
6	845	711.955453553369	18
6	849	712.551934658254	19
6	855	721.347548185523	20
6	883	739.812602447366	19
6	887	744.908658692014	20
6	920	772.705257103947	20
6	952	806.13012311482	21
6	960	811.858998937252	22
6	1018	863.28509472209	21
6	1022	867.68999344566	22
6	1030	876.537854406773	23
6	1056	893.602110190585	22
6	1066	901.844889125823	23
6	1096	948.259548206261	24
6	1198	1041.233624618206	21
6	1222	1055.755977745646	22
6	1232	1065.018720876321	23
6	1242	1075.275228128681	24
6	1246	1078.450599689527	25
6	1264	1093.025662129838	26
6	1276	1106.189148516697	27
6	1321	1161.606097471778	25
6	1327	1163.578442419488	26
6	1373	1201.575345488697	27
6	1376	1205.21468365384	27
6	1380	1209.074318248075	28
6	1394	1216.39044955247	29
6	1418	1231.062298958818	30
6	1424	1234.247326850965	31
6	1455	1248.342184019664	31
6	1463	1253.386172667756	32
6	1475	1261.957583257431	33
6	1493	1277.467176934737	34
6	1495	1278.936722892472	35
6	1531	1306.576914852068	34
6	1551	1323.736502562113	35
6	1568	1334.919738381796	35
6	1581	1345.193422541783	35
6	1583	1347.404884195096	36
6	1634	1395.880752839439	36
6	1674	1423.878087902705	37
6	1699	1456.975740307744	37
6	1713	1475.209722097707	38
6	1720	1478.042304220319	38
6	1741	1491.383258494281	38
6	1769	1516.479068035088	39
6	1875	1590.50042477963	38
6	1889	1599.013666144167	39
6	1921	1631.434037847915	36
6	1939	1650.493728198422	35
6	1951	1658.593476369919	36
6	1961	1665.372692648625	37
6	1978	1681.278513467016	35
6	2075	1766.04703695457	35
6	2077	1773.520726651988	36
6	2086	1779.875668708269	36
6	2088	1781.162383615031	37
6	2128	1815.390857124158	34
6	2188	1862.080332632237	31
6	2203	1880.381953975635	31
6	2260	1919.782592244217	29
6	2290	1945.274415883366	30
6	2314	1965.142792458315	31
6	2381	2029.457987501145	31
6	2391	2034.339112489427	32
6	2393	2036.288220455867	33
6	2412	2052.514086448142	33
6	2426	2064.672210610458	34
6	2430	2066.987813455407	35
6	2477	2109.822365075834	35
6	2504	2125.829693711752	35
6	2536	2149.756655770248	34
6	2556	2167.166571253802	35
6	2564	2174.916574713006	36
6	2586	2192.895363616005	37
6	2602	2201.892852908397	38
6	2648	2232.882083632135	39
6	2687	2259.340022759345	39
6	2695	2277.162737970621	40
6	2712	2296.648678655655	38
6	2714	2298.575357641728	39
6	2722	2303.500581520958	40
6	2728	2307.262137981784	41
6	2803	2388.40867807511	41
6	2834	2422.686534544323	41
6	2847	2432.913250480392	41
6	2853	2438.546595932053	42
6	2878	2463.754640204455	42
6	2883	2467.837102292445	42
6	2899	2475.119593842137	43
7	2929	2500	0.0108
8	2929	2500	0.0356

