version 2
run factors_calibration_bosses-218-20230303-16:36:49-8742
attr configname factors_calibration_bosses
attr datetime 20230303-16:36:49
attr experiment factors_calibration_bosses
attr inifile omnetpp.ini
attr iterationvars $0=20
attr iterationvarsf 20-
attr measurement $0=20
attr network Network
attr processid 8742
attr repetition 8
attr replication #8
attr resultdir results
attr runnumber 218
attr seedset 8
param *.minion.arrival_mean 2
param *.minion.service_mean 1
param *.boss.arrival_mean 20
param *.boss.service_mean 20
param *.player.recover_rate_x 100
param **.minion.arrival_distribution 0
param **.minion.service_distribution 0
param **.boss.arrival_distribution 0
param **.boss.service_distribution 0

vector 0 Network.player minion_jobs_number_stat:vector ETV
attr source signal_minion_jobs_number
vector 1 Network.player minion_jobs_queue_number_stat:vector ETV
attr source signal_minion_jobs_queue_number
vector 2 Network.player boss_jobs_number_stat:vector ETV
attr source signal_boss_jobs_number
vector 3 Network.player boss_jobs_queue_number_stat:vector ETV
attr source signal_boss_jobs_queue_number
vector 4 Network.player boss_defeated_stat:vector ETV
attr source signal_boss_defeated
vector 5 Network.player boss_response_time_stat:vector ETV
attr source signal_boss_response_time
vector 6 Network.player boss_waiting_time_stat:vector ETV
attr source signal_boss_waiting_time
vector 7 Network.player minion_throughput:vector ETV
attr source signal_minion_throughput
vector 8 Network.player boss_throughput:vector ETV
attr source signal_boss_throughput
0	441	352.333181774688	134
0	443	352.618903067295	135
0	445	352.642751544675	136
0	447	353.018699850074	137
0	449	353.09400268261	138
0	451	353.657307826564	139
0	453	355.719901715601	140
0	455	355.807102456581	141
0	457	357.620128082388	142
0	459	358.133494771721	143
0	461	358.670617077942	144
0	463	360.636184051116	145
0	465	362.545909558653	146
0	467	364.557919448585	147
0	469	365.545908491281	148
0	471	367.06850219556	149
0	473	369.263176013343	150
0	475	371.922138824471	151
0	477	373.34171649595	152
0	481	376.718306398117	153
0	483	377.493446818173	154
0	485	378.432993890857	155
0	487	379.397612465772	156
0	489	382.666329316104	157
0	491	383.647910713815	158
0	493	387.882602964898	159
0	495	392.381242743408	160
0	497	394.149321823634	161
0	499	396.048876198007	162
0	501	398.182216169988	163
0	503	400.445303750566	164
0	505	401.13151359358	165
0	507	401.41531705397	166
0	509	402.398563387381	167
0	511	403.063701287426	168
0	513	403.33604071065	169
0	515	403.391761761187	170
0	517	403.87033687275	171
0	519	404.46412300138	172
0	521	407.277555431556	173
0	523	408.032072719437	174
0	525	409.76170338167	175
0	527	409.953662169878	176
0	529	411.952092428327	177
0	531	412.381589147442	178
0	535	418.701030490526	179
0	537	419.445990032409	180
0	539	419.643981368745	181
0	541	421.076747642662	182
0	543	421.350053035053	183
0	545	422.247311449222	184
0	547	423.291339164035	185
0	549	426.032458494153	186
0	551	426.536366255475	187
0	553	427.853241171213	188
0	555	429.370082826348	189
0	557	431.042935645669	190
0	559	434.593672383311	191
0	562	442.047173147815	192
0	564	443.90094409368	193
0	566	445.240475048691	194
0	568	445.650565391983	195
0	570	446.237808710915	196
0	572	447.198105831893	197
0	574	454.863212470444	198
0	576	455.529873171505	199
0	578	455.873874324998	200
0	582	458.304025755451	201
0	584	460.401921937195	202
0	586	460.987439655972	203
0	588	461.001483054972	204
0	590	463.867341214548	205
0	592	464.052490251005	206
0	594	464.701331528679	207
0	596	465.805263696869	208
0	598	465.897604603246	209
0	601	467.576741402589	210
0	603	473.290613608975	211
0	605	475.376632041809	212
0	609	476.828961612593	213
0	611	477.063798806239	214
0	613	479.767104600048	215
0	615	480.556172591671	216
0	617	482.380821434645	217
0	621	489.417868435504	218
0	625	499.989878340888	219
0	627	500.259879692862	220
0	629	500.607597358181	221
0	631	500.655858299092	222
0	633	501.737096666521	223
0	636	505.424032087661	224
0	638	506.80773772192	225
0	640	507.255741666725	226
0	642	509.550390246772	227
0	644	510.701934371821	228
0	646	513.423678443141	229
0	648	513.974377652572	230
0	650	514.067950322396	231
0	652	514.282407945335	232
0	654	515.951825759665	233
0	656	516.298205345638	234
0	660	522.374517034523	235
0	662	522.464371237559	236
0	664	526.497610077274	237
0	666	527.118269385463	238
0	668	527.579577130161	239
0	672	531.682919477915	240
0	674	533.572426542712	241
0	676	533.946482933972	242
0	678	535.042532999748	243
0	680	535.233834069005	244
0	682	536.430510006116	245
0	684	538.744643684094	246
0	686	538.834649453024	247
0	688	541.968491404339	248
0	690	541.982230158334	249
0	692	542.70474126349	250
0	694	544.124719196285	251
0	696	547.4434074662	252
0	698	548.428209260346	253
0	700	548.530812501826	254
0	702	550.257999576215	255
0	704	550.762131300229	256
0	707	551.102598887422	257
0	709	553.049767566151	258
0	711	557.526889734878	259
0	713	559.072968219445	260
0	715	559.095286129854	261
0	717	561.626825473118	262
0	721	564.510238123991	263
0	723	568.696415504181	264
0	725	571.662530595221	265
0	727	572.109486800769	266
0	729	573.810456366762	267
0	731	574.783046611082	268
0	733	582.761934051697	269
0	735	583.731777848667	270
0	737	583.749208220343	271
0	739	599.942326828402	272
0	741	600.244439951167	273
0	743	601.677537830707	274
0	745	602.158165395523	275
0	747	602.715889031632	276
0	749	603.975557974044	277
0	751	605.393962808089	278
0	753	608.695654294465	279
0	755	609.60611134896	280
0	757	611.444679598284	281
0	759	613.320819634774	282
0	761	614.388191922671	283
0	763	617.44275636639	284
0	765	618.363720736656	285
0	769	619.774264056599	286
0	772	622.107141231082	287
0	774	623.398056328938	288
0	777	625.341679239785	289
0	781	626.886984002966	290
0	783	630.000968821658	291
0	785	630.054310925111	292
0	787	630.233370954797	293
0	789	631.332880528452	294
0	791	631.438983731368	295
0	793	633.717474812627	296
0	795	634.702236641469	297
0	797	637.201346972567	298
0	799	638.493750006673	299
0	801	639.969159033214	300
0	803	642.873070723528	301
0	805	645.986257074579	302
0	807	647.640710094945	303
0	809	648.997326593938	304
0	811	649.473119210582	305
0	813	650.782852779385	306
0	815	655.795963815323	307
0	819	658.104049466935	308
0	821	658.524332781908	309
0	823	662.084577891361	310
0	825	662.624817825732	311
0	827	663.104718275415	312
0	829	663.408804231936	313
0	831	663.764771872086	314
0	833	664.185809481962	315
0	835	669.198806345173	316
0	838	671.609198276336	317
0	840	675.535331549947	318
0	842	677.21039460594	319
0	845	678.968374890127	320
0	847	681.493447362957	321
0	849	688.194166821405	322
0	851	688.560653061135	323
0	853	689.302660000947	324
0	855	690.607028643204	325
0	857	691.424937515637	326
0	861	695.148820229527	327
0	863	698.446918390281	328
0	865	700.054206775548	329
0	870	704.762616470474	330
0	872	708.914072462773	331
0	876	715.683763283382	332
0	878	715.773810485621	333
0	880	716.068726673621	334
0	882	716.743201098891	335
0	884	717.474539836818	336
0	886	718.203205139001	337
0	888	719.535227932538	338
0	894	723.431068214305	339
0	896	725.013218450444	340
0	898	727.607615085799	341
0	900	727.675270854914	342
0	902	728.543603612448	343
0	904	730.480337703097	344
0	906	731.598042291734	345
0	910	734.143882947703	346
0	912	737.728014886272	347
0	914	739.452388340084	348
0	916	739.644910464484	349
0	918	740.279065626368	350
0	920	740.711463441132	351
0	922	741.204898971096	352
0	924	741.880523112494	353
0	926	742.031465557417	354
0	928	743.670386114765	355
0	930	749.35400080195	356
0	932	749.727335813627	357
0	934	750.576001050246	358
0	936	751.017880793835	359
0	938	752.157672428595	360
0	940	757.141934249665	361
0	944	759.339507287948	362
0	946	759.513391091394	363
0	948	759.768417884036	364
0	950	761.133216728832	365
0	952	765.465871825149	366
0	956	767.182093215448	367
0	958	771.250847057823	368
0	960	771.351640898625	369
0	962	772.552357328017	370
0	964	778.835424781065	371
0	966	778.960782877194	372
0	968	779.3218646576	373
0	972	780.489352757643	374
0	974	780.646884623691	375
0	976	782.183759622594	376
0	978	784.892471924192	377
0	980	788.08718558267	378
0	982	789.913215783805	379
0	984	791.412134132491	380
0	987	795.15462289679	381
0	989	795.766354242092	382
0	991	799.668531654578	383
0	993	800.779716990018	384
0	996	805.403744806986	385
0	999	808.33446811599	386
0	1001	810.188529587933	387
0	1003	814.662956548694	388
0	1005	815.043465570599	389
0	1007	818.635460041584	390
0	1011	822.161802435203	391
0	1013	823.075708355059	392
0	1015	823.690104814858	393
0	1017	825.184517064639	394
0	1019	825.906882127551	395
0	1021	827.149443761035	396
0	1023	827.413908261554	397
0	1025	827.54440003504	398
0	1027	828.104441922114	399
0	1029	828.1982557005	400
0	1031	829.961897103522	401
0	1033	830.499871602215	402
0	1035	831.105466210934	403
0	1039	835.36792976058	404
0	1041	835.828238389794	405
0	1043	837.068494041228	406
0	1045	841.605053110058	407
0	1049	847.114380929889	408
0	1051	847.310589978675	409
0	1053	847.773463871542	410
0	1055	848.242148769628	411
0	1057	848.326270687632	412
0	1059	850.704445446251	413
0	1061	851.110132609278	414
0	1065	853.639820894422	415
0	1067	854.095856027687	416
0	1069	855.759679025537	417
0	1071	856.548951331035	418
0	1073	862.42654099757	419
0	1077	866.906031136127	420
0	1079	873.811410090334	421
0	1081	876.307636237267	422
0	1083	878.331663673267	423
0	1085	878.891781295021	424
0	1087	880.223990688565	425
0	1089	881.843266562581	426
0	1091	883.631424460483	427
0	1093	884.166475507438	428
0	1095	885.536672740463	429
0	1097	887.94290677033	430
0	1099	896.540896446384	431
0	1101	898.757886073071	432
0	1103	902.487653387744	433
0	1105	902.610501722465	434
0	1107	904.315327762311	435
0	1109	907.191731998223	436
0	1111	910.632077496778	437
0	1113	911.678428506347	438
0	1115	915.524283736393	439
0	1117	916.876551360863	440
0	1119	917.427958781667	441
0	1121	917.810626345359	442
0	1123	918.356064517384	443
0	1125	919.871382437253	444
0	1129	924.021076826959	445
0	1131	927.238014210512	446
0	1133	930.473606151477	447
0	1135	930.87754272746	448
0	1139	931.661931494075	449
0	1141	931.791985401453	450
0	1145	933.822763272667	451
0	1147	935.974991307359	452
0	1149	939.036022886302	453
0	1151	940.464189090846	454
0	1153	943.356263470897	455
0	1155	945.081848763083	456
0	1158	952.140874759732	457
0	1160	953.682690601841	458
0	1162	956.974895256899	459
0	1164	957.639559493664	460
0	1166	958.236809741966	461
0	1168	959.044455265224	462
0	1170	966.443395500899	463
0	1172	967.077678291844	464
0	1174	968.536836055521	465
0	1176	969.506605374727	466
0	1178	969.797765855932	467
0	1180	969.88978001191	468
0	1182	971.225256345039	469
0	1184	972.018387198809	470
0	1186	973.812186569487	471
0	1188	984.108265502876	472
0	1190	985.542779727404	473
0	1192	986.250151562076	474
0	1194	986.850756178646	475
0	1196	988.616071887995	476
0	1198	995.710530714225	477
0	1200	995.832687028867	478
0	1202	995.849178500916	479
0	1204	1000.099086557465	480
0	1206	1001.452295908778	481
0	1208	1002.078526205301	482
0	1210	1002.704762939368	483
0	1212	1008.195465032965	484
0	1214	1014.643218066679	485
0	1216	1014.991341972661	486
0	1218	1017.00212424879	487
0	1220	1017.399230401674	488
0	1222	1019.489262756018	489
0	1224	1023.897797282363	490
0	1226	1027.631506098931	491
0	1228	1028.395356466992	492
0	1230	1028.425117614467	493
0	1232	1030.204597451667	494
0	1234	1030.279907184648	495
0	1236	1030.476054096343	496
0	1238	1031.201831353773	497
0	1240	1031.499421556836	498
0	1242	1037.36573902516	499
0	1244	1037.730719834647	500
0	1246	1040.411537838565	501
0	1249	1041.482589708059	502
0	1252	1042.087100261356	503
0	1254	1047.878001170785	504
0	1256	1048.135853521238	505
0	1258	1050.052923363906	506
0	1260	1051.06845979527	507
0	1262	1054.873809504648	508
0	1264	1056.191856112335	509
0	1266	1057.450473397239	510
0	1270	1060.064062718172	511
0	1272	1060.380772624942	512
0	1274	1060.605598619033	513
0	1276	1061.598742497903	514
0	1278	1065.169453020764	515
0	1281	1070.388764775577	516
0	1283	1072.578014533264	517
0	1285	1073.622430365012	518
0	1287	1074.27283058041	519
0	1289	1077.60951092111	520
0	1291	1077.708425201823	521
0	1294	1078.795568015789	522
0	1296	1079.696675470247	523
0	1298	1080.578505426827	524
0	1300	1082.436836284774	525
0	1302	1082.865530305703	526
0	1305	1084.939221008051	527
0	1307	1086.404232714277	528
0	1309	1086.830639558626	529
0	1311	1087.582073889741	530
0	1313	1092.111446723279	531
0	1315	1096.156759799007	532
0	1317	1099.959055262333	533
0	1319	1100.727925766117	534
0	1321	1103.471399295281	535
0	1323	1105.623356847158	536
0	1325	1106.02092695098	537
0	1327	1107.50762074563	538
0	1329	1107.911203719756	539
0	1334	1108.732255477723	540
0	1336	1110.785733669377	541
0	1339	1115.355968880711	542
0	1341	1117.693877870779	543
0	1343	1118.722165903362	544
0	1345	1120.168164013802	545
0	1347	1121.411926018846	546
0	1349	1124.576086466994	547
0	1351	1124.893930005548	548
0	1353	1126.761236989814	549
0	1356	1130.309919937255	550
0	1360	1133.339794789963	551
0	1362	1134.499271629966	552
0	1364	1134.837936715614	553
0	1368	1136.178182261819	554
0	1370	1136.243071291833	555
0	1374	1138.313939649631	556
0	1376	1139.320102554962	557
0	1378	1139.573896070047	558
0	1381	1142.621222950103	559
0	1383	1144.162815881716	560
0	1385	1144.508541969904	561
0	1387	1147.580850215109	562
0	1391	1149.532891109719	563
0	1393	1149.866376728641	564
0	1395	1149.876156675373	565
0	1397	1150.918852115847	566
0	1399	1150.96622693047	567
0	1401	1151.324951730512	568
0	1403	1151.9402893947	569
0	1405	1153.456799408931	570
0	1407	1154.829767942104	571
0	1409	1155.339673863915	572
0	1411	1156.220244584578	573
0	1413	1157.856334456743	574
0	1415	1161.232460856012	575
0	1417	1161.795191238778	576
0	1419	1163.092367510274	577
0	1423	1164.700049354732	578
0	1425	1165.011185488036	579
0	1427	1165.938361499415	580
0	1431	1169.787330324831	581
0	1433	1169.863568194792	582
0	1435	1171.916118943996	583
0	1437	1172.108096332442	584
0	1439	1172.791214944743	585
0	1443	1176.24097207437	586
0	1448	1183.389959302039	587
0	1450	1185.569903128226	588
0	1452	1187.176440449509	589
0	1454	1188.564022956712	590
0	1457	1189.727268030003	591
0	1459	1189.826181511248	592
0	1461	1191.076709997514	593
0	1463	1196.23845656971	594
0	1465	1196.437588000751	595
0	1467	1197.952858591391	596
0	1469	1199.507125277261	597
0	1471	1201.650528944241	598
0	1473	1202.972515582805	599
0	1475	1205.408895520015	600
0	1477	1205.709534067649	601
0	1479	1206.314418773518	602
0	1481	1207.45669927708	603
0	1483	1209.010049897097	604
0	1485	1209.668391750652	605
0	1487	1210.032023245227	606
0	1489	1210.844465167286	607
0	1491	1211.42279816072	608
0	1493	1214.246971044042	609
0	1497	1217.799690255823	610
0	1501	1220.721154720786	611
0	1503	1220.748040957416	612
0	1505	1221.745715148395	613
0	1507	1221.872949309375	614
0	1509	1223.081600665168	615
0	1511	1226.598779161324	616
0	1513	1226.694269114103	617
0	1515	1227.813591873888	618
0	1517	1228.708898289426	619
0	1519	1229.212189453596	620
0	1521	1229.894181748423	621
0	1523	1230.386431397615	622
0	1527	1234.003750997634	623
0	1529	1235.014500122995	624
0	1531	1237.164444444907	625
0	1533	1239.968134837808	626
0	1535	1240.021673342038	627
0	1538	1242.358180316437	628
0	1540	1245.504001026825	629
0	1542	1248.077424699872	630
0	1544	1248.869610446026	631
0	1547	1255.295432425885	632
0	1549	1257.140842048209	633
0	1553	1261.682538105081	634
0	1555	1266.440371804401	635
0	1557	1267.410292594288	636
0	1559	1272.374272074981	637
0	1563	1274.161334730804	638
0	1565	1275.286269820936	639
0	1567	1275.416579539731	640
0	1569	1281.021383995517	641
0	1571	1281.190814012279	642
0	1573	1284.369466470228	643
0	1575	1285.348137053206	644
0	1578	1291.618480732869	645
0	1580	1292.920033991161	646
0	1582	1293.741004997687	647
0	1584	1293.86384012255	648
0	1586	1295.203034431945	649
0	1588	1297.481240944431	650
0	1590	1300.595664792498	651
0	1592	1308.413388974055	652
0	1594	1309.349430135443	653
0	1596	1312.228024177158	654
0	1598	1312.53894131886	655
0	1600	1312.925025317178	656
0	1602	1313.570094390989	657
0	1604	1314.133097621721	658
0	1606	1315.485977416197	659
0	1608	1316.933928780616	660
0	1612	1317.878140922996	661
0	1614	1318.658514378934	662
0	1617	1319.278031595866	663
0	1619	1320.039183043433	664
0	1621	1320.254908179987	665
0	1623	1320.837071062697	666
0	1625	1322.512170790683	667
0	1627	1324.34919695497	668
0	1630	1326.932861242319	669
0	1632	1327.581091148777	670
0	1634	1331.270812924579	671
0	1636	1332.29190772577	672
0	1638	1343.303641538922	673
0	1640	1346.209348515403	674
0	1642	1349.487467715743	675
0	1644	1349.57947901691	676
0	1646	1350.432799568348	677
0	1648	1353.198901555631	678
0	1650	1353.829196757428	679
0	1652	1357.524795070702	680
0	1656	1361.879211228074	681
0	1658	1362.416846934048	682
0	1661	1367.952469154064	683
0	1663	1368.875589877287	684
0	1665	1376.742858184314	685
0	1667	1377.253399828932	686
0	1669	1383.528585468163	687
0	1671	1385.262681001325	688
0	1673	1390.611246876484	689
0	1675	1391.698551360245	690
0	1677	1392.369688254587	691
0	1679	1392.72949826075	692
0	1681	1396.997434363786	693
0	1683	1399.273766972318	694
0	1685	1403.552393599819	695
0	1687	1409.259220729538	696
0	1691	1414.562372771761	697
0	1693	1416.533323505003	698
0	1695	1418.808489510235	699
0	1699	1425.493743698549	700
0	1701	1428.768533613186	701
0	1703	1430.851810629388	702
0	1705	1430.877800397209	703
0	1707	1433.103135260996	704
0	1709	1434.494607074792	705
0	1711	1435.292769687743	706
0	1713	1439.437351368825	707
0	1715	1444.689372999248	708
0	1717	1446.20494365202	709
0	1720	1446.668922466388	710
0	1722	1450.344280677899	711
0	1724	1450.9736969854	712
0	1726	1452.077498085046	713
0	1728	1452.875623813898	714
0	1730	1453.370265294237	715
0	1732	1454.542575869421	716
0	1736	1455.781363088095	717
0	1738	1459.465782559478	718
0	1740	1459.472261608342	719
0	1743	1462.249316475276	720
0	1745	1463.52777620269	721
0	1747	1464.596098750978	722
0	1749	1465.590000412654	723
0	1751	1467.555244025188	724
0	1753	1467.599088951794	725
0	1757	1476.047833132845	726
0	1759	1476.977408500374	727
0	1761	1478.308829258635	728
0	1764	1488.178444007151	729
0	1766	1489.793387705978	730
0	1768	1491.939045756507	731
0	1770	1494.390864146928	732
0	1772	1494.899028007613	733
0	1774	1496.571054633118	734
0	1776	1497.247614344528	735
0	1778	1500.335207022073	736
0	1780	1501.522449663857	737
0	1782	1502.071325254032	738
0	1784	1504.136733491523	739
0	1786	1507.078787758028	740
0	1788	1508.211104007847	741
0	1790	1508.359067130103	742
0	1792	1508.455327049286	743
0	1794	1510.079732001229	744
0	1798	1515.563748646152	745
0	1800	1517.247920472067	746
0	1802	1518.842487888859	747
0	1804	1520.62806327363	748
0	1807	1522.295075497859	749
0	1809	1524.235693511037	750
0	1814	1527.576170554719	751
0	1816	1528.039778483285	752
0	1818	1529.403797302034	753
0	1820	1530.333145590962	754
0	1822	1532.658222126282	755
0	1824	1534.610283974099	756
0	1826	1537.112581334793	757
0	1828	1537.439578968597	758
0	1830	1538.479979260132	759
0	1833	1541.980109535146	760
0	1837	1550.341960150042	761
0	1839	1550.83066062702	762
0	1841	1552.553656947312	763
0	1843	1554.444160379773	764
0	1845	1556.46965574238	765
0	1848	1558.200153605498	766
0	1850	1558.323537992985	767
0	1852	1559.611521340144	768
0	1854	1561.921517248041	769
0	1856	1562.249196730998	770
0	1858	1564.264011313178	771
0	1860	1565.017475779134	772
0	1862	1568.791476641076	773
0	1864	1573.135464158439	774
0	1866	1578.960277876502	775
0	1868	1579.301235420959	776
0	1872	1586.221490982371	777
0	1874	1590.264922845298	778
0	1876	1595.980184083324	779
0	1878	1598.57929918881	780
0	1881	1599.988159408847	781
0	1883	1600.476144940173	782
0	1886	1601.313092761309	783
0	1889	1607.776933694122	784
0	1891	1608.366045671167	785
0	1893	1610.059039017694	786
0	1895	1611.587092698381	787
0	1897	1611.593855051221	788
0	1899	1611.967951781056	789
0	1903	1616.810111203731	790
0	1905	1617.633125003924	791
0	1907	1618.673168568527	792
0	1909	1619.985660983828	793
0	1911	1620.581757724722	794
0	1913	1623.351097092077	795
0	1915	1624.388150608152	796
0	1917	1626.531071652044	797
0	1919	1628.528297325991	798
0	1921	1628.97033763747	799
0	1923	1629.238341134433	800
0	1925	1630.362935843495	801
0	1927	1637.187541537461	802
0	1929	1641.716519042777	803
0	1931	1645.036979548545	804
0	1933	1645.061137397707	805
0	1935	1648.255600764167	806
0	1937	1652.989624735826	807
0	1939	1654.069347738449	808
0	1942	1654.737532078934	809
0	1944	1655.937098800819	810
0	1946	1656.888317853678	811
0	1948	1657.745633214502	812
0	1950	1662.949831096336	813
0	1953	1665.401276512695	814
0	1955	1668.035899860959	815
0	1957	1668.6218766264	816
0	1961	1671.550246404795	817
0	1963	1673.858873370646	818
0	1965	1675.667953418453	819
0	1967	1675.952587229349	820
0	1969	1677.181667635725	821
0	1971	1681.023136093337	822
0	1973	1681.687740252343	823
0	1975	1682.389016669198	824
0	1977	1685.198825179304	825
0	1979	1685.300232104466	826
0	1981	1687.015336951529	827
0	1983	1687.245782921433	828
0	1985	1690.033004860035	829
0	1987	1691.441730365123	830
0	1989	1695.67976248533	831
0	1991	1696.779945000349	832
0	1993	1698.433750128985	833
0	1995	1698.963228349357	834
0	1997	1699.169648782598	835
0	1999	1701.15586921067	836
0	2001	1701.890032255524	837
0	2003	1702.47176712915	838
0	2005	1703.621283076167	839
0	2007	1703.827614268082	840
0	2009	1703.839036041845	841
0	2011	1706.321389686286	842
0	2013	1706.442263814367	843
0	2015	1706.802290614209	844
0	2017	1708.478092880226	845
0	2019	1710.946149133675	846
0	2021	1712.071178720411	847
0	2023	1713.546071583437	848
0	2025	1713.949136234495	849
0	2027	1714.005996752244	850
0	2029	1715.386809461806	851
0	2031	1717.703918270167	852
0	2033	1718.83809222992	853
0	2035	1721.4202874441	854
0	2037	1722.543930821187	855
0	2039	1727.29529828324	856
0	2041	1727.995293976927	857
0	2043	1729.79924404215	858
0	2045	1731.454046475042	859
0	2047	1733.641792292647	860
0	2049	1736.576453002462	861
0	2051	1740.692671466698	862
0	2053	1741.886963699366	863
0	2055	1743.192345084033	864
0	2057	1745.407344963208	865
0	2059	1748.252661472725	866
0	2062	1749.736882997458	867
0	2064	1749.750658837157	868
0	2066	1749.930291421475	869
0	2068	1750.914320981967	870
0	2072	1754.039251679122	871
0	2074	1758.617284035796	872
0	2076	1761.406234280016	873
0	2078	1763.433605905426	874
0	2080	1763.772103106948	875
0	2082	1765.581739657176	876
0	2084	1766.239539826369	877
0	2086	1769.147363102182	878
0	2088	1776.515058825508	879
0	2090	1779.589518827506	880
0	2092	1783.103777808372	881
0	2097	1786.876966045172	882
0	2100	1790.745455258415	883
0	2102	1792.190753440125	884
0	2104	1797.670507033302	885
0	2106	1798.287041160017	886
0	2108	1800.091334877918	887
0	2110	1802.144987185443	888
0	2112	1803.10586536905	889
0	2114	1804.630391557477	890
0	2116	1806.107547564989	891
0	2118	1806.76964296415	892
0	2120	1808.03897878339	893
0	2122	1808.364685922008	894
0	2124	1817.603555967564	895
0	2126	1818.124625959279	896
0	2128	1819.644032054649	897
0	2130	1821.907714268948	898
0	2132	1822.604374187522	899
0	2134	1824.932569132611	900
0	2136	1825.388009113513	901
0	2138	1825.946292318511	902
0	2140	1826.110688267935	903
0	2144	1829.944412803799	904
0	2146	1830.902739394103	905
0	2148	1832.750617347929	906
0	2152	1845.999639627752	907
0	2154	1851.034034539787	908
0	2156	1851.773624786027	909
0	2158	1854.502195527194	910
0	2160	1854.619376693676	911
0	2162	1854.765734155049	912
0	2164	1860.589070969222	913
0	2166	1861.485131482468	914
0	2168	1861.50337269731	915
0	2173	1865.996245510269	916
0	2175	1866.063002967346	917
0	2177	1866.662916604058	918
0	2179	1867.458192841263	919
0	2181	1867.578487058035	920
0	2183	1867.963637387873	921
0	2185	1869.918890622	922
0	2189	1873.125315866874	923
0	2192	1876.272539694962	924
0	2194	1877.487938673112	925
0	2200	1886.027148850649	926
0	2202	1886.520100324665	927
0	2204	1887.891833856357	928
0	2206	1888.460095649785	929
0	2208	1889.819228007956	930
0	2210	1891.750762404677	931
0	2212	1891.851351127439	932
0	2215	1895.628309114366	933
0	2218	1896.542579579093	934
0	2220	1901.643844262195	935
0	2222	1903.020768667383	936
0	2226	1904.03318841224	937
0	2228	1907.852908251565	938
0	2230	1908.118645426677	939
0	2232	1908.722043968504	940
0	2234	1914.597735528967	941
0	2236	1914.820846997013	942
0	2238	1917.518157964064	943
0	2240	1922.705719254794	944
0	2242	1924.76446157686	945
0	2244	1924.937311468795	946
0	2246	1926.027710588283	947
0	2248	1931.670564988525	948
0	2250	1932.571743026849	949
0	2252	1933.043017924434	950
0	2254	1934.336704741291	951
0	2256	1935.641701428457	952
0	2258	1936.033886985515	953
0	2260	1936.994515771889	954
0	2263	1939.463895624523	955
0	2265	1942.657149263497	956
0	2267	1943.966875546821	957
0	2269	1946.568051527348	958
0	2271	1947.280393569197	959
0	2273	1947.316394465465	960
0	2275	1947.674653577627	961
0	2277	1951.424340063885	962
0	2279	1952.232624072083	963
0	2281	1956.922108794337	964
0	2283	1957.092867127681	965
0	2285	1958.192287076518	966
0	2287	1958.670258760372	967
0	2289	1958.691273318638	968
0	2291	1960.757522712785	969
0	2293	1965.063878946626	970
0	2295	1965.52813531679	971
0	2297	1966.07874774586	972
0	2299	1981.374729437098	973
0	2301	1982.602509566206	974
0	2303	1982.661947153012	975
0	2306	1982.85727806091	976
0	2308	1983.487240238613	977
0	2313	1988.972804999477	978
0	2315	1989.74096798963	979
0	2317	1989.988248934936	980
0	2320	1990.484118115026	981
0	2322	1996.280264655654	982
0	2324	1997.232910848858	983
0	2326	1997.892794150222	984
0	2328	1998.282685973159	985
0	2330	1998.846061198121	986
0	2332	1999.07610559528	987
0	2334	2000.323732727335	988
0	2336	2000.638614797067	989
0	2338	2002.10400340346	990
0	2340	2008.001425011755	991
0	2342	2008.815442501735	992
0	2345	2012.821145010838	993
0	2347	2014.658591743945	994
0	2349	2021.229163850364	995
0	2351	2022.880295477211	996
0	2353	2023.049755484786	997
0	2359	2027.889229991914	998
0	2361	2028.04039244714	999
0	2363	2029.234251677347	1000
0	2365	2030.505192952552	1001
0	2367	2030.579174070717	1002
0	2371	2033.82836597103	1003
0	2373	2036.46435629585	1004
0	2377	2038.572002021268	1005
0	2379	2046.845457260513	1006
0	2381	2047.370350102874	1007
0	2383	2048.593498235931	1008
0	2385	2048.907188512116	1009
0	2387	2049.295762105544	1010
0	2389	2049.359001734945	1011
0	2393	2049.977306753794	1012
0	2395	2053.777051670717	1013
0	2397	2054.189114794369	1014
0	2399	2055.960234327164	1015
0	2401	2058.060337155555	1016
0	2403	2058.57761386486	1017
0	2405	2058.637519309823	1018
0	2407	2060.589509210769	1019
0	2409	2061.649922927564	1020
0	2411	2066.781166808602	1021
0	2417	2077.040295087098	1022
0	2419	2077.318167238739	1023
0	2421	2077.495048844989	1024
0	2423	2077.891472872324	1025
0	2425	2078.062882240985	1026
0	2427	2078.297350485623	1027
0	2429	2078.428473854145	1028
0	2431	2078.854362517365	1029
0	2433	2079.908677087327	1030
0	2436	2085.561219550244	1031
0	2438	2085.654069586764	1032
0	2440	2086.081201875555	1033
0	2442	2088.588158767121	1034
0	2444	2091.016695569552	1035
0	2449	2095.3059285719	1036
0	2451	2101.38925104944	1037
0	2453	2102.438664565548	1038
0	2455	2103.407199143421	1039
0	2457	2103.754092131907	1040
0	2459	2104.97908502583	1041
0	2461	2105.735556697848	1042
0	2463	2110.043309341644	1043
0	2465	2110.690537580444	1044
0	2467	2116.209820748972	1045
0	2469	2117.668764538682	1046
0	2471	2118.111147869646	1047
0	2473	2118.249397698887	1048
0	2475	2119.608740040522	1049
0	2477	2121.844305172077	1050
0	2479	2122.613724452208	1051
0	2481	2123.225274538215	1052
0	2484	2126.876338417432	1053
0	2486	2128.566739965988	1054
0	2488	2128.644477664984	1055
0	2490	2130.085739496084	1056
0	2493	2134.694039117324	1057
0	2495	2135.986288311164	1058
0	2497	2137.044879031365	1059
0	2499	2137.646967359629	1060
0	2501	2139.468719984356	1061
0	2503	2139.674505072851	1062
0	2505	2142.547179403705	1063
0	2509	2147.75092141345	1064
0	2511	2148.114203567024	1065
0	2515	2149.199223350575	1066
0	2517	2149.828844624079	1067
0	2519	2150.338669078916	1068
0	2523	2151.943242540676	1069
0	2525	2154.398727082288	1070
0	2527	2157.614135492866	1071
0	2529	2159.619038514108	1072
0	2531	2161.346917372423	1073
0	2533	2162.316498482093	1074
0	2535	2163.671262420849	1075
0	2537	2168.75446562868	1076
0	2539	2170.338516079766	1077
0	2541	2171.090814650401	1078
0	2543	2175.574632944797	1079
0	2545	2175.62145082013	1080
0	2547	2176.390734458297	1081
0	2549	2177.849588505421	1082
0	2551	2178.851180220516	1083
0	2553	2181.573998655214	1084
0	2557	2184.504125617373	1085
0	2559	2185.161345279519	1086
0	2562	2185.509348544856	1087
0	2564	2185.879084944003	1088
0	2566	2187.854499952591	1089
0	2568	2189.462812889789	1090
0	2570	2191.909397774662	1091
0	2572	2192.310221649665	1092
0	2574	2194.80621771911	1093
0	2576	2196.29336125107	1094
0	2578	2196.690854335256	1095
0	2580	2199.703198958857	1096
0	2582	2200.91451365123	1097
0	2587	2205.554641261983	1098
0	2590	2207.689089726613	1099
0	2592	2208.400230011574	1100
0	2595	2209.020682111427	1101
0	2598	2212.107520545589	1102
0	2600	2214.791261367876	1103
0	2602	2215.210536529971	1104
0	2606	2219.594944883521	1105
0	2608	2219.657842324899	1106
0	2611	2221.033945672215	1107
0	2613	2221.129605027283	1108
0	2615	2221.225668431514	1109
0	2617	2225.109727732812	1110
0	2619	2225.153772540624	1111
0	2621	2225.956145332392	1112
0	2624	2227.577925833217	1113
0	2626	2230.468233814713	1114
0	2628	2232.262122910916	1115
0	2630	2235.167189293844	1116
0	2632	2235.868049876729	1117
0	2634	2236.392306859389	1118
0	2636	2236.950804665409	1119
0	2638	2237.390600157968	1120
0	2640	2241.062129017956	1121
0	2644	2248.805498485743	1122
0	2648	2250.306717654007	1123
0	2650	2250.804639314382	1124
0	2654	2254.864802804936	1125
0	2656	2256.679086463467	1126
0	2658	2258.647061123736	1127
0	2660	2262.011519977783	1128
0	2662	2264.911217300331	1129
0	2664	2267.267349588368	1130
0	2666	2268.25753606483	1131
0	2668	2269.726705976426	1132
0	2670	2275.2198798603	1133
0	2672	2275.867465877025	1134
0	2674	2276.700523178863	1135
0	2676	2278.680956085902	1136
0	2682	2280.608175047359	1137
0	2684	2281.223177112851	1138
0	2686	2281.755376832949	1139
0	2688	2282.859840351026	1140
0	2690	2283.198469292916	1141
0	2693	2283.241723994616	1142
0	2695	2289.728769024784	1143
0	2697	2292.071355434619	1144
0	2699	2293.569061951715	1145
0	2703	2297.286480972713	1146
0	2705	2300.798408065868	1147
0	2708	2303.73797653417	1148
0	2710	2303.9448318445	1149
0	2712	2305.657055978313	1150
0	2714	2306.781916383597	1151
0	2716	2307.287381326649	1152
0	2718	2308.060254139346	1153
0	2720	2308.774631759696	1154
0	2722	2309.642613243636	1155
0	2724	2309.834819073191	1156
0	2729	2312.398040450407	1157
0	2735	2319.219852521042	1158
0	2737	2320.119893459449	1159
0	2741	2322.490644505333	1160
0	2743	2323.680370802934	1161
0	2745	2326.055690616111	1162
0	2754	2328.920904066468	1163
0	2759	2333.276728142445	1164
0	2761	2334.116811205311	1165
0	2763	2335.084198962875	1166
0	2765	2337.81814878051	1167
0	2768	2339.637135154324	1168
0	2770	2343.551663603516	1169
0	2772	2344.149213888043	1170
0	2774	2344.458690599845	1171
0	2776	2345.539982024437	1172
0	2778	2348.125335346855	1173
0	2780	2348.241882598615	1174
0	2782	2350.934022236703	1175
0	2786	2357.886118320845	1176
0	2788	2358.21786922339	1177
0	2790	2358.352273284764	1178
0	2792	2365.637889828586	1179
0	2797	2371.209399324356	1180
0	2800	2375.165714000452	1181
0	2802	2375.351385684843	1182
0	2804	2376.05456413506	1183
0	2806	2379.660618975842	1184
0	2808	2380.448366155511	1185
0	2810	2382.184089518186	1186
0	2812	2383.180489617042	1187
0	2814	2386.557388293578	1188
0	2816	2387.238428901041	1189
0	2818	2389.990638553651	1190
0	2820	2390.235050219902	1191
0	2822	2392.556650548534	1192
0	2825	2395.295240531893	1193
0	2827	2395.989886450094	1194
0	2829	2398.580636690009	1195
0	2831	2400.827183266222	1196
0	2833	2403.770119160753	1197
0	2835	2406.347260980559	1198
0	2837	2408.746108837254	1199
0	2841	2409.149929466988	1200
0	2843	2411.556371179306	1201
0	2845	2413.360576419585	1202
0	2847	2415.683365225297	1203
0	2850	2416.887024228095	1204
0	2852	2420.546771285497	1205
0	2854	2421.014247619048	1206
0	2856	2421.247855478234	1207
0	2863	2430.650312331768	1208
0	2867	2435.372419232791	1209
0	2869	2435.599568848958	1210
0	2871	2436.641420913613	1211
0	2873	2438.487306106611	1212
0	2875	2439.583998160816	1213
0	2877	2439.654000607101	1214
0	2879	2439.916502597605	1215
0	2881	2442.571719773694	1216
0	2883	2447.034288182334	1217
0	2885	2448.049099157907	1218
0	2887	2448.899338561722	1219
0	2889	2450.171169654912	1220
0	2891	2453.859599877218	1221
0	2894	2456.850231636679	1222
0	2896	2459.174985920892	1223
0	2898	2464.518621526051	1224
0	2902	2466.314739803188	1225
0	2904	2467.361189569367	1226
0	2906	2467.991076576173	1227
0	2908	2468.342964549954	1228
0	2912	2473.848060142962	1229
0	2916	2474.326809456407	1230
0	2920	2482.120896025818	1231
0	2922	2483.149430855811	1232
0	2924	2485.555906602835	1233
0	2926	2489.519429642592	1234
0	2928	2493.596902608216	1235
0	2930	2494.830638649361	1236
0	2932	2496.679488025922	1237
0	2934	2497.551342294555	1238
0	2936	2498.676678422241	1239
0	2940	2499.407318661482	1240
1	441	352.333181774688	133
1	443	352.618903067295	134
1	445	352.642751544675	135
1	447	353.018699850074	136
1	449	353.09400268261	137
1	451	353.657307826564	138
1	453	355.719901715601	139
1	455	355.807102456581	140
1	457	357.620128082388	141
1	459	358.133494771721	142
1	461	358.670617077942	143
1	463	360.636184051116	144
1	465	362.545909558653	145
1	467	364.557919448585	146
1	469	365.545908491281	147
1	471	367.06850219556	148
1	473	369.263176013343	149
1	475	371.922138824471	150
1	477	373.34171649595	151
1	481	376.718306398117	152
1	483	377.493446818173	153
1	485	378.432993890857	154
1	487	379.397612465772	155
1	489	382.666329316104	156
1	491	383.647910713815	157
1	493	387.882602964898	158
1	495	392.381242743408	159
1	497	394.149321823634	160
1	499	396.048876198007	161
1	501	398.182216169988	162
1	503	400.445303750566	163
1	505	401.13151359358	164
1	507	401.41531705397	165
1	509	402.398563387381	166
1	511	403.063701287426	167
1	513	403.33604071065	168
1	515	403.391761761187	169
1	517	403.87033687275	170
1	519	404.46412300138	171
1	521	407.277555431556	172
1	523	408.032072719437	173
1	525	409.76170338167	174
1	527	409.953662169878	175
1	529	411.952092428327	176
1	531	412.381589147442	177
1	535	418.701030490526	178
1	537	419.445990032409	179
1	539	419.643981368745	180
1	541	421.076747642662	181
1	543	421.350053035053	182
1	545	422.247311449222	183
1	547	423.291339164035	184
1	549	426.032458494153	185
1	551	426.536366255475	186
1	553	427.853241171213	187
1	555	429.370082826348	188
1	557	431.042935645669	189
1	559	434.593672383311	190
1	562	442.047173147815	191
1	564	443.90094409368	192
1	566	445.240475048691	193
1	568	445.650565391983	194
1	570	446.237808710915	195
1	572	447.198105831893	196
1	574	454.863212470444	197
1	576	455.529873171505	198
1	578	455.873874324998	199
1	582	458.304025755451	200
1	584	460.401921937195	201
1	586	460.987439655972	202
1	588	461.001483054972	203
1	590	463.867341214548	204
1	592	464.052490251005	205
1	594	464.701331528679	206
1	596	465.805263696869	207
1	598	465.897604603246	208
1	601	467.576741402589	209
1	603	473.290613608975	210
1	605	475.376632041809	211
1	609	476.828961612593	212
1	611	477.063798806239	213
1	613	479.767104600048	214
1	615	480.556172591671	215
1	617	482.380821434645	216
1	621	489.417868435504	217
1	625	499.989878340888	218
1	627	500.259879692862	219
1	629	500.607597358181	220
1	631	500.655858299092	221
1	633	501.737096666521	222
1	636	505.424032087661	223
1	638	506.80773772192	224
1	640	507.255741666725	225
1	642	509.550390246772	226
1	644	510.701934371821	227
1	646	513.423678443141	228
1	648	513.974377652572	229
1	650	514.067950322396	230
1	652	514.282407945335	231
1	654	515.951825759665	232
1	656	516.298205345638	233
1	660	522.374517034523	234
1	662	522.464371237559	235
1	664	526.497610077274	236
1	666	527.118269385463	237
1	668	527.579577130161	238
1	672	531.682919477915	239
1	674	533.572426542712	240
1	676	533.946482933972	241
1	678	535.042532999748	242
1	680	535.233834069005	243
1	682	536.430510006116	244
1	684	538.744643684094	245
1	686	538.834649453024	246
1	688	541.968491404339	247
1	690	541.982230158334	248
1	692	542.70474126349	249
1	694	544.124719196285	250
1	696	547.4434074662	251
1	698	548.428209260346	252
1	700	548.530812501826	253
1	702	550.257999576215	254
1	704	550.762131300229	255
1	707	551.102598887422	256
1	709	553.049767566151	257
1	711	557.526889734878	258
1	713	559.072968219445	259
1	715	559.095286129854	260
1	717	561.626825473118	261
1	721	564.510238123991	262
1	723	568.696415504181	263
1	725	571.662530595221	264
1	727	572.109486800769	265
1	729	573.810456366762	266
1	731	574.783046611082	267
1	733	582.761934051697	268
1	735	583.731777848667	269
1	737	583.749208220343	270
1	739	599.942326828402	271
1	741	600.244439951167	272
1	743	601.677537830707	273
1	745	602.158165395523	274
1	747	602.715889031632	275
1	749	603.975557974044	276
1	751	605.393962808089	277
1	753	608.695654294465	278
1	755	609.60611134896	279
1	757	611.444679598284	280
1	759	613.320819634774	281
1	761	614.388191922671	282
1	763	617.44275636639	283
1	765	618.363720736656	284
1	769	619.774264056599	285
1	772	622.107141231082	286
1	774	623.398056328938	287
1	777	625.341679239785	288
1	781	626.886984002966	289
1	783	630.000968821658	290
1	785	630.054310925111	291
1	787	630.233370954797	292
1	789	631.332880528452	293
1	791	631.438983731368	294
1	793	633.717474812627	295
1	795	634.702236641469	296
1	797	637.201346972567	297
1	799	638.493750006673	298
1	801	639.969159033214	299
1	803	642.873070723528	300
1	805	645.986257074579	301
1	807	647.640710094945	302
1	809	648.997326593938	303
1	811	649.473119210582	304
1	813	650.782852779385	305
1	815	655.795963815323	306
1	819	658.104049466935	307
1	821	658.524332781908	308
1	823	662.084577891361	309
1	825	662.624817825732	310
1	827	663.104718275415	311
1	829	663.408804231936	312
1	831	663.764771872086	313
1	833	664.185809481962	314
1	835	669.198806345173	315
1	838	671.609198276336	316
1	840	675.535331549947	317
1	842	677.21039460594	318
1	845	678.968374890127	319
1	847	681.493447362957	320
1	849	688.194166821405	321
1	851	688.560653061135	322
1	853	689.302660000947	323
1	855	690.607028643204	324
1	857	691.424937515637	325
1	861	695.148820229527	326
1	863	698.446918390281	327
1	865	700.054206775548	328
1	870	704.762616470474	329
1	872	708.914072462773	330
1	876	715.683763283382	331
1	878	715.773810485621	332
1	880	716.068726673621	333
1	882	716.743201098891	334
1	884	717.474539836818	335
1	886	718.203205139001	336
1	888	719.535227932538	337
1	894	723.431068214305	338
1	896	725.013218450444	339
1	898	727.607615085799	340
1	900	727.675270854914	341
1	902	728.543603612448	342
1	904	730.480337703097	343
1	906	731.598042291734	344
1	910	734.143882947703	345
1	912	737.728014886272	346
1	914	739.452388340084	347
1	916	739.644910464484	348
1	918	740.279065626368	349
1	920	740.711463441132	350
1	922	741.204898971096	351
1	924	741.880523112494	352
1	926	742.031465557417	353
1	928	743.670386114765	354
1	930	749.35400080195	355
1	932	749.727335813627	356
1	934	750.576001050246	357
1	936	751.017880793835	358
1	938	752.157672428595	359
1	940	757.141934249665	360
1	944	759.339507287948	361
1	946	759.513391091394	362
1	948	759.768417884036	363
1	950	761.133216728832	364
1	952	765.465871825149	365
1	956	767.182093215448	366
1	958	771.250847057823	367
1	960	771.351640898625	368
1	962	772.552357328017	369
1	964	778.835424781065	370
1	966	778.960782877194	371
1	968	779.3218646576	372
1	972	780.489352757643	373
1	974	780.646884623691	374
1	976	782.183759622594	375
1	978	784.892471924192	376
1	980	788.08718558267	377
1	982	789.913215783805	378
1	984	791.412134132491	379
1	987	795.15462289679	380
1	989	795.766354242092	381
1	991	799.668531654578	382
1	993	800.779716990018	383
1	996	805.403744806986	384
1	999	808.33446811599	385
1	1001	810.188529587933	386
1	1003	814.662956548694	387
1	1005	815.043465570599	388
1	1007	818.635460041584	389
1	1011	822.161802435203	390
1	1013	823.075708355059	391
1	1015	823.690104814858	392
1	1017	825.184517064639	393
1	1019	825.906882127551	394
1	1021	827.149443761035	395
1	1023	827.413908261554	396
1	1025	827.54440003504	397
1	1027	828.104441922114	398
1	1029	828.1982557005	399
1	1031	829.961897103522	400
1	1033	830.499871602215	401
1	1035	831.105466210934	402
1	1039	835.36792976058	403
1	1041	835.828238389794	404
1	1043	837.068494041228	405
1	1045	841.605053110058	406
1	1049	847.114380929889	407
1	1051	847.310589978675	408
1	1053	847.773463871542	409
1	1055	848.242148769628	410
1	1057	848.326270687632	411
1	1059	850.704445446251	412
1	1061	851.110132609278	413
1	1065	853.639820894422	414
1	1067	854.095856027687	415
1	1069	855.759679025537	416
1	1071	856.548951331035	417
1	1073	862.42654099757	418
1	1077	866.906031136127	419
1	1079	873.811410090334	420
1	1081	876.307636237267	421
1	1083	878.331663673267	422
1	1085	878.891781295021	423
1	1087	880.223990688565	424
1	1089	881.843266562581	425
1	1091	883.631424460483	426
1	1093	884.166475507438	427
1	1095	885.536672740463	428
1	1097	887.94290677033	429
1	1099	896.540896446384	430
1	1101	898.757886073071	431
1	1103	902.487653387744	432
1	1105	902.610501722465	433
1	1107	904.315327762311	434
1	1109	907.191731998223	435
1	1111	910.632077496778	436
1	1113	911.678428506347	437
1	1115	915.524283736393	438
1	1117	916.876551360863	439
1	1119	917.427958781667	440
1	1121	917.810626345359	441
1	1123	918.356064517384	442
1	1125	919.871382437253	443
1	1129	924.021076826959	444
1	1131	927.238014210512	445
1	1133	930.473606151477	446
1	1135	930.87754272746	447
1	1139	931.661931494075	448
1	1141	931.791985401453	449
1	1145	933.822763272667	450
1	1147	935.974991307359	451
1	1149	939.036022886302	452
1	1151	940.464189090846	453
1	1153	943.356263470897	454
1	1155	945.081848763083	455
1	1158	952.140874759732	456
1	1160	953.682690601841	457
1	1162	956.974895256899	458
1	1164	957.639559493664	459
1	1166	958.236809741966	460
1	1168	959.044455265224	461
1	1170	966.443395500899	462
1	1172	967.077678291844	463
1	1174	968.536836055521	464
1	1176	969.506605374727	465
1	1178	969.797765855932	466
1	1180	969.88978001191	467
1	1182	971.225256345039	468
1	1184	972.018387198809	469
1	1186	973.812186569487	470
1	1188	984.108265502876	471
1	1190	985.542779727404	472
1	1192	986.250151562076	473
1	1194	986.850756178646	474
1	1196	988.616071887995	475
1	1198	995.710530714225	476
1	1200	995.832687028867	477
1	1202	995.849178500916	478
1	1204	1000.099086557465	479
1	1206	1001.452295908778	480
1	1208	1002.078526205301	481
1	1210	1002.704762939368	482
1	1212	1008.195465032965	483
1	1214	1014.643218066679	484
1	1216	1014.991341972661	485
1	1218	1017.00212424879	486
1	1220	1017.399230401674	487
1	1222	1019.489262756018	488
1	1224	1023.897797282363	489
1	1226	1027.631506098931	490
1	1228	1028.395356466992	491
1	1230	1028.425117614467	492
1	1232	1030.204597451667	493
1	1234	1030.279907184648	494
1	1236	1030.476054096343	495
1	1238	1031.201831353773	496
1	1240	1031.499421556836	497
1	1242	1037.36573902516	498
1	1244	1037.730719834647	499
1	1246	1040.411537838565	500
1	1249	1041.482589708059	501
1	1252	1042.087100261356	502
1	1254	1047.878001170785	503
1	1256	1048.135853521238	504
1	1258	1050.052923363906	505
1	1260	1051.06845979527	506
1	1262	1054.873809504648	507
1	1264	1056.191856112335	508
1	1266	1057.450473397239	509
1	1270	1060.064062718172	510
1	1272	1060.380772624942	511
1	1274	1060.605598619033	512
1	1276	1061.598742497903	513
1	1278	1065.169453020764	514
1	1281	1070.388764775577	515
1	1283	1072.578014533264	516
1	1285	1073.622430365012	517
1	1287	1074.27283058041	518
1	1289	1077.60951092111	519
1	1291	1077.708425201823	520
1	1294	1078.795568015789	521
1	1296	1079.696675470247	522
1	1298	1080.578505426827	523
1	1300	1082.436836284774	524
1	1302	1082.865530305703	525
1	1305	1084.939221008051	526
1	1307	1086.404232714277	527
1	1309	1086.830639558626	528
1	1311	1087.582073889741	529
1	1313	1092.111446723279	530
1	1315	1096.156759799007	531
1	1317	1099.959055262333	532
1	1319	1100.727925766117	533
1	1321	1103.471399295281	534
1	1323	1105.623356847158	535
1	1325	1106.02092695098	536
1	1327	1107.50762074563	537
1	1329	1107.911203719756	538
1	1334	1108.732255477723	539
1	1336	1110.785733669377	540
1	1339	1115.355968880711	541
1	1341	1117.693877870779	542
1	1343	1118.722165903362	543
1	1345	1120.168164013802	544
1	1347	1121.411926018846	545
1	1349	1124.576086466994	546
1	1351	1124.893930005548	547
1	1353	1126.761236989814	548
1	1356	1130.309919937255	549
1	1360	1133.339794789963	550
1	1362	1134.499271629966	551
1	1364	1134.837936715614	552
1	1368	1136.178182261819	553
1	1370	1136.243071291833	554
1	1374	1138.313939649631	555
1	1376	1139.320102554962	556
1	1378	1139.573896070047	557
1	1381	1142.621222950103	558
1	1383	1144.162815881716	559
1	1385	1144.508541969904	560
1	1387	1147.580850215109	561
1	1391	1149.532891109719	562
1	1393	1149.866376728641	563
1	1395	1149.876156675373	564
1	1397	1150.918852115847	565
1	1399	1150.96622693047	566
1	1401	1151.324951730512	567
1	1403	1151.9402893947	568
1	1405	1153.456799408931	569
1	1407	1154.829767942104	570
1	1409	1155.339673863915	571
1	1411	1156.220244584578	572
1	1413	1157.856334456743	573
1	1415	1161.232460856012	574
1	1417	1161.795191238778	575
1	1419	1163.092367510274	576
1	1423	1164.700049354732	577
1	1425	1165.011185488036	578
1	1427	1165.938361499415	579
1	1431	1169.787330324831	580
1	1433	1169.863568194792	581
1	1435	1171.916118943996	582
1	1437	1172.108096332442	583
1	1439	1172.791214944743	584
1	1443	1176.24097207437	585
1	1448	1183.389959302039	586
1	1450	1185.569903128226	587
1	1452	1187.176440449509	588
1	1454	1188.564022956712	589
1	1457	1189.727268030003	590
1	1459	1189.826181511248	591
1	1461	1191.076709997514	592
1	1463	1196.23845656971	593
1	1465	1196.437588000751	594
1	1467	1197.952858591391	595
1	1469	1199.507125277261	596
1	1471	1201.650528944241	597
1	1473	1202.972515582805	598
1	1475	1205.408895520015	599
1	1477	1205.709534067649	600
1	1479	1206.314418773518	601
1	1481	1207.45669927708	602
1	1483	1209.010049897097	603
1	1485	1209.668391750652	604
1	1487	1210.032023245227	605
1	1489	1210.844465167286	606
1	1491	1211.42279816072	607
1	1493	1214.246971044042	608
1	1497	1217.799690255823	609
1	1501	1220.721154720786	610
1	1503	1220.748040957416	611
1	1505	1221.745715148395	612
1	1507	1221.872949309375	613
1	1509	1223.081600665168	614
1	1511	1226.598779161324	615
1	1513	1226.694269114103	616
1	1515	1227.813591873888	617
1	1517	1228.708898289426	618
1	1519	1229.212189453596	619
1	1521	1229.894181748423	620
1	1523	1230.386431397615	621
1	1527	1234.003750997634	622
1	1529	1235.014500122995	623
1	1531	1237.164444444907	624
1	1533	1239.968134837808	625
1	1535	1240.021673342038	626
1	1538	1242.358180316437	627
1	1540	1245.504001026825	628
1	1542	1248.077424699872	629
1	1544	1248.869610446026	630
1	1547	1255.295432425885	631
1	1549	1257.140842048209	632
1	1553	1261.682538105081	633
1	1555	1266.440371804401	634
1	1557	1267.410292594288	635
1	1559	1272.374272074981	636
1	1563	1274.161334730804	637
1	1565	1275.286269820936	638
1	1567	1275.416579539731	639
1	1569	1281.021383995517	640
1	1571	1281.190814012279	641
1	1573	1284.369466470228	642
1	1575	1285.348137053206	643
1	1578	1291.618480732869	644
1	1580	1292.920033991161	645
1	1582	1293.741004997687	646
1	1584	1293.86384012255	647
1	1586	1295.203034431945	648
1	1588	1297.481240944431	649
1	1590	1300.595664792498	650
1	1592	1308.413388974055	651
1	1594	1309.349430135443	652
1	1596	1312.228024177158	653
1	1598	1312.53894131886	654
1	1600	1312.925025317178	655
1	1602	1313.570094390989	656
1	1604	1314.133097621721	657
1	1606	1315.485977416197	658
1	1608	1316.933928780616	659
1	1612	1317.878140922996	660
1	1614	1318.658514378934	661
1	1617	1319.278031595866	662
1	1619	1320.039183043433	663
1	1621	1320.254908179987	664
1	1623	1320.837071062697	665
1	1625	1322.512170790683	666
1	1627	1324.34919695497	667
1	1630	1326.932861242319	668
1	1632	1327.581091148777	669
1	1634	1331.270812924579	670
1	1636	1332.29190772577	671
1	1638	1343.303641538922	672
1	1640	1346.209348515403	673
1	1642	1349.487467715743	674
1	1644	1349.57947901691	675
1	1646	1350.432799568348	676
1	1648	1353.198901555631	677
1	1650	1353.829196757428	678
1	1652	1357.524795070702	679
1	1656	1361.879211228074	680
1	1658	1362.416846934048	681
1	1661	1367.952469154064	682
1	1663	1368.875589877287	683
1	1665	1376.742858184314	684
1	1667	1377.253399828932	685
1	1669	1383.528585468163	686
1	1671	1385.262681001325	687
1	1673	1390.611246876484	688
1	1675	1391.698551360245	689
1	1677	1392.369688254587	690
1	1679	1392.72949826075	691
1	1681	1396.997434363786	692
1	1683	1399.273766972318	693
1	1685	1403.552393599819	694
1	1687	1409.259220729538	695
1	1691	1414.562372771761	696
1	1693	1416.533323505003	697
1	1695	1418.808489510235	698
1	1699	1425.493743698549	699
1	1701	1428.768533613186	700
1	1703	1430.851810629388	701
1	1705	1430.877800397209	702
1	1707	1433.103135260996	703
1	1709	1434.494607074792	704
1	1711	1435.292769687743	705
1	1713	1439.437351368825	706
1	1715	1444.689372999248	707
1	1717	1446.20494365202	708
1	1720	1446.668922466388	709
1	1722	1450.344280677899	710
1	1724	1450.9736969854	711
1	1726	1452.077498085046	712
1	1728	1452.875623813898	713
1	1730	1453.370265294237	714
1	1732	1454.542575869421	715
1	1736	1455.781363088095	716
1	1738	1459.465782559478	717
1	1740	1459.472261608342	718
1	1743	1462.249316475276	719
1	1745	1463.52777620269	720
1	1747	1464.596098750978	721
1	1749	1465.590000412654	722
1	1751	1467.555244025188	723
1	1753	1467.599088951794	724
1	1757	1476.047833132845	725
1	1759	1476.977408500374	726
1	1761	1478.308829258635	727
1	1764	1488.178444007151	728
1	1766	1489.793387705978	729
1	1768	1491.939045756507	730
1	1770	1494.390864146928	731
1	1772	1494.899028007613	732
1	1774	1496.571054633118	733
1	1776	1497.247614344528	734
1	1778	1500.335207022073	735
1	1780	1501.522449663857	736
1	1782	1502.071325254032	737
1	1784	1504.136733491523	738
1	1786	1507.078787758028	739
1	1788	1508.211104007847	740
1	1790	1508.359067130103	741
1	1792	1508.455327049286	742
1	1794	1510.079732001229	743
1	1798	1515.563748646152	744
1	1800	1517.247920472067	745
1	1802	1518.842487888859	746
1	1804	1520.62806327363	747
1	1807	1522.295075497859	748
1	1809	1524.235693511037	749
1	1814	1527.576170554719	750
1	1816	1528.039778483285	751
1	1818	1529.403797302034	752
1	1820	1530.333145590962	753
1	1822	1532.658222126282	754
1	1824	1534.610283974099	755
1	1826	1537.112581334793	756
1	1828	1537.439578968597	757
1	1830	1538.479979260132	758
1	1833	1541.980109535146	759
1	1837	1550.341960150042	760
1	1839	1550.83066062702	761
1	1841	1552.553656947312	762
1	1843	1554.444160379773	763
1	1845	1556.46965574238	764
1	1848	1558.200153605498	765
1	1850	1558.323537992985	766
1	1852	1559.611521340144	767
1	1854	1561.921517248041	768
1	1856	1562.249196730998	769
1	1858	1564.264011313178	770
1	1860	1565.017475779134	771
1	1862	1568.791476641076	772
1	1864	1573.135464158439	773
1	1866	1578.960277876502	774
1	1868	1579.301235420959	775
1	1872	1586.221490982371	776
1	1874	1590.264922845298	777
1	1876	1595.980184083324	778
1	1878	1598.57929918881	779
1	1881	1599.988159408847	780
1	1883	1600.476144940173	781
1	1886	1601.313092761309	782
1	1889	1607.776933694122	783
1	1891	1608.366045671167	784
1	1893	1610.059039017694	785
1	1895	1611.587092698381	786
1	1897	1611.593855051221	787
1	1899	1611.967951781056	788
1	1903	1616.810111203731	789
1	1905	1617.633125003924	790
1	1907	1618.673168568527	791
1	1909	1619.985660983828	792
1	1911	1620.581757724722	793
1	1913	1623.351097092077	794
1	1915	1624.388150608152	795
1	1917	1626.531071652044	796
1	1919	1628.528297325991	797
1	1921	1628.97033763747	798
1	1923	1629.238341134433	799
1	1925	1630.362935843495	800
1	1927	1637.187541537461	801
1	1929	1641.716519042777	802
1	1931	1645.036979548545	803
1	1933	1645.061137397707	804
1	1935	1648.255600764167	805
1	1937	1652.989624735826	806
1	1939	1654.069347738449	807
1	1942	1654.737532078934	808
1	1944	1655.937098800819	809
1	1946	1656.888317853678	810
1	1948	1657.745633214502	811
1	1950	1662.949831096336	812
1	1953	1665.401276512695	813
1	1955	1668.035899860959	814
1	1957	1668.6218766264	815
1	1961	1671.550246404795	816
1	1963	1673.858873370646	817
1	1965	1675.667953418453	818
1	1967	1675.952587229349	819
1	1969	1677.181667635725	820
1	1971	1681.023136093337	821
1	1973	1681.687740252343	822
1	1975	1682.389016669198	823
1	1977	1685.198825179304	824
1	1979	1685.300232104466	825
1	1981	1687.015336951529	826
1	1983	1687.245782921433	827
1	1985	1690.033004860035	828
1	1987	1691.441730365123	829
1	1989	1695.67976248533	830
1	1991	1696.779945000349	831
1	1993	1698.433750128985	832
1	1995	1698.963228349357	833
1	1997	1699.169648782598	834
1	1999	1701.15586921067	835
1	2001	1701.890032255524	836
1	2003	1702.47176712915	837
1	2005	1703.621283076167	838
1	2007	1703.827614268082	839
1	2009	1703.839036041845	840
1	2011	1706.321389686286	841
1	2013	1706.442263814367	842
1	2015	1706.802290614209	843
1	2017	1708.478092880226	844
1	2019	1710.946149133675	845
1	2021	1712.071178720411	846
1	2023	1713.546071583437	847
1	2025	1713.949136234495	848
1	2027	1714.005996752244	849
1	2029	1715.386809461806	850
1	2031	1717.703918270167	851
1	2033	1718.83809222992	852
1	2035	1721.4202874441	853
1	2037	1722.543930821187	854
1	2039	1727.29529828324	855
1	2041	1727.995293976927	856
1	2043	1729.79924404215	857
1	2045	1731.454046475042	858
1	2047	1733.641792292647	859
1	2049	1736.576453002462	860
1	2051	1740.692671466698	861
1	2053	1741.886963699366	862
1	2055	1743.192345084033	863
1	2057	1745.407344963208	864
1	2059	1748.252661472725	865
1	2062	1749.736882997458	866
1	2064	1749.750658837157	867
1	2066	1749.930291421475	868
1	2068	1750.914320981967	869
1	2072	1754.039251679122	870
1	2074	1758.617284035796	871
1	2076	1761.406234280016	872
1	2078	1763.433605905426	873
1	2080	1763.772103106948	874
1	2082	1765.581739657176	875
1	2084	1766.239539826369	876
1	2086	1769.147363102182	877
1	2088	1776.515058825508	878
1	2090	1779.589518827506	879
1	2092	1783.103777808372	880
1	2097	1786.876966045172	881
1	2100	1790.745455258415	882
1	2102	1792.190753440125	883
1	2104	1797.670507033302	884
1	2106	1798.287041160017	885
1	2108	1800.091334877918	886
1	2110	1802.144987185443	887
1	2112	1803.10586536905	888
1	2114	1804.630391557477	889
1	2116	1806.107547564989	890
1	2118	1806.76964296415	891
1	2120	1808.03897878339	892
1	2122	1808.364685922008	893
1	2124	1817.603555967564	894
1	2126	1818.124625959279	895
1	2128	1819.644032054649	896
1	2130	1821.907714268948	897
1	2132	1822.604374187522	898
1	2134	1824.932569132611	899
1	2136	1825.388009113513	900
1	2138	1825.946292318511	901
1	2140	1826.110688267935	902
1	2144	1829.944412803799	903
1	2146	1830.902739394103	904
1	2148	1832.750617347929	905
1	2152	1845.999639627752	906
1	2154	1851.034034539787	907
1	2156	1851.773624786027	908
1	2158	1854.502195527194	909
1	2160	1854.619376693676	910
1	2162	1854.765734155049	911
1	2164	1860.589070969222	912
1	2166	1861.485131482468	913
1	2168	1861.50337269731	914
1	2173	1865.996245510269	915
1	2175	1866.063002967346	916
1	2177	1866.662916604058	917
1	2179	1867.458192841263	918
1	2181	1867.578487058035	919
1	2183	1867.963637387873	920
1	2185	1869.918890622	921
1	2189	1873.125315866874	922
1	2192	1876.272539694962	923
1	2194	1877.487938673112	924
1	2200	1886.027148850649	925
1	2202	1886.520100324665	926
1	2204	1887.891833856357	927
1	2206	1888.460095649785	928
1	2208	1889.819228007956	929
1	2210	1891.750762404677	930
1	2212	1891.851351127439	931
1	2215	1895.628309114366	932
1	2218	1896.542579579093	933
1	2220	1901.643844262195	934
1	2222	1903.020768667383	935
1	2226	1904.03318841224	936
1	2228	1907.852908251565	937
1	2230	1908.118645426677	938
1	2232	1908.722043968504	939
1	2234	1914.597735528967	940
1	2236	1914.820846997013	941
1	2238	1917.518157964064	942
1	2240	1922.705719254794	943
1	2242	1924.76446157686	944
1	2244	1924.937311468795	945
1	2246	1926.027710588283	946
1	2248	1931.670564988525	947
1	2250	1932.571743026849	948
1	2252	1933.043017924434	949
1	2254	1934.336704741291	950
1	2256	1935.641701428457	951
1	2258	1936.033886985515	952
1	2260	1936.994515771889	953
1	2263	1939.463895624523	954
1	2265	1942.657149263497	955
1	2267	1943.966875546821	956
1	2269	1946.568051527348	957
1	2271	1947.280393569197	958
1	2273	1947.316394465465	959
1	2275	1947.674653577627	960
1	2277	1951.424340063885	961
1	2279	1952.232624072083	962
1	2281	1956.922108794337	963
1	2283	1957.092867127681	964
1	2285	1958.192287076518	965
1	2287	1958.670258760372	966
1	2289	1958.691273318638	967
1	2291	1960.757522712785	968
1	2293	1965.063878946626	969
1	2295	1965.52813531679	970
1	2297	1966.07874774586	971
1	2299	1981.374729437098	972
1	2301	1982.602509566206	973
1	2303	1982.661947153012	974
1	2306	1982.85727806091	975
1	2308	1983.487240238613	976
1	2313	1988.972804999477	977
1	2315	1989.74096798963	978
1	2317	1989.988248934936	979
1	2320	1990.484118115026	980
1	2322	1996.280264655654	981
1	2324	1997.232910848858	982
1	2326	1997.892794150222	983
1	2328	1998.282685973159	984
1	2330	1998.846061198121	985
1	2332	1999.07610559528	986
1	2334	2000.323732727335	987
1	2336	2000.638614797067	988
1	2338	2002.10400340346	989
1	2340	2008.001425011755	990
1	2342	2008.815442501735	991
1	2345	2012.821145010838	992
1	2347	2014.658591743945	993
1	2349	2021.229163850364	994
1	2351	2022.880295477211	995
1	2353	2023.049755484786	996
1	2359	2027.889229991914	997
1	2361	2028.04039244714	998
1	2363	2029.234251677347	999
1	2365	2030.505192952552	1000
1	2367	2030.579174070717	1001
1	2371	2033.82836597103	1002
1	2373	2036.46435629585	1003
1	2377	2038.572002021268	1004
1	2379	2046.845457260513	1005
1	2381	2047.370350102874	1006
1	2383	2048.593498235931	1007
1	2385	2048.907188512116	1008
1	2387	2049.295762105544	1009
1	2389	2049.359001734945	1010
1	2393	2049.977306753794	1011
1	2395	2053.777051670717	1012
1	2397	2054.189114794369	1013
1	2399	2055.960234327164	1014
1	2401	2058.060337155555	1015
1	2403	2058.57761386486	1016
1	2405	2058.637519309823	1017
1	2407	2060.589509210769	1018
1	2409	2061.649922927564	1019
1	2411	2066.781166808602	1020
1	2417	2077.040295087098	1021
1	2419	2077.318167238739	1022
1	2421	2077.495048844989	1023
1	2423	2077.891472872324	1024
1	2425	2078.062882240985	1025
1	2427	2078.297350485623	1026
1	2429	2078.428473854145	1027
1	2431	2078.854362517365	1028
1	2433	2079.908677087327	1029
1	2436	2085.561219550244	1030
1	2438	2085.654069586764	1031
1	2440	2086.081201875555	1032
1	2442	2088.588158767121	1033
1	2444	2091.016695569552	1034
1	2449	2095.3059285719	1035
1	2451	2101.38925104944	1036
1	2453	2102.438664565548	1037
1	2455	2103.407199143421	1038
1	2457	2103.754092131907	1039
1	2459	2104.97908502583	1040
1	2461	2105.735556697848	1041
1	2463	2110.043309341644	1042
1	2465	2110.690537580444	1043
1	2467	2116.209820748972	1044
1	2469	2117.668764538682	1045
1	2471	2118.111147869646	1046
1	2473	2118.249397698887	1047
1	2475	2119.608740040522	1048
1	2477	2121.844305172077	1049
1	2479	2122.613724452208	1050
1	2481	2123.225274538215	1051
1	2484	2126.876338417432	1052
1	2486	2128.566739965988	1053
1	2488	2128.644477664984	1054
1	2490	2130.085739496084	1055
1	2493	2134.694039117324	1056
1	2495	2135.986288311164	1057
1	2497	2137.044879031365	1058
1	2499	2137.646967359629	1059
1	2501	2139.468719984356	1060
1	2503	2139.674505072851	1061
1	2505	2142.547179403705	1062
1	2509	2147.75092141345	1063
1	2511	2148.114203567024	1064
1	2515	2149.199223350575	1065
1	2517	2149.828844624079	1066
1	2519	2150.338669078916	1067
1	2523	2151.943242540676	1068
1	2525	2154.398727082288	1069
1	2527	2157.614135492866	1070
1	2529	2159.619038514108	1071
1	2531	2161.346917372423	1072
1	2533	2162.316498482093	1073
1	2535	2163.671262420849	1074
1	2537	2168.75446562868	1075
1	2539	2170.338516079766	1076
1	2541	2171.090814650401	1077
1	2543	2175.574632944797	1078
1	2545	2175.62145082013	1079
1	2547	2176.390734458297	1080
1	2549	2177.849588505421	1081
1	2551	2178.851180220516	1082
1	2553	2181.573998655214	1083
1	2557	2184.504125617373	1084
1	2559	2185.161345279519	1085
1	2562	2185.509348544856	1086
1	2564	2185.879084944003	1087
1	2566	2187.854499952591	1088
1	2568	2189.462812889789	1089
1	2570	2191.909397774662	1090
1	2572	2192.310221649665	1091
1	2574	2194.80621771911	1092
1	2576	2196.29336125107	1093
1	2578	2196.690854335256	1094
1	2580	2199.703198958857	1095
1	2582	2200.91451365123	1096
1	2587	2205.554641261983	1097
1	2590	2207.689089726613	1098
1	2592	2208.400230011574	1099
1	2595	2209.020682111427	1100
1	2598	2212.107520545589	1101
1	2600	2214.791261367876	1102
1	2602	2215.210536529971	1103
1	2606	2219.594944883521	1104
1	2608	2219.657842324899	1105
1	2611	2221.033945672215	1106
1	2613	2221.129605027283	1107
1	2615	2221.225668431514	1108
1	2617	2225.109727732812	1109
1	2619	2225.153772540624	1110
1	2621	2225.956145332392	1111
1	2624	2227.577925833217	1112
1	2626	2230.468233814713	1113
1	2628	2232.262122910916	1114
1	2630	2235.167189293844	1115
1	2632	2235.868049876729	1116
1	2634	2236.392306859389	1117
1	2636	2236.950804665409	1118
1	2638	2237.390600157968	1119
1	2640	2241.062129017956	1120
1	2644	2248.805498485743	1121
1	2648	2250.306717654007	1122
1	2650	2250.804639314382	1123
1	2654	2254.864802804936	1124
1	2656	2256.679086463467	1125
1	2658	2258.647061123736	1126
1	2660	2262.011519977783	1127
1	2662	2264.911217300331	1128
1	2664	2267.267349588368	1129
1	2666	2268.25753606483	1130
1	2668	2269.726705976426	1131
1	2670	2275.2198798603	1132
1	2672	2275.867465877025	1133
1	2674	2276.700523178863	1134
1	2676	2278.680956085902	1135
1	2682	2280.608175047359	1136
1	2684	2281.223177112851	1137
1	2686	2281.755376832949	1138
1	2688	2282.859840351026	1139
1	2690	2283.198469292916	1140
1	2693	2283.241723994616	1141
1	2695	2289.728769024784	1142
1	2697	2292.071355434619	1143
1	2699	2293.569061951715	1144
1	2703	2297.286480972713	1145
1	2705	2300.798408065868	1146
1	2708	2303.73797653417	1147
1	2710	2303.9448318445	1148
1	2712	2305.657055978313	1149
1	2714	2306.781916383597	1150
1	2716	2307.287381326649	1151
1	2718	2308.060254139346	1152
1	2720	2308.774631759696	1153
1	2722	2309.642613243636	1154
1	2724	2309.834819073191	1155
1	2729	2312.398040450407	1156
1	2735	2319.219852521042	1157
1	2737	2320.119893459449	1158
1	2741	2322.490644505333	1159
1	2743	2323.680370802934	1160
1	2745	2326.055690616111	1161
1	2754	2328.920904066468	1162
1	2759	2333.276728142445	1163
1	2761	2334.116811205311	1164
1	2763	2335.084198962875	1165
1	2765	2337.81814878051	1166
1	2768	2339.637135154324	1167
1	2770	2343.551663603516	1168
1	2772	2344.149213888043	1169
1	2774	2344.458690599845	1170
1	2776	2345.539982024437	1171
1	2778	2348.125335346855	1172
1	2780	2348.241882598615	1173
1	2782	2350.934022236703	1174
1	2786	2357.886118320845	1175
1	2788	2358.21786922339	1176
1	2790	2358.352273284764	1177
1	2792	2365.637889828586	1178
1	2797	2371.209399324356	1179
1	2800	2375.165714000452	1180
1	2802	2375.351385684843	1181
1	2804	2376.05456413506	1182
1	2806	2379.660618975842	1183
1	2808	2380.448366155511	1184
1	2810	2382.184089518186	1185
1	2812	2383.180489617042	1186
1	2814	2386.557388293578	1187
1	2816	2387.238428901041	1188
1	2818	2389.990638553651	1189
1	2820	2390.235050219902	1190
1	2822	2392.556650548534	1191
1	2825	2395.295240531893	1192
1	2827	2395.989886450094	1193
1	2829	2398.580636690009	1194
1	2831	2400.827183266222	1195
1	2833	2403.770119160753	1196
1	2835	2406.347260980559	1197
1	2837	2408.746108837254	1198
1	2841	2409.149929466988	1199
1	2843	2411.556371179306	1200
1	2845	2413.360576419585	1201
1	2847	2415.683365225297	1202
1	2850	2416.887024228095	1203
1	2852	2420.546771285497	1204
1	2854	2421.014247619048	1205
1	2856	2421.247855478234	1206
1	2863	2430.650312331768	1207
1	2867	2435.372419232791	1208
1	2869	2435.599568848958	1209
1	2871	2436.641420913613	1210
1	2873	2438.487306106611	1211
1	2875	2439.583998160816	1212
1	2877	2439.654000607101	1213
1	2879	2439.916502597605	1214
1	2881	2442.571719773694	1215
1	2883	2447.034288182334	1216
1	2885	2448.049099157907	1217
1	2887	2448.899338561722	1218
1	2889	2450.171169654912	1219
1	2891	2453.859599877218	1220
1	2894	2456.850231636679	1221
1	2896	2459.174985920892	1222
1	2898	2464.518621526051	1223
1	2902	2466.314739803188	1224
1	2904	2467.361189569367	1225
1	2906	2467.991076576173	1226
1	2908	2468.342964549954	1227
1	2912	2473.848060142962	1228
1	2916	2474.326809456407	1229
1	2920	2482.120896025818	1230
1	2922	2483.149430855811	1231
1	2924	2485.555906602835	1232
1	2926	2489.519429642592	1233
1	2928	2493.596902608216	1234
1	2930	2494.830638649361	1235
1	2932	2496.679488025922	1236
1	2934	2497.551342294555	1237
1	2936	2498.676678422241	1238
1	2940	2499.407318661482	1239
2	479	375.391315048882	5
2	533	416.09885070976	6
2	580	457.766007587543	6
2	607	476.548788404644	6
2	619	486.357315170998	7
2	658	519.361765448563	5
2	670	529.267700894395	6
2	719	564.300560389618	6
2	767	619.011098646388	7
2	779	625.351485420614	6
2	817	656.547358981017	7
2	859	692.763323156002	6
2	868	703.740050135436	6
2	874	710.380849687831	7
2	890	720.453856391853	8
2	892	723.431017966754	9
2	908	733.910972131425	10
2	942	758.996673827888	11
2	954	766.656699326265	12
2	970	779.450215402787	13
2	1009	818.983464402905	11
2	1037	835.248604404272	12
2	1047	843.367700009282	13
2	1063	853.109086923126	14
2	1075	863.83902178876	15
2	1127	920.493155444247	16
2	1137	931.651819903604	17
2	1143	933.345352980081	18
2	1268	1058.518930789588	16
2	1332	1108.361782751192	13
2	1358	1132.694596718756	12
2	1366	1136.108807583738	13
2	1372	1136.333826018112	14
2	1389	1148.078871593158	14
2	1421	1163.720581410365	15
2	1429	1168.488416785386	16
2	1441	1173.076299037651	17
2	1445	1176.916299660197	18
2	1495	1216.291314203088	17
2	1525	1230.755115960214	16
2	1561	1272.682469325331	13
2	1610	1317.361855239214	13
2	1654	1361.686355425169	12
2	1689	1413.14304119274	12
2	1697	1419.219797478038	13
2	1734	1455.374959090924	13
2	1796	1512.613832586893	10
2	1812	1526.463072663728	9
2	1835	1545.518748707868	9
2	1870	1579.922105872001	9
2	1901	1614.647544777863	7
2	1959	1669.12752658445	6
2	2070	1752.69058199458	6
2	2095	1784.36714221366	6
2	2142	1826.11813210479	6
2	2150	1838.500648643851	7
2	2170	1862.163813384079	8
2	2187	1870.862406747146	8
2	2196	1881.496160769119	8
2	2198	1883.79523115591	9
2	2224	1903.24141457117	8
2	2310	1986.939751930008	7
2	2355	2024.452246727987	5
2	2357	2027.727541502782	6
2	2369	2030.661302349244	7
2	2375	2037.18732466916	8
2	2391	2049.562016438356	9
2	2413	2073.58352631853	10
2	2415	2074.263168382427	11
2	2447	2095.128767516438	10
2	2507	2143.862823377282	9
2	2513	2148.922937466807	10
2	2521	2150.669734305564	11
2	2555	2183.044205315737	12
2	2585	2202.435043403632	11
2	2604	2216.788444128043	9
2	2646	2249.729384129566	6
2	2652	2251.367958607534	7
2	2678	2279.690247357455	8
2	2680	2280.385384205945	9
2	2701	2294.765771610817	9
2	2726	2311.466960642226	9
2	2731	2314.816185985176	9
2	2733	2318.058885096036	10
2	2739	2321.349749090659	11
2	2747	2326.870960380821	12
2	2750	2327.4267847295	12
2	2752	2328.107968982309	13
2	2757	2332.981509177791	13
2	2784	2354.319388697645	13
2	2794	2370.218810734865	14
2	2839	2408.760504512205	12
2	2858	2422.9459360675	12
2	2860	2427.402652917027	13
2	2865	2432.751736103515	13
2	2900	2465.658478271555	13
2	2910	2472.320315154536	14
2	2914	2473.889202106358	15
2	2918	2478.649007051707	16
2	2938	2498.862924785266	17
3	479	375.391315048882	4
3	533	416.09885070976	5
3	560	434.889690873118	5
3	580	457.766007587543	5
3	599	466.752855652579	5
3	607	476.548788404644	5
3	619	486.357315170998	6
3	622	497.114824267265	6
3	623	498.052509281851	5
3	634	502.298757417758	4
3	658	519.361765448563	4
3	670	529.267700894395	5
3	705	551.043561465155	5
3	719	564.300560389618	5
3	767	619.011098646388	6
3	770	619.934141297224	6
3	775	624.745429231535	5
3	779	625.351485420614	5
3	817	656.547358981017	6
3	836	670.058951191046	6
3	843	677.296643889368	5
3	859	692.763323156002	5
3	866	702.251559796877	5
3	868	703.740050135436	5
3	874	710.380849687831	6
3	890	720.453856391853	7
3	892	723.431017966754	8
3	908	733.910972131425	9
3	942	758.996673827888	10
3	954	766.656699326265	11
3	970	779.450215402787	12
3	985	792.564777575237	12
3	994	802.351018017851	11
3	997	806.464004881773	10
3	1009	818.983464402905	10
3	1037	835.248604404272	11
3	1047	843.367700009282	12
3	1063	853.109086923126	13
3	1075	863.83902178876	14
3	1127	920.493155444247	15
3	1137	931.651819903604	16
3	1143	933.345352980081	17
3	1156	951.732570051428	17
3	1247	1041.435636778357	16
3	1250	1041.96374908397	15
3	1268	1058.518930789588	15
3	1279	1069.696375877263	15
3	1292	1078.109113167536	14
3	1303	1083.139614772388	13
3	1330	1108.185550372994	12
3	1332	1108.361782751192	12
3	1337	1111.386669863527	12
3	1354	1126.845064868668	11
3	1358	1132.694596718756	11
3	1366	1136.108807583738	12
3	1372	1136.333826018112	13
3	1379	1141.349807900295	13
3	1389	1148.078871593158	13
3	1421	1163.720581410365	14
3	1429	1168.488416785386	15
3	1441	1173.076299037651	16
3	1445	1176.916299660197	17
3	1446	1179.286227240621	17
3	1455	1189.3122601862	16
3	1495	1216.291314203088	16
3	1498	1218.193376589307	16
3	1499	1219.642212682605	15
3	1525	1230.755115960214	15
3	1536	1241.207414265897	15
3	1545	1249.46403071628	14
3	1550	1260.583448765885	13
3	1551	1260.805420458794	12
3	1561	1272.682469325331	12
3	1576	1289.768472765469	12
3	1610	1317.361855239214	12
3	1615	1318.948170397694	12
3	1628	1325.675993575126	11
3	1654	1361.686355425169	11
3	1659	1367.22041412599	11
3	1689	1413.14304119274	11
3	1697	1419.219797478038	12
3	1718	1446.640130308316	12
3	1734	1455.374959090924	12
3	1741	1461.894119763422	12
3	1754	1472.115540512023	11
3	1755	1473.879332911093	10
3	1762	1486.053992517861	9
3	1796	1512.613832586893	9
3	1805	1520.837089776772	9
3	1810	1525.537881824727	8
3	1812	1526.463072663728	8
3	1831	1539.584917839585	8
3	1835	1545.518748707868	8
3	1846	1557.213765609698	8
3	1870	1579.922105872001	8
3	1879	1599.890643381201	8
3	1884	1601.216587310788	7
3	1887	1605.040918147585	6
3	1901	1614.647544777863	6
3	1940	1654.20156119065	6
3	1951	1664.516913666457	5
3	1959	1669.12752658445	5
3	2060	1748.416618898579	5
3	2070	1752.69058199458	5
3	2093	1784.10751531157	5
3	2095	1784.36714221366	5
3	2098	1787.494257764021	5
3	2142	1826.11813210479	5
3	2150	1838.500648643851	6
3	2170	1862.163813384079	7
3	2171	1864.44001859629	7
3	2187	1870.862406747146	7
3	2190	1876.0291925997	7
3	2196	1881.496160769119	7
3	2198	1883.79523115591	8
3	2213	1895.336961854956	8
3	2216	1896.225243922524	7
3	2224	1903.24141457117	7
3	2261	1937.017456780344	7
3	2304	1982.690905752221	6
3	2310	1986.939751930008	6
3	2311	1988.414620373593	6
3	2318	1990.092390119258	5
3	2343	2010.694682460648	4
3	2355	2024.452246727987	4
3	2357	2027.727541502782	5
3	2369	2030.661302349244	6
3	2375	2037.18732466916	7
3	2391	2049.562016438356	8
3	2413	2073.58352631853	9
3	2415	2074.263168382427	10
3	2434	2084.765071005096	10
3	2445	2091.911449978769	9
3	2447	2095.128767516438	9
3	2482	2126.560562121057	9
3	2491	2132.190865947298	8
3	2507	2143.862823377282	8
3	2513	2148.922937466807	9
3	2521	2150.669734305564	10
3	2555	2183.044205315737	11
3	2560	2185.374972193681	11
3	2583	2201.169177386503	10
3	2585	2202.435043403632	10
3	2588	2205.929519484872	10
3	2593	2208.480752362241	9
3	2596	2211.472979782646	8
3	2604	2216.788444128043	8
3	2609	2219.877349155895	8
3	2622	2226.967541245688	7
3	2641	2246.949413704614	6
3	2642	2247.607425540526	5
3	2646	2249.729384129566	5
3	2652	2251.367958607534	6
3	2678	2279.690247357455	7
3	2680	2280.385384205945	8
3	2691	2283.229979565647	8
3	2701	2294.765771610817	8
3	2706	2302.86749267931	8
3	2726	2311.466960642226	8
3	2727	2311.649623268396	8
3	2731	2314.816185985176	8
3	2733	2318.058885096036	9
3	2739	2321.349749090659	10
3	2747	2326.870960380821	11
3	2748	2327.279378499484	11
3	2750	2327.4267847295	11
3	2752	2328.107968982309	12
3	2755	2332.647735473352	12
3	2757	2332.981509177791	12
3	2766	2338.020707086431	12
3	2784	2354.319388697645	12
3	2794	2370.218810734865	13
3	2795	2370.414041608219	13
3	2798	2374.264789131633	12
3	2823	2392.777113652128	11
3	2839	2408.760504512205	11
3	2848	2416.686299007543	11
3	2858	2422.9459360675	11
3	2860	2427.402652917027	12
3	2861	2430.296057444112	12
3	2865	2432.751736103515	12
3	2892	2456.661101536342	12
3	2900	2465.658478271555	12
3	2910	2472.320315154536	13
3	2914	2473.889202106358	14
3	2918	2478.649007051707	15
3	2938	2498.862924785266	16
4	560	434.889690873118	20
4	599	466.752855652579	21
4	622	497.114824267265	22
4	623	498.052509281851	23
4	634	502.298757417758	24
4	705	551.043561465155	25
4	770	619.934141297224	26
4	775	624.745429231535	27
4	836	670.058951191046	28
4	843	677.296643889368	29
4	866	702.251559796877	30
4	985	792.564777575237	31
4	994	802.351018017851	32
4	997	806.464004881773	33
4	1156	951.732570051428	34
4	1247	1041.435636778357	35
4	1250	1041.96374908397	36
4	1279	1069.696375877263	37
4	1292	1078.109113167536	38
4	1303	1083.139614772388	39
4	1330	1108.185550372994	40
4	1337	1111.386669863527	41
4	1354	1126.845064868668	42
4	1379	1141.349807900295	43
4	1446	1179.286227240621	44
4	1455	1189.3122601862	45
4	1498	1218.193376589307	46
4	1499	1219.642212682605	47
4	1536	1241.207414265897	48
4	1545	1249.46403071628	49
4	1550	1260.583448765885	50
4	1551	1260.805420458794	51
4	1576	1289.768472765469	52
4	1615	1318.948170397694	53
4	1628	1325.675993575126	54
4	1659	1367.22041412599	55
4	1718	1446.640130308316	56
4	1741	1461.894119763422	57
4	1754	1472.115540512023	58
4	1755	1473.879332911093	59
4	1762	1486.053992517861	60
4	1805	1520.837089776772	61
4	1810	1525.537881824727	62
4	1831	1539.584917839585	63
4	1846	1557.213765609698	64
4	1879	1599.890643381201	65
4	1884	1601.216587310788	66
4	1887	1605.040918147585	67
4	1940	1654.20156119065	68
4	1951	1664.516913666457	69
4	2060	1748.416618898579	70
4	2093	1784.10751531157	71
4	2098	1787.494257764021	72
4	2171	1864.44001859629	73
4	2190	1876.0291925997	74
4	2213	1895.336961854956	75
4	2216	1896.225243922524	76
4	2261	1937.017456780344	77
4	2304	1982.690905752221	78
4	2311	1988.414620373593	79
4	2318	1990.092390119258	80
4	2343	2010.694682460648	81
4	2434	2084.765071005096	82
4	2445	2091.911449978769	83
4	2482	2126.560562121057	84
4	2491	2132.190865947298	85
4	2560	2185.374972193681	86
4	2583	2201.169177386503	87
4	2588	2205.929519484872	88
4	2593	2208.480752362241	89
4	2596	2211.472979782646	90
4	2609	2219.877349155895	91
4	2622	2226.967541245688	92
4	2641	2246.949413704614	93
4	2642	2247.607425540526	94
4	2691	2283.229979565647	95
4	2706	2302.86749267931	96
4	2727	2311.649623268396	97
4	2748	2327.279378499484	98
4	2755	2332.647735473352	99
4	2766	2338.020707086431	100
4	2795	2370.414041608219	101
4	2798	2374.264789131633	102
4	2823	2392.777113652128	103
4	2848	2416.686299007543	104
4	2861	2430.296057444112	105
4	2892	2456.661101536342	106
5	560	434.889690873118	145.99579243616
5	599	466.752855652579	177.58872762347
5	622	497.114824267265	180.41610865729
5	623	498.052509281851	160.44443106734
5	634	502.298757417758	126.90744236888
5	705	551.043561465155	134.94471075539
5	770	619.934141297224	162.16813370968
5	775	624.745429231535	148.19664082689
5	836	670.058951191046	183.70163602005
5	843	677.296643889368	157.9348784408
5	866	702.251559796877	172.98385890248
5	985	792.564777575237	228.26421718562
5	994	802.351018017851	183.33991937146
5	997	806.464004881773	181.11251946116
5	1156	951.732570051428	295.18521107041
5	1247	1041.435636778357	348.67231362235
5	1250	1041.96374908397	338.22369894853
5	1279	1069.696375877263	359.31552618943
5	1292	1078.109113167536	357.65525677568
5	1303	1083.139614772388	359.70859680563
5	1330	1108.185550372994	374.27457824157
5	1337	1111.386669863527	352.38999603564
5	1354	1126.845064868668	360.1883655424
5	1379	1141.349807900295	361.89959249751
5	1446	1179.286227240621	360.30276283772
5	1455	1189.3122601862	354.06365578193
5	1498	1218.193376589307	374.82567658003
5	1499	1219.642212682605	366.53312575948
5	1536	1241.207414265897	377.36839247714
5	1545	1249.46403071628	328.97087527203
5	1550	1260.583448765885	328.93162886228
5	1551	1260.805420458794	327.46006747871
5	1576	1289.768472765469	231.24954197588
5	1615	1318.948170397694	210.5863876465
5	1628	1325.675993575126	192.98139685637
5	1659	1367.22041412599	231.11160654225
5	1718	1446.640130308316	310.3063042902
5	1741	1461.894119763422	313.81524817026
5	1754	1472.115540512023	308.39495910166
5	1755	1473.879332911093	305.39091612571
5	1762	1486.053992517861	312.97769348021
5	1805	1520.837089776772	343.92079011658
5	1810	1525.537881824727	309.24656762164
5	1831	1539.584917839585	308.82980187937
5	1846	1557.213765609698	284.53129628437
5	1879	1599.890643381201	282.52878814199
5	1884	1601.216587310788	239.53023188562
5	1887	1605.040918147585	191.89787695485
5	1940	1654.20156119065	234.98176371261
5	1951	1664.516913666457	209.14195457553
5	2060	1748.416618898579	235.80278631169
5	2093	1784.10751531157	257.64444264784
5	2098	1787.494257764021	241.97550905615
5	2171	1864.44001859629	284.51791272429
5	2190	1876.0291925997	261.38164782184
5	2213	1895.336961854956	226.20943527051
5	2216	1896.225243922524	143.53466192794
5	2261	1937.017456780344	152.65031456668
5	2304	1982.690905752221	156.57277364743
5	2311	1988.414620373593	149.91397172974
5	2318	1990.092390119258	127.92857673518
5	2343	2010.694682460648	139.8322757135
5	2434	2084.765071005096	203.26891023598
5	2445	2091.911449978769	208.11621882286
5	2482	2126.560562121057	223.31914754989
5	2491	2132.190865947298	145.25111401729
5	2560	2185.374972193681	160.92272546569
5	2583	2201.169177386503	173.44163588372
5	2588	2205.929519484872	175.26821713563
5	2593	2208.480752362241	171.29342769308
5	2596	2211.472979782646	161.91096334429
5	2609	2219.877349155895	146.29382283736
5	2622	2226.967541245688	152.70437286326
5	2641	2246.949413704614	151.82064618818
5	2642	2247.607425540526	103.74460216324
5	2691	2283.229979565647	134.30704209884
5	2706	2302.86749267931	152.19775837375
5	2727	2311.649623268396	128.60541795266
5	2748	2327.279378499484	124.84433509585
5	2755	2332.647735473352	115.85929134531
5	2766	2338.020707086431	88.291322956865
5	2795	2370.414041608219	119.04608300069
5	2798	2374.264789131633	94.574541774178
5	2823	2392.777113652128	112.39172944618
5	2848	2416.686299007543	121.92052739673
5	2861	2430.296057444112	118.82909680189
5	2892	2456.661101536342	141.84491555117
6	560	434.889690873118	145.72556284401
6	599	466.752855652579	150.05414004261
6	622	497.114824267265	159.50674605275
6	623	498.052509281851	122.66119423297
6	634	502.298757417758	86.199906707998
6	705	551.043561465155	93.277553877612
6	770	619.934141297224	143.38535289258
6	775	624.745429231535	138.38811406054
6	836	670.058951191046	150.69718574248
6	843	677.296643889368	148.02894299497
6	866	702.251559796877	137.95099940726
6	985	792.564777575237	173.55367892885
6	994	802.351018017851	176.99953259724
6	997	806.464004881773	149.91664590076
6	1156	951.732570051428	258.96924689543
6	1247	1041.435636778357	337.69558664292
6	1250	1041.96374908397	331.58289939614
6	1279	1069.696375877263	349.24251948541
6	1292	1078.109113167536	354.67809520078
6	1303	1083.139614772388	349.22864264096
6	1330	1108.185550372994	349.18887654511
6	1337	1111.386669863527	344.72997053726
6	1354	1126.845064868668	347.39484946588
6	1379	1141.349807900295	322.36634349739
6	1446	1179.286227240621	344.03762283635
6	1455	1189.3122601862	345.94456017692
6	1498	1218.193376589307	365.08428966618
6	1499	1219.642212682605	355.80319089384
6	1536	1241.207414265897	320.71425882165
6	1545	1249.46403071628	317.81221081268
6	1550	1260.583448765885	327.2380957858
6	1551	1260.805420458794	202.28648966921
6	1576	1289.768472765469	181.40669001428
6	1615	1318.948170397694	186.25357367894
6	1628	1325.675993575126	189.56718599139
6	1659	1367.22041412599	230.88658810788
6	1718	1446.640130308316	298.56125871516
6	1741	1461.894119763422	298.17353835306
6	1754	1472.115540512023	303.62712372664
6	1755	1473.879332911093	300.80303387344
6	1762	1486.053992517861	309.13769285766
6	1805	1520.837089776772	304.54577557368
6	1810	1525.537881824727	294.78276586451
6	1831	1539.584917839585	266.90244851425
6	1846	1557.213765609698	239.85191037048
6	1879	1599.890643381201	238.20428795603
6	1884	1601.216587310788	188.07354611805
6	1887	1605.040918147585	185.82112066955
6	1940	1654.20156119065	198.82660209973
6	1951	1664.516913666457	151.90308107956
6	2060	1748.416618898579	221.95354623485
6	2093	1784.10751531157	238.5887666037
6	2098	1787.494257764021	207.57215189202
6	2171	1864.44001859629	249.79247381843
6	2190	1876.0291925997	206.90166601525
6	2213	1895.336961854956	142.64637986038
6	2216	1896.225243922524	111.85810170886
6	2261	1937.017456780344	110.89932467555
6	2304	1982.690905752221	144.19025710837
6	2311	1988.414620373593	126.25080698951
6	2318	1990.092390119258	119.22998337211
6	2343	2010.694682460648	129.19852169153
6	2434	2084.765071005096	200.96983984919
6	2445	2091.911449978769	188.6700354076
6	2482	2126.560562121057	139.62081019105
6	2491	2132.190865947298	107.73861921931
6	2560	2185.374972193681	157.6474306909
6	2583	2201.169177386503	170.50787503726
6	2588	2205.929519484872	168.74219481571
6	2593	2208.480752362241	158.91873592389
6	2596	2211.472979782646	137.88945346412
6	2609	2219.877349155895	145.61418077347
6	2622	2226.967541245688	131.83877372925
6	2641	2246.949413704614	103.08659032733
6	2642	2247.607425540526	98.684488073719
6	2691	2283.229979565647	132.56024526008
6	2706	2302.86749267931	119.82328736357
6	2727	2311.649623268396	109.21457986476
6	2748	2327.279378499484	110.49093437144
6	2755	2332.647735473352	82.918351343786
6	2766	2338.020707086431	86.652748478897
6	2795	2370.414041608219	90.723794250764
6	2798	2374.264789131633	93.879404925688
6	2823	2392.777113652128	98.011342041311
6	2848	2416.686299007543	105.21933836532
6	2861	2430.296057444112	115.47987145894
6	2892	2456.661101536342	138.60221644031
7	2941	2500	0.0144
8	2941	2500	0.0424

