file 76753 1677857819                                           
version 2
run factors_calibration_bosses-321-20230303-16:36:59-9258
attr configname factors_calibration_bosses
attr datetime 20230303-16:36:59
attr experiment factors_calibration_bosses
attr inifile omnetpp.ini
attr iterationvars $0=50
attr iterationvarsf 50-
attr measurement $0=50
attr network Network
attr processid 9258
attr repetition 21
attr replication #21
attr resultdir results
attr runnumber 321
attr seedset 21
param *.minion.arrival_mean 2
param *.minion.service_mean 1
param *.boss.arrival_mean 20
param *.boss.service_mean 50
param *.player.recover_rate_x 100
param **.minion.arrival_distribution 0
param **.minion.service_distribution 0
param **.boss.arrival_distribution 0
param **.boss.service_distribution 0

vector 0 Network.player minion_jobs_number_stat:vector ETV
attr source signal_minion_jobs_number
vector 1 Network.player minion_jobs_queue_number_stat:vector ETV
attr source signal_minion_jobs_queue_number
vector 2 Network.player boss_defeated_stat:vector ETV
attr source signal_boss_defeated
vector 3 Network.player boss_jobs_queue_number_stat:vector ETV
attr source signal_boss_jobs_queue_number
vector 4 Network.player boss_response_time_stat:vector ETV
attr source signal_boss_response_time
vector 5 Network.player boss_waiting_time_stat:vector ETV
attr source signal_boss_waiting_time
vector 6 Network.player boss_jobs_number_stat:vector ETV
attr source signal_boss_jobs_number
vector 7 Network.player minion_throughput:vector ETV
attr source signal_minion_throughput
vector 8 Network.player boss_throughput:vector ETV
attr source signal_boss_throughput
0	1586 31512 460 2903 351.837372556035 2499.780701823817 1102 139 1240 759829 635424771
1	33098 31511 460 2903 351.837372556035 2499.780701823817 1102 138 1239 758727 633906215
2	64609 1394 491 2863 379.166529620133 2464.193179578469 51 3 53 1428 51034
3	66003 4001 491 2891 379.166529620133 2490.842751616098 146 11 59 5810 259974
4	70004 2058 491 2863 379.166529620133 2464.193179578469 51 238.02087479029 1355.24852769 45321.790461389 44801542.005098
5	72062 2054 491 2863 379.166529620133 2464.193179578469 51 222.0543215314 1339.8854708692 44274.174541106 43008151.792227
6	74116 2600 552 2891 437.655607876823 2490.842751616098 95 12 60 3759 167143
7	76716 17 2904 2904 2500 2500 1 0.02 0.02 0.02 0.0004
8	76733 19 2904 2904 2500 2500 1 0.0212 0.0212 0.0212 0.00044944

