version 2
run factors_calibration_bosses-304-20230303-16:36:57-9173
attr configname factors_calibration_bosses
attr datetime 20230303-16:36:57
attr experiment factors_calibration_bosses
attr inifile omnetpp.ini
attr iterationvars $0=50
attr iterationvarsf 50-
attr measurement $0=50
attr network Network
attr processid 9173
attr repetition 4
attr replication #4
attr resultdir results
attr runnumber 304
attr seedset 4
param *.minion.arrival_mean 2
param *.minion.service_mean 1
param *.boss.arrival_mean 20
param *.boss.service_mean 50
param *.player.recover_rate_x 100
param **.minion.arrival_distribution 0
param **.minion.service_distribution 0
param **.boss.arrival_distribution 0
param **.boss.service_distribution 0

vector 0 Network.player minion_jobs_number_stat:vector ETV
attr source signal_minion_jobs_number
vector 1 Network.player minion_jobs_queue_number_stat:vector ETV
attr source signal_minion_jobs_queue_number
vector 2 Network.player boss_jobs_number_stat:vector ETV
attr source signal_boss_jobs_number
vector 3 Network.player boss_jobs_queue_number_stat:vector ETV
attr source signal_boss_jobs_queue_number
vector 4 Network.player boss_defeated_stat:vector ETV
attr source signal_boss_defeated
vector 5 Network.player boss_response_time_stat:vector ETV
attr source signal_boss_response_time
vector 6 Network.player boss_waiting_time_stat:vector ETV
attr source signal_boss_waiting_time
vector 7 Network.player minion_throughput:vector ETV
attr source signal_minion_throughput
vector 8 Network.player boss_throughput:vector ETV
attr source signal_boss_throughput
0	427	350.538680141598	167
0	431	358.130675665916	168
0	435	363.359495988393	169
0	437	364.241749146532	170
0	439	364.660137389391	171
0	441	366.783852577814	172
0	443	367.87752591099	173
0	445	368.139533851017	174
0	447	369.640252466049	175
0	449	376.146783079134	176
0	451	376.612634392153	177
0	453	378.719041074022	178
0	455	380.941048972664	179
0	457	386.460087816988	180
0	459	387.895098948405	181
0	462	392.685098704581	182
0	464	392.80522218462	183
0	466	393.954201240612	184
0	468	395.516400676052	185
0	473	400.930330945455	186
0	477	402.763298675752	187
0	479	405.213128132351	188
0	481	406.856657109344	189
0	483	407.478249099194	190
0	485	409.543227714234	191
0	487	409.939559905415	192
0	489	416.873362179357	193
0	491	419.004994332982	194
0	493	423.115386569087	195
0	495	426.567642548032	196
0	497	430.3908536872	197
0	499	435.160806967455	198
0	501	436.088969030545	199
0	503	438.056907887478	200
0	505	440.308596209932	201
0	507	440.663915196561	202
0	509	441.038199417775	203
0	511	441.699785551412	204
0	513	442.006863349285	205
0	515	443.781342380523	206
0	517	444.674385315284	207
0	519	444.911388060681	208
0	521	448.468873947759	209
0	523	449.096987053058	210
0	525	450.106375655498	211
0	527	450.110348401777	212
0	529	453.327289162759	213
0	531	457.864881546724	214
0	533	458.015628599558	215
0	535	463.343526590368	216
0	537	466.023413117162	217
0	539	466.855153092575	218
0	541	467.152836076573	219
0	543	468.251210472844	220
0	545	469.812274065438	221
0	547	472.03078977292	222
0	549	472.416374054853	223
0	551	474.305952993988	224
0	553	474.345893496104	225
0	555	476.508949646326	226
0	557	477.126011925848	227
0	561	478.540758946067	228
0	565	479.954668951495	229
0	567	481.970238248161	230
0	569	483.904429090045	231
0	571	484.133548369117	232
0	573	487.97604662097	233
0	575	494.016125858076	234
0	579	498.982925505073	235
0	581	499.0509317409	236
0	583	503.58568702415	237
0	585	503.789772344258	238
0	587	503.92480126558	239
0	591	507.678740200797	240
0	593	514.158708117307	241
0	595	516.054109683428	242
0	597	519.908371423373	243
0	599	522.317326983146	244
0	601	523.363570388434	245
0	603	524.961742239544	246
0	605	525.327574947659	247
0	607	528.663843740082	248
0	609	529.924544754665	249
0	611	531.992341490726	250
0	613	532.319291863485	251
0	615	532.759281855174	252
0	617	533.153503921549	253
0	619	536.121959319215	254
0	621	538.54680190375	255
0	623	539.391833869016	256
0	625	541.214593974833	257
0	629	545.014311217687	258
0	631	546.183287210432	259
0	633	547.018255748367	260
0	635	548.910807296128	261
0	637	556.045308775949	262
0	641	560.614714117921	263
0	643	561.120449996333	264
0	645	564.101952487931	265
0	647	566.136385429869	266
0	649	567.668117681312	267
0	651	567.963626706796	268
0	653	569.13463903706	269
0	655	569.411782218633	270
0	657	570.677408742091	271
0	659	572.784356192074	272
0	661	576.767070619101	273
0	663	579.294632391367	274
0	665	584.608643787939	275
0	667	584.818227306895	276
0	669	586.137749281116	277
0	673	587.861002432832	278
0	675	589.258823214181	279
0	677	590.329513547934	280
0	679	591.200932098173	281
0	681	591.491413708696	282
0	683	591.864408448014	283
0	685	593.322429173204	284
0	687	593.539835055582	285
0	689	593.673663918615	286
0	691	594.652543879965	287
0	693	599.222192010622	288
0	695	599.538951299399	289
0	697	599.73734879785	290
0	699	600.170619176656	291
0	701	604.144031501611	292
0	703	604.649961419162	293
0	709	607.332389856438	294
0	711	610.907084026052	295
0	713	611.150315700289	296
0	719	615.101159060789	297
0	721	616.665935861094	298
0	723	619.489091065605	299
0	725	626.51227702518	300
0	727	626.621492096718	301
0	729	627.189077351575	302
0	731	634.003243624146	303
0	735	635.707181386344	304
0	737	635.959580564283	305
0	739	637.638402549942	306
0	741	639.688680245001	307
0	743	640.524239067017	308
0	745	641.08869144108	309
0	747	641.339198163633	310
0	751	644.84017209232	311
0	755	646.412907186756	312
0	757	648.439840744923	313
0	759	650.11787502733	314
0	761	650.151279150506	315
0	763	655.07068734531	316
0	765	656.051584583675	317
0	767	658.020727076541	318
0	769	662.029491190578	319
0	771	663.398357358874	320
0	773	664.545262204039	321
0	775	664.955487712543	322
0	777	667.76042349038	323
0	779	668.745017265375	324
0	783	671.190764639374	325
0	785	672.891322603883	326
0	787	675.023562362199	327
0	791	677.622268887342	328
0	793	677.828268939963	329
0	796	686.630029649713	330
0	798	689.180427593934	331
0	800	689.606290836116	332
0	802	690.655254417492	333
0	804	692.890746767143	334
0	806	695.51964454513	335
0	808	696.59307296443	336
0	810	702.638476008464	337
0	812	704.662472973797	338
0	814	705.013310611135	339
0	816	705.025287126369	340
0	818	709.373597371756	341
0	820	712.016826081692	342
0	822	714.452373081242	343
0	826	717.934891296343	344
0	828	718.789078122149	345
0	830	718.882866745475	346
0	832	719.25468812922	347
0	834	720.135865382428	348
0	836	721.031917905141	349
0	838	721.529927179983	350
0	840	722.372581506977	351
0	842	724.465632432749	352
0	844	726.659893873739	353
0	846	726.840634835296	354
0	848	729.217702043791	355
0	850	730.045948187211	356
0	852	733.411349767166	357
0	856	735.560602974736	358
0	858	736.01374433321	359
0	862	739.562543252403	360
0	864	740.279227332103	361
0	866	740.698099817852	362
0	868	744.121647730704	363
0	870	744.151129703068	364
0	872	745.234990308181	365
0	874	745.735174990201	366
0	876	747.57119575506	367
0	880	750.599845321031	368
0	882	750.974123435448	369
0	884	750.982308880378	370
0	886	752.329414050111	371
0	888	754.671269280589	372
0	890	755.024278124974	373
0	892	755.495197314452	374
0	894	759.021983324396	375
0	896	762.551145673142	376
0	898	765.276847633393	377
0	900	768.576523427179	378
0	902	769.570007804258	379
0	906	775.247488883733	380
0	908	776.926481656754	381
0	910	778.291745111287	382
0	912	784.819061318767	383
0	914	786.131775094581	384
0	918	791.404885053651	385
0	920	794.813790816017	386
0	922	795.142170558573	387
0	924	796.783228810907	388
0	926	798.15062895472	389
0	928	801.721328203742	390
0	930	802.27876549056	391
0	932	804.168103987909	392
0	934	804.758687281943	393
0	936	805.687550624853	394
0	938	810.024163507435	395
0	942	813.144339595167	396
0	944	816.655118553284	397
0	946	818.395554328539	398
0	948	818.671695384371	399
0	950	821.069428399385	400
0	952	822.546815002969	401
0	954	822.670016331386	402
0	956	823.841831798997	403
0	958	824.26146011997	404
0	960	824.99449549062	405
0	962	826.01010928826	406
0	964	828.61102853621	407
0	966	831.282632328191	408
0	968	831.599843328918	409
0	970	833.206735950953	410
0	972	837.592518871649	411
0	974	838.143251922927	412
0	976	842.092838710346	413
0	978	846.89785383689	414
0	980	846.96665034343	415
0	982	847.01771262496	416
0	984	847.295699051214	417
0	986	847.982567595962	418
0	988	848.131945899466	419
0	990	848.579773130995	420
0	992	848.634764735429	421
0	994	849.542259854583	422
0	996	851.446057043715	423
0	998	855.765373180402	424
0	1000	858.173388136225	425
0	1004	860.490902994381	426
0	1006	861.376110471493	427
0	1008	861.677149378226	428
0	1010	866.780941594142	429
0	1014	867.196354001325	430
0	1016	867.824553524603	431
0	1018	867.906160767077	432
0	1020	869.256221754606	433
0	1022	869.680198646609	434
0	1024	872.310369208238	435
0	1026	872.704795332818	436
0	1028	872.722464218459	437
0	1030	873.470592967859	438
0	1032	876.490270908794	439
0	1034	878.459033898155	440
0	1039	884.137765767827	441
0	1041	886.664818121177	442
0	1043	887.386962335008	443
0	1045	887.667184854909	444
0	1047	888.437477526523	445
0	1049	889.99575530735	446
0	1051	891.930328472291	447
0	1053	895.541647828211	448
0	1055	896.015755175682	449
0	1057	896.920105041329	450
0	1059	899.20922040616	451
0	1061	900.85319378983	452
0	1063	903.095329114882	453
0	1065	904.574072523096	454
0	1067	908.326108265043	455
0	1069	910.006504321855	456
0	1071	910.418992559819	457
0	1075	915.082213844504	458
0	1077	916.165348516577	459
0	1079	916.812597122749	460
0	1081	917.440654524983	461
0	1083	918.831676429172	462
0	1085	919.571917696672	463
0	1087	919.571926600601	464
0	1089	920.164495810019	465
0	1091	920.250612420251	466
0	1093	921.449653364784	467
0	1095	922.207920562582	468
0	1097	928.094601862752	469
0	1100	929.889212963129	470
0	1102	929.916247856793	471
0	1104	929.972180148724	472
0	1106	931.728120687852	473
0	1108	932.712567315329	474
0	1110	936.055396829327	475
0	1112	939.007694977917	476
0	1114	939.949117997521	477
0	1116	939.960078347455	478
0	1118	940.608441987552	479
0	1120	944.181665574509	480
0	1122	945.304969911423	481
0	1124	948.031256849288	482
0	1126	951.6568814299	483
0	1128	954.290812917628	484
0	1130	954.689346975476	485
0	1132	957.740382315475	486
0	1134	958.942285674767	487
0	1136	964.103024661002	488
0	1140	969.19573636065	489
0	1142	970.92689144523	490
0	1144	971.44171030895	491
0	1146	971.772600494859	492
0	1148	974.16699646578	493
0	1151	976.666853543158	494
0	1153	979.853819897805	495
0	1155	980.74417810565	496
0	1157	981.474781037956	497
0	1159	986.079531556283	498
0	1161	986.537046065529	499
0	1164	990.210109699996	500
0	1166	990.581581748168	501
0	1168	993.02160865005	502
0	1170	996.48340425839	503
0	1172	996.753728692172	504
0	1174	1001.393954629042	505
0	1176	1002.350014912777	506
0	1180	1003.122398692632	507
0	1182	1004.136104238606	508
0	1184	1005.097465843678	509
0	1186	1009.043100504007	510
0	1188	1009.40261797449	511
0	1190	1014.18807038093	512
0	1192	1020.9215808721	513
0	1194	1022.277332642151	514
0	1196	1022.792013238967	515
0	1198	1024.412417312566	516
0	1200	1024.974800599089	517
0	1202	1025.063869868904	518
0	1204	1025.149269191157	519
0	1206	1025.518049153109	520
0	1208	1026.395694741834	521
0	1210	1028.465739601838	522
0	1212	1029.235214587787	523
0	1216	1030.490371606351	524
0	1218	1031.948492497542	525
0	1220	1032.090305935732	526
0	1222	1033.53764986608	527
0	1226	1033.756157235009	528
0	1228	1034.017429884195	529
0	1230	1034.231164329649	530
0	1234	1040.434449422552	531
0	1236	1041.223422975455	532
0	1238	1043.189530983016	533
0	1240	1044.989884171378	534
0	1242	1048.141749477997	535
0	1244	1051.417720951757	536
0	1246	1052.799340081915	537
0	1248	1055.498755869764	538
0	1250	1056.050068543127	539
0	1252	1056.859356069585	540
0	1254	1058.375742509523	541
0	1256	1058.527377023578	542
0	1258	1062.536059576388	543
0	1260	1062.681138059357	544
0	1262	1063.722793076221	545
0	1264	1064.068675134532	546
0	1266	1069.486127995367	547
0	1268	1071.224622819962	548
0	1270	1073.801466699969	549
0	1272	1074.508217423901	550
0	1274	1075.177173365831	551
0	1276	1077.141811554728	552
0	1278	1078.05194284985	553
0	1280	1078.209145603659	554
0	1282	1079.233212125276	555
0	1284	1081.324283177847	556
0	1286	1081.684201551432	557
0	1288	1082.337521116051	558
0	1291	1086.919674268008	559
0	1293	1087.241930740098	560
0	1295	1088.925439429228	561
0	1297	1095.423983134312	562
0	1299	1095.559345243106	563
0	1301	1099.22898837137	564
0	1305	1099.762424452021	565
0	1307	1100.001145981246	566
0	1309	1101.138474713958	567
0	1311	1102.156689129447	568
0	1313	1109.64893203795	569
0	1315	1109.796834048314	570
0	1317	1109.942468052771	571
0	1321	1115.448557935965	572
0	1323	1117.366583779448	573
0	1325	1120.765022540278	574
0	1327	1121.106249216493	575
0	1330	1122.83467621607	576
0	1332	1123.478627386646	577
0	1336	1128.824233116985	578
0	1338	1129.219595255682	579
0	1340	1130.532724635711	580
0	1342	1130.920989692327	581
0	1344	1131.132250998576	582
0	1346	1131.212646628053	583
0	1348	1132.133000072347	584
0	1350	1137.919353486995	585
0	1352	1144.429235762035	586
0	1354	1144.731353064279	587
0	1356	1144.7838449445	588
0	1358	1145.490310892883	589
0	1360	1146.562089668374	590
0	1362	1147.274778239774	591
0	1364	1147.83884397115	592
0	1366	1150.076519747691	593
0	1368	1150.279307559263	594
0	1370	1157.324469167585	595
0	1372	1159.266253212495	596
0	1375	1163.421961490863	597
0	1377	1163.711787205779	598
0	1379	1165.684137224647	599
0	1381	1165.806732244676	600
0	1383	1167.576708743468	601
0	1385	1168.034873752266	602
0	1387	1172.070474263325	603
0	1389	1172.44301010444	604
0	1391	1172.538860952322	605
0	1393	1175.600495317611	606
0	1395	1176.863402583036	607
0	1397	1183.573925601261	608
0	1399	1185.066057760744	609
0	1401	1185.347090729734	610
0	1403	1193.080387679876	611
0	1405	1193.6292182233	612
0	1407	1193.694988394799	613
0	1409	1194.055247241786	614
0	1413	1195.143238536587	615
0	1415	1196.884635988523	616
0	1417	1199.298121445639	617
0	1419	1199.435015853761	618
0	1422	1202.042521829652	619
0	1424	1202.619615418833	620
0	1427	1204.338894783537	621
0	1429	1210.639259660444	622
0	1431	1215.890133640279	623
0	1440	1226.319120907478	624
0	1442	1226.380171411931	625
0	1444	1228.152649261713	626
0	1446	1230.654206819363	627
0	1448	1233.486318591151	628
0	1450	1237.116204428389	629
0	1454	1240.918305775147	630
0	1456	1244.344369259383	631
0	1458	1244.884355867258	632
0	1460	1245.258354093554	633
0	1462	1247.771846338582	634
0	1464	1248.216371880045	635
0	1466	1249.103706427252	636
0	1468	1252.442813138049	637
0	1470	1256.794384005154	638
0	1472	1257.069254688606	639
0	1474	1261.57740446959	640
0	1476	1262.639775249751	641
0	1478	1266.262829009585	642
0	1480	1266.38043780589	643
0	1482	1266.46595517167	644
0	1484	1266.606005540113	645
0	1486	1267.981454092584	646
0	1488	1268.196369001906	647
0	1490	1268.91499416577	648
0	1492	1270.206288241311	649
0	1494	1270.518302477711	650
0	1496	1272.200098814439	651
0	1500	1278.07933411172	652
0	1502	1279.210583196144	653
0	1504	1279.425915779373	654
0	1506	1279.525311689976	655
0	1509	1280.180754407532	656
0	1511	1283.789244950104	657
0	1513	1284.411010733181	658
0	1515	1284.511919074805	659
0	1517	1285.178739231762	660
0	1519	1285.33492284414	661
0	1521	1285.419890759029	662
0	1526	1287.262726576794	663
0	1528	1288.056094894951	664
0	1530	1288.633764311573	665
0	1535	1301.827266363844	666
0	1537	1302.778837785407	667
0	1539	1304.678533764983	668
0	1541	1305.0542054619	669
0	1543	1305.79978140031	670
0	1545	1306.027602812064	671
0	1547	1307.463871051911	672
0	1549	1308.195794504529	673
0	1551	1311.471165077542	674
0	1553	1314.743007292169	675
0	1555	1321.448675790725	676
0	1557	1324.43277070107	677
0	1561	1326.893641544825	678
0	1563	1329.992487764342	679
0	1567	1331.43093012169	680
0	1569	1334.413975983985	681
0	1571	1334.880577776076	682
0	1574	1336.081649928547	683
0	1576	1337.013272680446	684
0	1578	1337.938349605212	685
0	1580	1340.11001050506	686
0	1582	1344.604538209434	687
0	1584	1346.382316998375	688
0	1586	1346.934786363909	689
0	1588	1349.934163697682	690
0	1590	1354.227335045797	691
0	1592	1354.370605717922	692
0	1596	1356.612968404854	693
0	1598	1359.897269442592	694
0	1600	1360.816315930591	695
0	1602	1362.315843903772	696
0	1606	1363.576428284529	697
0	1608	1364.497714062381	698
0	1610	1364.629656763984	699
0	1612	1364.80814816028	700
0	1614	1369.290064657432	701
0	1616	1372.002982114048	702
0	1618	1372.865281119156	703
0	1620	1373.934860198876	704
0	1622	1374.18977516166	705
0	1624	1374.781609179545	706
0	1626	1375.024711795256	707
0	1628	1381.038984273216	708
0	1630	1381.105484578564	709
0	1633	1385.252378920961	710
0	1635	1387.430138754105	711
0	1637	1388.513145562123	712
0	1640	1392.251987428019	713
0	1642	1394.797900676945	714
0	1644	1396.339701985338	715
0	1646	1398.030012699336	716
0	1650	1402.634621658754	717
0	1652	1403.172584131934	718
0	1654	1404.006881491265	719
0	1656	1404.147636611637	720
0	1658	1407.295983611596	721
0	1660	1408.797543579639	722
0	1662	1410.45290776536	723
0	1664	1410.807333762003	724
0	1666	1413.303833708933	725
0	1668	1416.004264977178	726
0	1670	1417.785835822802	727
0	1672	1418.076365321173	728
0	1674	1421.461424495869	729
0	1676	1422.364717721519	730
0	1678	1423.410743002109	731
0	1680	1424.66492833171	732
0	1682	1424.719890446708	733
0	1684	1429.011680983366	734
0	1686	1434.171199261762	735
0	1690	1436.508583654409	736
0	1692	1437.57638649718	737
0	1694	1438.50616464237	738
0	1696	1439.008984414936	739
0	1698	1439.653933449598	740
0	1700	1440.052490576631	741
0	1702	1445.098259595484	742
0	1704	1445.395856986018	743
0	1706	1445.928052971655	744
0	1708	1446.060210038395	745
0	1710	1448.737049599831	746
0	1714	1451.375019406892	747
0	1716	1451.641501080196	748
0	1718	1453.668032337395	749
0	1720	1454.137502452627	750
0	1722	1457.512268270465	751
0	1724	1458.420813656672	752
0	1726	1459.244355080973	753
0	1728	1463.65709649376	754
0	1730	1464.561623661602	755
0	1732	1466.677641667969	756
0	1736	1474.542467605766	757
0	1742	1480.555670036668	758
0	1744	1480.886439327516	759
0	1746	1480.998074926639	760
0	1748	1481.081091491578	761
0	1750	1482.683885539714	762
0	1752	1487.655668071158	763
0	1754	1488.428701236738	764
0	1756	1490.166970414349	765
0	1759	1491.719025335995	766
0	1761	1494.220723999892	767
0	1763	1494.977679086379	768
0	1765	1496.913169747463	769
0	1767	1497.998843095723	770
0	1769	1499.137740344572	771
0	1771	1502.261926255297	772
0	1773	1502.933476061021	773
0	1775	1503.072359169738	774
0	1777	1505.130529124197	775
0	1779	1508.250935893346	776
0	1781	1510.52239764749	777
0	1785	1513.352374355751	778
0	1787	1517.921827666691	779
0	1789	1519.721797619021	780
0	1791	1521.873210714556	781
0	1793	1522.183191129978	782
0	1795	1522.253159570792	783
0	1797	1524.927260413539	784
0	1799	1526.973949697063	785
0	1801	1527.611901600453	786
0	1804	1529.666484749321	787
0	1806	1531.877030961562	788
0	1808	1533.293477337773	789
0	1810	1534.496724184844	790
0	1812	1534.628272412031	791
0	1814	1537.171960197316	792
0	1818	1539.224591836755	793
0	1820	1541.609836390449	794
0	1822	1541.973595987528	795
0	1824	1542.6713759843	796
0	1826	1546.97836488854	797
0	1828	1548.15735860364	798
0	1830	1551.307526046419	799
0	1832	1552.168341261294	800
0	1834	1555.16131875089	801
0	1836	1555.31240436581	802
0	1839	1563.327049875224	803
0	1841	1563.529610068771	804
0	1843	1563.65203874967	805
0	1845	1564.447283252542	806
0	1847	1566.337513704969	807
0	1849	1566.82731447238	808
0	1851	1568.755074116504	809
0	1853	1569.359372114707	810
0	1855	1569.60554146922	811
0	1857	1570.838286203846	812
0	1859	1572.202648952596	813
0	1861	1574.367691491079	814
0	1863	1574.587404928613	815
0	1865	1575.759604723079	816
0	1867	1576.49179610172	817
0	1869	1577.834649226152	818
0	1871	1578.390631807218	819
0	1873	1580.315435779899	820
0	1875	1581.229932487139	821
0	1878	1590.809890954838	822
0	1880	1592.18354867719	823
0	1882	1593.150933833405	824
0	1885	1595.28327456945	825
0	1889	1600.194259461508	826
0	1891	1601.328337837301	827
0	1893	1601.750074130262	828
0	1895	1612.068891642692	829
0	1897	1612.617470989174	830
0	1899	1615.2797686682	831
0	1903	1618.15488583965	832
0	1905	1618.899654063162	833
0	1907	1619.773965433985	834
0	1909	1620.789134763551	835
0	1911	1620.857252798097	836
0	1913	1621.61860500234	837
0	1915	1621.894330439187	838
0	1917	1622.510262437837	839
0	1919	1624.941989623282	840
0	1921	1629.748983534709	841
0	1923	1630.940839557153	842
0	1927	1632.910633063285	843
0	1929	1634.105866961538	844
0	1931	1634.459424688121	845
0	1933	1638.117644901558	846
0	1935	1639.433757146908	847
0	1937	1641.720948396302	848
0	1939	1644.902342871125	849
0	1941	1645.564462403194	850
0	1943	1647.030968287065	851
0	1945	1647.154226654533	852
0	1949	1650.255172310542	853
0	1951	1650.95684895704	854
0	1953	1651.543459644168	855
0	1956	1654.115174396312	856
0	1958	1657.567131296929	857
0	1960	1659.255422292393	858
0	1962	1660.932126910119	859
0	1964	1663.068840954452	860
0	1966	1663.326751310063	861
0	1968	1671.226341099988	862
0	1970	1672.775378778578	863
0	1972	1677.192562927936	864
0	1974	1677.207330754859	865
0	1978	1680.717163485994	866
0	1980	1682.77518581278	867
0	1982	1683.958098302581	868
0	1984	1684.986966377605	869
0	1986	1686.037329548091	870
0	1988	1688.593282121798	871
0	1991	1691.091536817302	872
0	1993	1694.323799509353	873
0	1995	1695.195147400174	874
0	1999	1697.742083080889	875
0	2001	1701.400943431529	876
0	2003	1702.051782037465	877
0	2005	1703.02723083576	878
0	2007	1704.116559681762	879
0	2009	1705.193152449186	880
0	2011	1708.736304169611	881
0	2013	1711.462642918616	882
0	2015	1711.469733086641	883
0	2018	1714.681136503304	884
0	2020	1723.030068077697	885
0	2022	1723.246568533721	886
0	2024	1724.076262267529	887
0	2026	1724.95190416577	888
0	2032	1725.818917818701	889
0	2036	1732.051197869349	890
0	2038	1733.537615403161	891
0	2040	1734.282865486941	892
0	2042	1734.849403593635	893
0	2044	1736.365366166766	894
0	2046	1739.30721239523	895
0	2048	1742.656986857109	896
0	2050	1743.532276333542	897
0	2052	1748.414963151423	898
0	2056	1755.029128081996	899
0	2058	1755.597105136117	900
0	2060	1756.656020689856	901
0	2062	1757.537112713897	902
0	2064	1761.556084352417	903
0	2066	1762.209432585275	904
0	2068	1764.889987917555	905
0	2071	1768.238372125451	906
0	2073	1769.786987600339	907
0	2075	1770.72990443738	908
0	2077	1773.748828580728	909
0	2079	1773.99717534266	910
0	2081	1774.542260373627	911
0	2083	1777.084436169308	912
0	2085	1790.604117000871	913
0	2087	1792.521438929417	914
0	2091	1793.064561764058	915
0	2093	1793.257076016764	916
0	2095	1793.344921445009	917
0	2097	1793.536079190375	918
0	2099	1794.129991966853	919
0	2101	1805.21665572971	920
0	2103	1805.25898205267	921
0	2105	1807.818141814145	922
0	2109	1808.774519775913	923
0	2111	1809.836310815792	924
0	2113	1809.911158660265	925
0	2115	1810.23172671364	926
0	2117	1810.596419782505	927
0	2119	1811.37834797309	928
0	2121	1812.446706119128	929
0	2123	1815.818488950634	930
0	2125	1816.228613836517	931
0	2127	1817.448951437345	932
0	2129	1819.422484116388	933
0	2135	1822.821468155677	934
0	2137	1823.89355889	935
0	2139	1825.946140052904	936
0	2141	1828.005112778986	937
0	2143	1830.366307660228	938
0	2145	1832.845948968869	939
0	2147	1833.402474662957	940
0	2149	1840.269572511385	941
0	2151	1840.393564917617	942
0	2153	1844.098661298864	943
0	2155	1844.30279922341	944
0	2157	1844.731156973015	945
0	2159	1847.403643853806	946
0	2161	1849.117653807228	947
0	2163	1850.334015157462	948
0	2165	1852.020911258328	949
0	2167	1852.353652787061	950
0	2169	1856.565616890425	951
0	2171	1857.662345997731	952
0	2173	1863.994026422192	953
0	2175	1865.879136599613	954
0	2177	1866.981435837878	955
0	2179	1867.781731960654	956
0	2181	1870.699280173153	957
0	2183	1876.78103923916	958
0	2185	1877.509030794109	959
0	2187	1878.162123113828	960
0	2189	1878.53320592217	961
0	2191	1883.261058948149	962
0	2193	1883.649168317836	963
0	2195	1883.759081780432	964
0	2197	1884.861436514656	965
0	2203	1887.712045517732	966
0	2205	1888.158699815651	967
0	2207	1888.248924878492	968
0	2209	1888.51119655027	969
0	2211	1890.561528261974	970
0	2213	1891.586353876545	971
0	2215	1892.389396277307	972
0	2217	1894.503953936775	973
0	2219	1897.619670119178	974
0	2221	1898.309438059897	975
0	2225	1902.950298216605	976
0	2227	1903.39377883875	977
0	2232	1911.304509641105	978
0	2234	1913.447246729548	979
0	2236	1915.936053618501	980
0	2238	1917.265022865058	981
0	2240	1918.290640481099	982
0	2242	1920.62239027279	983
0	2244	1924.934030856475	984
0	2246	1926.321031382548	985
0	2248	1926.82683500923	986
0	2250	1927.968167010545	987
0	2252	1928.659419929045	988
0	2254	1933.484963243602	989
0	2256	1934.038767348388	990
0	2260	1935.810001470026	991
0	2262	1939.426576047847	992
0	2264	1941.045750247236	993
0	2266	1949.042463332879	994
0	2269	1953.46773476945	995
0	2271	1953.659043193736	996
0	2273	1954.002890267364	997
0	2275	1955.547032144721	998
0	2277	1956.727294273721	999
0	2279	1957.059604200144	1000
0	2281	1961.891163284899	1001
0	2283	1962.734154529254	1002
0	2285	1963.523794140506	1003
0	2287	1963.794139700353	1004
0	2289	1968.255554981545	1005
0	2291	1969.250822218752	1006
0	2293	1970.093434303693	1007
0	2295	1970.901633913481	1008
0	2297	1970.949382882454	1009
0	2299	1972.368569544952	1010
0	2301	1973.134743352903	1011
0	2303	1976.581466345316	1012
0	2305	1976.820532934507	1013
0	2307	1980.657892527562	1014
0	2309	1981.44708078469	1015
0	2311	1986.020264591584	1016
0	2313	1993.142733273049	1017
0	2315	1997.889262654659	1018
0	2317	1998.573859055053	1019
0	2319	2000.967370793037	1020
0	2321	2006.269882563942	1021
0	2323	2007.568691882909	1022
0	2325	2010.030224164667	1023
0	2327	2013.440783236358	1024
0	2329	2014.436784767798	1025
0	2331	2016.167332325316	1026
0	2333	2022.127859723586	1027
0	2335	2023.469049807836	1028
0	2337	2026.352886982633	1029
0	2340	2030.982692579068	1030
0	2342	2032.791787829198	1031
0	2344	2033.463665443732	1032
0	2346	2035.323930032442	1033
0	2348	2035.666425396211	1034
0	2350	2036.495768374966	1035
0	2352	2036.651306474026	1036
0	2354	2039.108404830078	1037
0	2356	2040.412135302803	1038
0	2358	2040.712080975894	1039
0	2360	2044.909677842418	1040
0	2362	2047.096477989543	1041
0	2364	2047.476266512151	1042
0	2366	2047.516296925034	1043
0	2368	2049.295968451352	1044
0	2370	2051.051880554158	1045
0	2372	2051.271648559205	1046
0	2374	2051.919906610931	1047
0	2378	2054.472349800441	1048
0	2380	2055.345008059593	1049
0	2382	2056.339519525423	1050
0	2384	2056.46698305392	1051
0	2386	2058.255581082051	1052
0	2388	2058.615623202196	1053
0	2390	2058.832447256157	1054
0	2392	2059.065904388136	1055
0	2394	2060.212943222652	1056
0	2396	2060.274191222448	1057
0	2398	2061.616259987021	1058
0	2400	2063.037327194066	1059
0	2402	2063.068016213414	1060
0	2404	2063.960268916628	1061
0	2406	2070.32249170455	1062
0	2410	2071.149431319527	1063
0	2412	2072.175378886307	1064
0	2414	2073.183915528491	1065
0	2416	2073.664744567802	1066
0	2418	2074.322551799746	1067
0	2423	2076.86004774437	1068
0	2427	2076.996692263353	1069
0	2429	2077.908497262968	1070
0	2437	2083.437215281981	1071
0	2439	2086.283440966644	1072
0	2441	2087.136645573657	1073
0	2443	2087.414614933002	1074
0	2445	2087.593040299737	1075
0	2447	2091.007456940992	1076
0	2449	2091.495608750556	1077
0	2451	2091.669094984675	1078
0	2453	2092.500336565344	1079
0	2455	2092.510047628172	1080
0	2457	2092.516815883177	1081
0	2459	2093.746492210741	1082
0	2463	2099.644942395518	1083
0	2467	2106.860533411212	1084
0	2469	2106.950486877909	1085
0	2471	2108.191201320192	1086
0	2473	2109.029279663139	1087
0	2475	2109.335060129495	1088
0	2477	2110.880393411175	1089
0	2479	2112.850300755632	1090
0	2481	2113.339164512861	1091
0	2483	2113.418047868663	1092
0	2487	2116.340373079948	1093
0	2489	2117.424848513075	1094
0	2491	2119.13621230396	1095
0	2493	2119.177860978711	1096
0	2496	2123.115958505179	1097
0	2498	2124.72342539855	1098
0	2500	2124.729016873218	1099
0	2502	2124.974867180569	1100
0	2504	2125.228353033549	1101
0	2506	2125.273454739655	1102
0	2508	2128.437279756054	1103
0	2510	2128.905980745634	1104
0	2512	2129.449230120575	1105
0	2514	2131.282602706515	1106
0	2516	2135.506126491897	1107
0	2518	2138.058769619376	1108
0	2520	2138.255453024885	1109
0	2522	2139.036834472927	1110
0	2524	2139.801110012007	1111
0	2526	2143.458787270634	1112
0	2528	2146.77255631153	1113
0	2530	2148.275103141568	1114
0	2532	2148.96723414847	1115
0	2536	2149.643518245576	1116
0	2538	2150.314565308904	1117
0	2542	2154.971305609795	1118
0	2544	2156.494012912015	1119
0	2546	2157.904002238212	1120
0	2550	2159.711734985979	1121
0	2554	2164.039736709072	1122
0	2556	2165.94448983211	1123
0	2558	2169.259616998915	1124
0	2560	2170.722621258309	1125
0	2562	2171.798638683535	1126
0	2564	2173.133835113202	1127
0	2566	2176.083383613256	1128
0	2568	2176.157226518155	1129
0	2570	2176.86573915109	1130
0	2572	2177.504356211877	1131
0	2574	2177.903962789643	1132
0	2577	2187.712465123416	1133
0	2579	2189.362246188574	1134
0	2581	2190.69321265938	1135
0	2583	2190.984038463831	1136
0	2585	2193.037471346161	1137
0	2587	2194.428272033581	1138
0	2589	2196.793680399326	1139
0	2591	2198.438554951803	1140
0	2593	2201.011238847653	1141
0	2595	2201.127966120193	1142
0	2597	2207.495317189962	1143
0	2599	2208.378792947168	1144
0	2601	2209.844016255844	1145
0	2603	2211.640852580817	1146
0	2605	2212.4440482331	1147
0	2609	2214.735001707563	1148
0	2611	2215.667364727233	1149
0	2613	2219.805389923503	1150
0	2615	2223.126186891028	1151
0	2619	2226.368121247322	1152
0	2622	2232.792449199783	1153
0	2624	2236.161156625984	1154
0	2627	2238.942363743909	1155
0	2629	2239.176671560719	1156
0	2631	2240.492006162827	1157
0	2633	2246.354515308956	1158
0	2635	2247.83235314644	1159
0	2637	2256.95172988813	1160
0	2639	2268.308966372426	1161
0	2641	2270.94565538235	1162
0	2643	2274.840536370004	1163
0	2645	2276.794892656725	1164
0	2647	2278.081394537807	1165
0	2649	2280.4371439438	1166
0	2651	2282.505456389156	1167
0	2654	2291.078532357177	1168
0	2656	2291.514069286081	1169
0	2658	2291.997479069682	1170
0	2660	2293.780010711456	1171
0	2662	2293.847844178948	1172
0	2664	2296.798557163124	1173
0	2666	2301.62860305378	1174
0	2668	2302.522350347265	1175
0	2670	2303.339879824285	1176
0	2672	2305.702240998589	1177
0	2674	2307.114428350894	1178
0	2676	2308.56598520979	1179
0	2684	2319.378575210284	1180
0	2686	2320.034628405946	1181
0	2688	2330.467441441593	1182
0	2690	2330.716087366273	1183
0	2692	2332.532963264783	1184
0	2694	2337.709560273173	1185
0	2696	2337.759845981074	1186
0	2698	2337.923851734331	1187
0	2700	2338.093195442523	1188
0	2702	2341.296517407182	1189
0	2706	2342.686662516951	1190
0	2708	2342.790021196257	1191
0	2710	2343.825742426067	1192
0	2712	2351.988209513586	1193
0	2714	2355.916257018855	1194
0	2716	2359.518397408575	1195
0	2718	2361.275294890122	1196
0	2720	2362.376228726413	1197
0	2722	2362.758162171905	1198
0	2724	2363.327491546304	1199
0	2726	2364.799357599974	1200
0	2728	2366.486032986783	1201
0	2730	2366.963173245684	1202
0	2732	2367.627710860833	1203
0	2734	2367.632758422822	1204
0	2736	2368.288207823217	1205
0	2738	2369.757787040284	1206
0	2740	2371.462207129734	1207
0	2742	2371.782565496098	1208
0	2746	2375.974240613267	1209
0	2748	2378.412629141019	1210
0	2750	2380.605269400091	1211
0	2754	2381.15437075704	1212
0	2756	2381.257429993555	1213
0	2758	2381.763885128777	1214
0	2760	2383.597788824667	1215
0	2762	2384.238051264639	1216
0	2764	2385.098650771788	1217
0	2766	2386.467880678883	1218
0	2768	2387.049916828927	1219
0	2770	2390.546929536277	1220
0	2772	2391.006124165062	1221
0	2774	2391.869770781628	1222
0	2776	2394.580028431507	1223
0	2778	2395.834403302089	1224
0	2780	2397.563295904604	1225
0	2782	2400.878934179023	1226
0	2784	2403.657576112361	1227
0	2788	2404.878146282566	1228
0	2790	2405.430282386725	1229
0	2792	2410.068845495654	1230
0	2794	2412.058580119382	1231
0	2796	2415.503604910518	1232
0	2798	2418.502040453874	1233
0	2800	2418.78515501181	1234
0	2802	2420.491089031859	1235
0	2804	2420.976402668747	1236
0	2806	2422.160948350089	1237
0	2808	2423.445310291057	1238
0	2810	2428.867429916228	1239
0	2812	2429.25541051999	1240
0	2814	2430.568142512539	1241
0	2816	2431.035360961812	1242
0	2818	2431.964583423695	1243
0	2820	2432.129866611837	1244
0	2822	2432.634728812779	1245
0	2824	2433.370844780048	1246
0	2828	2433.662041765441	1247
0	2830	2433.850336077985	1248
0	2832	2435.158261286455	1249
0	2834	2437.716883050524	1250
0	2836	2440.232660009919	1251
0	2840	2452.153036656639	1252
0	2842	2456.698131708317	1253
0	2844	2457.012634856319	1254
0	2846	2457.227823134058	1255
0	2848	2457.370279631451	1256
0	2850	2457.980791107703	1257
0	2852	2459.756045092784	1258
0	2856	2461.338887560369	1259
0	2858	2467.290403133962	1260
0	2862	2468.885738053784	1261
0	2864	2469.188014457844	1262
0	2866	2469.462237226464	1263
0	2868	2469.922150022588	1264
0	2871	2474.757557130043	1265
0	2875	2475.344639935113	1266
0	2877	2475.598000721136	1267
0	2879	2476.459297913743	1268
0	2881	2478.667074935465	1269
0	2883	2479.346310014114	1270
0	2885	2484.728224365463	1271
0	2887	2487.991910657129	1272
0	2890	2490.628443559319	1273
0	2892	2493.999941963859	1274
0	2896	2498.743920088481	1275
1	427	350.538680141598	166
1	431	358.130675665916	167
1	435	363.359495988393	168
1	437	364.241749146532	169
1	439	364.660137389391	170
1	441	366.783852577814	171
1	443	367.87752591099	172
1	445	368.139533851017	173
1	447	369.640252466049	174
1	449	376.146783079134	175
1	451	376.612634392153	176
1	453	378.719041074022	177
1	455	380.941048972664	178
1	457	386.460087816988	179
1	459	387.895098948405	180
1	462	392.685098704581	181
1	464	392.80522218462	182
1	466	393.954201240612	183
1	468	395.516400676052	184
1	473	400.930330945455	185
1	477	402.763298675752	186
1	479	405.213128132351	187
1	481	406.856657109344	188
1	483	407.478249099194	189
1	485	409.543227714234	190
1	487	409.939559905415	191
1	489	416.873362179357	192
1	491	419.004994332982	193
1	493	423.115386569087	194
1	495	426.567642548032	195
1	497	430.3908536872	196
1	499	435.160806967455	197
1	501	436.088969030545	198
1	503	438.056907887478	199
1	505	440.308596209932	200
1	507	440.663915196561	201
1	509	441.038199417775	202
1	511	441.699785551412	203
1	513	442.006863349285	204
1	515	443.781342380523	205
1	517	444.674385315284	206
1	519	444.911388060681	207
1	521	448.468873947759	208
1	523	449.096987053058	209
1	525	450.106375655498	210
1	527	450.110348401777	211
1	529	453.327289162759	212
1	531	457.864881546724	213
1	533	458.015628599558	214
1	535	463.343526590368	215
1	537	466.023413117162	216
1	539	466.855153092575	217
1	541	467.152836076573	218
1	543	468.251210472844	219
1	545	469.812274065438	220
1	547	472.03078977292	221
1	549	472.416374054853	222
1	551	474.305952993988	223
1	553	474.345893496104	224
1	555	476.508949646326	225
1	557	477.126011925848	226
1	561	478.540758946067	227
1	565	479.954668951495	228
1	567	481.970238248161	229
1	569	483.904429090045	230
1	571	484.133548369117	231
1	573	487.97604662097	232
1	575	494.016125858076	233
1	579	498.982925505073	234
1	581	499.0509317409	235
1	583	503.58568702415	236
1	585	503.789772344258	237
1	587	503.92480126558	238
1	591	507.678740200797	239
1	593	514.158708117307	240
1	595	516.054109683428	241
1	597	519.908371423373	242
1	599	522.317326983146	243
1	601	523.363570388434	244
1	603	524.961742239544	245
1	605	525.327574947659	246
1	607	528.663843740082	247
1	609	529.924544754665	248
1	611	531.992341490726	249
1	613	532.319291863485	250
1	615	532.759281855174	251
1	617	533.153503921549	252
1	619	536.121959319215	253
1	621	538.54680190375	254
1	623	539.391833869016	255
1	625	541.214593974833	256
1	629	545.014311217687	257
1	631	546.183287210432	258
1	633	547.018255748367	259
1	635	548.910807296128	260
1	637	556.045308775949	261
1	641	560.614714117921	262
1	643	561.120449996333	263
1	645	564.101952487931	264
1	647	566.136385429869	265
1	649	567.668117681312	266
1	651	567.963626706796	267
1	653	569.13463903706	268
1	655	569.411782218633	269
1	657	570.677408742091	270
1	659	572.784356192074	271
1	661	576.767070619101	272
1	663	579.294632391367	273
1	665	584.608643787939	274
1	667	584.818227306895	275
1	669	586.137749281116	276
1	673	587.861002432832	277
1	675	589.258823214181	278
1	677	590.329513547934	279
1	679	591.200932098173	280
1	681	591.491413708696	281
1	683	591.864408448014	282
1	685	593.322429173204	283
1	687	593.539835055582	284
1	689	593.673663918615	285
1	691	594.652543879965	286
1	693	599.222192010622	287
1	695	599.538951299399	288
1	697	599.73734879785	289
1	699	600.170619176656	290
1	701	604.144031501611	291
1	703	604.649961419162	292
1	709	607.332389856438	293
1	711	610.907084026052	294
1	713	611.150315700289	295
1	719	615.101159060789	296
1	721	616.665935861094	297
1	723	619.489091065605	298
1	725	626.51227702518	299
1	727	626.621492096718	300
1	729	627.189077351575	301
1	731	634.003243624146	302
1	735	635.707181386344	303
1	737	635.959580564283	304
1	739	637.638402549942	305
1	741	639.688680245001	306
1	743	640.524239067017	307
1	745	641.08869144108	308
1	747	641.339198163633	309
1	751	644.84017209232	310
1	755	646.412907186756	311
1	757	648.439840744923	312
1	759	650.11787502733	313
1	761	650.151279150506	314
1	763	655.07068734531	315
1	765	656.051584583675	316
1	767	658.020727076541	317
1	769	662.029491190578	318
1	771	663.398357358874	319
1	773	664.545262204039	320
1	775	664.955487712543	321
1	777	667.76042349038	322
1	779	668.745017265375	323
1	783	671.190764639374	324
1	785	672.891322603883	325
1	787	675.023562362199	326
1	791	677.622268887342	327
1	793	677.828268939963	328
1	796	686.630029649713	329
1	798	689.180427593934	330
1	800	689.606290836116	331
1	802	690.655254417492	332
1	804	692.890746767143	333
1	806	695.51964454513	334
1	808	696.59307296443	335
1	810	702.638476008464	336
1	812	704.662472973797	337
1	814	705.013310611135	338
1	816	705.025287126369	339
1	818	709.373597371756	340
1	820	712.016826081692	341
1	822	714.452373081242	342
1	826	717.934891296343	343
1	828	718.789078122149	344
1	830	718.882866745475	345
1	832	719.25468812922	346
1	834	720.135865382428	347
1	836	721.031917905141	348
1	838	721.529927179983	349
1	840	722.372581506977	350
1	842	724.465632432749	351
1	844	726.659893873739	352
1	846	726.840634835296	353
1	848	729.217702043791	354
1	850	730.045948187211	355
1	852	733.411349767166	356
1	856	735.560602974736	357
1	858	736.01374433321	358
1	862	739.562543252403	359
1	864	740.279227332103	360
1	866	740.698099817852	361
1	868	744.121647730704	362
1	870	744.151129703068	363
1	872	745.234990308181	364
1	874	745.735174990201	365
1	876	747.57119575506	366
1	880	750.599845321031	367
1	882	750.974123435448	368
1	884	750.982308880378	369
1	886	752.329414050111	370
1	888	754.671269280589	371
1	890	755.024278124974	372
1	892	755.495197314452	373
1	894	759.021983324396	374
1	896	762.551145673142	375
1	898	765.276847633393	376
1	900	768.576523427179	377
1	902	769.570007804258	378
1	906	775.247488883733	379
1	908	776.926481656754	380
1	910	778.291745111287	381
1	912	784.819061318767	382
1	914	786.131775094581	383
1	918	791.404885053651	384
1	920	794.813790816017	385
1	922	795.142170558573	386
1	924	796.783228810907	387
1	926	798.15062895472	388
1	928	801.721328203742	389
1	930	802.27876549056	390
1	932	804.168103987909	391
1	934	804.758687281943	392
1	936	805.687550624853	393
1	938	810.024163507435	394
1	942	813.144339595167	395
1	944	816.655118553284	396
1	946	818.395554328539	397
1	948	818.671695384371	398
1	950	821.069428399385	399
1	952	822.546815002969	400
1	954	822.670016331386	401
1	956	823.841831798997	402
1	958	824.26146011997	403
1	960	824.99449549062	404
1	962	826.01010928826	405
1	964	828.61102853621	406
1	966	831.282632328191	407
1	968	831.599843328918	408
1	970	833.206735950953	409
1	972	837.592518871649	410
1	974	838.143251922927	411
1	976	842.092838710346	412
1	978	846.89785383689	413
1	980	846.96665034343	414
1	982	847.01771262496	415
1	984	847.295699051214	416
1	986	847.982567595962	417
1	988	848.131945899466	418
1	990	848.579773130995	419
1	992	848.634764735429	420
1	994	849.542259854583	421
1	996	851.446057043715	422
1	998	855.765373180402	423
1	1000	858.173388136225	424
1	1004	860.490902994381	425
1	1006	861.376110471493	426
1	1008	861.677149378226	427
1	1010	866.780941594142	428
1	1014	867.196354001325	429
1	1016	867.824553524603	430
1	1018	867.906160767077	431
1	1020	869.256221754606	432
1	1022	869.680198646609	433
1	1024	872.310369208238	434
1	1026	872.704795332818	435
1	1028	872.722464218459	436
1	1030	873.470592967859	437
1	1032	876.490270908794	438
1	1034	878.459033898155	439
1	1039	884.137765767827	440
1	1041	886.664818121177	441
1	1043	887.386962335008	442
1	1045	887.667184854909	443
1	1047	888.437477526523	444
1	1049	889.99575530735	445
1	1051	891.930328472291	446
1	1053	895.541647828211	447
1	1055	896.015755175682	448
1	1057	896.920105041329	449
1	1059	899.20922040616	450
1	1061	900.85319378983	451
1	1063	903.095329114882	452
1	1065	904.574072523096	453
1	1067	908.326108265043	454
1	1069	910.006504321855	455
1	1071	910.418992559819	456
1	1075	915.082213844504	457
1	1077	916.165348516577	458
1	1079	916.812597122749	459
1	1081	917.440654524983	460
1	1083	918.831676429172	461
1	1085	919.571917696672	462
1	1087	919.571926600601	463
1	1089	920.164495810019	464
1	1091	920.250612420251	465
1	1093	921.449653364784	466
1	1095	922.207920562582	467
1	1097	928.094601862752	468
1	1100	929.889212963129	469
1	1102	929.916247856793	470
1	1104	929.972180148724	471
1	1106	931.728120687852	472
1	1108	932.712567315329	473
1	1110	936.055396829327	474
1	1112	939.007694977917	475
1	1114	939.949117997521	476
1	1116	939.960078347455	477
1	1118	940.608441987552	478
1	1120	944.181665574509	479
1	1122	945.304969911423	480
1	1124	948.031256849288	481
1	1126	951.6568814299	482
1	1128	954.290812917628	483
1	1130	954.689346975476	484
1	1132	957.740382315475	485
1	1134	958.942285674767	486
1	1136	964.103024661002	487
1	1140	969.19573636065	488
1	1142	970.92689144523	489
1	1144	971.44171030895	490
1	1146	971.772600494859	491
1	1148	974.16699646578	492
1	1151	976.666853543158	493
1	1153	979.853819897805	494
1	1155	980.74417810565	495
1	1157	981.474781037956	496
1	1159	986.079531556283	497
1	1161	986.537046065529	498
1	1164	990.210109699996	499
1	1166	990.581581748168	500
1	1168	993.02160865005	501
1	1170	996.48340425839	502
1	1172	996.753728692172	503
1	1174	1001.393954629042	504
1	1176	1002.350014912777	505
1	1180	1003.122398692632	506
1	1182	1004.136104238606	507
1	1184	1005.097465843678	508
1	1186	1009.043100504007	509
1	1188	1009.40261797449	510
1	1190	1014.18807038093	511
1	1192	1020.9215808721	512
1	1194	1022.277332642151	513
1	1196	1022.792013238967	514
1	1198	1024.412417312566	515
1	1200	1024.974800599089	516
1	1202	1025.063869868904	517
1	1204	1025.149269191157	518
1	1206	1025.518049153109	519
1	1208	1026.395694741834	520
1	1210	1028.465739601838	521
1	1212	1029.235214587787	522
1	1216	1030.490371606351	523
1	1218	1031.948492497542	524
1	1220	1032.090305935732	525
1	1222	1033.53764986608	526
1	1226	1033.756157235009	527
1	1228	1034.017429884195	528
1	1230	1034.231164329649	529
1	1234	1040.434449422552	530
1	1236	1041.223422975455	531
1	1238	1043.189530983016	532
1	1240	1044.989884171378	533
1	1242	1048.141749477997	534
1	1244	1051.417720951757	535
1	1246	1052.799340081915	536
1	1248	1055.498755869764	537
1	1250	1056.050068543127	538
1	1252	1056.859356069585	539
1	1254	1058.375742509523	540
1	1256	1058.527377023578	541
1	1258	1062.536059576388	542
1	1260	1062.681138059357	543
1	1262	1063.722793076221	544
1	1264	1064.068675134532	545
1	1266	1069.486127995367	546
1	1268	1071.224622819962	547
1	1270	1073.801466699969	548
1	1272	1074.508217423901	549
1	1274	1075.177173365831	550
1	1276	1077.141811554728	551
1	1278	1078.05194284985	552
1	1280	1078.209145603659	553
1	1282	1079.233212125276	554
1	1284	1081.324283177847	555
1	1286	1081.684201551432	556
1	1288	1082.337521116051	557
1	1291	1086.919674268008	558
1	1293	1087.241930740098	559
1	1295	1088.925439429228	560
1	1297	1095.423983134312	561
1	1299	1095.559345243106	562
1	1301	1099.22898837137	563
1	1305	1099.762424452021	564
1	1307	1100.001145981246	565
1	1309	1101.138474713958	566
1	1311	1102.156689129447	567
1	1313	1109.64893203795	568
1	1315	1109.796834048314	569
1	1317	1109.942468052771	570
1	1321	1115.448557935965	571
1	1323	1117.366583779448	572
1	1325	1120.765022540278	573
1	1327	1121.106249216493	574
1	1330	1122.83467621607	575
1	1332	1123.478627386646	576
1	1336	1128.824233116985	577
1	1338	1129.219595255682	578
1	1340	1130.532724635711	579
1	1342	1130.920989692327	580
1	1344	1131.132250998576	581
1	1346	1131.212646628053	582
1	1348	1132.133000072347	583
1	1350	1137.919353486995	584
1	1352	1144.429235762035	585
1	1354	1144.731353064279	586
1	1356	1144.7838449445	587
1	1358	1145.490310892883	588
1	1360	1146.562089668374	589
1	1362	1147.274778239774	590
1	1364	1147.83884397115	591
1	1366	1150.076519747691	592
1	1368	1150.279307559263	593
1	1370	1157.324469167585	594
1	1372	1159.266253212495	595
1	1375	1163.421961490863	596
1	1377	1163.711787205779	597
1	1379	1165.684137224647	598
1	1381	1165.806732244676	599
1	1383	1167.576708743468	600
1	1385	1168.034873752266	601
1	1387	1172.070474263325	602
1	1389	1172.44301010444	603
1	1391	1172.538860952322	604
1	1393	1175.600495317611	605
1	1395	1176.863402583036	606
1	1397	1183.573925601261	607
1	1399	1185.066057760744	608
1	1401	1185.347090729734	609
1	1403	1193.080387679876	610
1	1405	1193.6292182233	611
1	1407	1193.694988394799	612
1	1409	1194.055247241786	613
1	1413	1195.143238536587	614
1	1415	1196.884635988523	615
1	1417	1199.298121445639	616
1	1419	1199.435015853761	617
1	1422	1202.042521829652	618
1	1424	1202.619615418833	619
1	1427	1204.338894783537	620
1	1429	1210.639259660444	621
1	1431	1215.890133640279	622
1	1440	1226.319120907478	623
1	1442	1226.380171411931	624
1	1444	1228.152649261713	625
1	1446	1230.654206819363	626
1	1448	1233.486318591151	627
1	1450	1237.116204428389	628
1	1454	1240.918305775147	629
1	1456	1244.344369259383	630
1	1458	1244.884355867258	631
1	1460	1245.258354093554	632
1	1462	1247.771846338582	633
1	1464	1248.216371880045	634
1	1466	1249.103706427252	635
1	1468	1252.442813138049	636
1	1470	1256.794384005154	637
1	1472	1257.069254688606	638
1	1474	1261.57740446959	639
1	1476	1262.639775249751	640
1	1478	1266.262829009585	641
1	1480	1266.38043780589	642
1	1482	1266.46595517167	643
1	1484	1266.606005540113	644
1	1486	1267.981454092584	645
1	1488	1268.196369001906	646
1	1490	1268.91499416577	647
1	1492	1270.206288241311	648
1	1494	1270.518302477711	649
1	1496	1272.200098814439	650
1	1500	1278.07933411172	651
1	1502	1279.210583196144	652
1	1504	1279.425915779373	653
1	1506	1279.525311689976	654
1	1509	1280.180754407532	655
1	1511	1283.789244950104	656
1	1513	1284.411010733181	657
1	1515	1284.511919074805	658
1	1517	1285.178739231762	659
1	1519	1285.33492284414	660
1	1521	1285.419890759029	661
1	1526	1287.262726576794	662
1	1528	1288.056094894951	663
1	1530	1288.633764311573	664
1	1535	1301.827266363844	665
1	1537	1302.778837785407	666
1	1539	1304.678533764983	667
1	1541	1305.0542054619	668
1	1543	1305.79978140031	669
1	1545	1306.027602812064	670
1	1547	1307.463871051911	671
1	1549	1308.195794504529	672
1	1551	1311.471165077542	673
1	1553	1314.743007292169	674
1	1555	1321.448675790725	675
1	1557	1324.43277070107	676
1	1561	1326.893641544825	677
1	1563	1329.992487764342	678
1	1567	1331.43093012169	679
1	1569	1334.413975983985	680
1	1571	1334.880577776076	681
1	1574	1336.081649928547	682
1	1576	1337.013272680446	683
1	1578	1337.938349605212	684
1	1580	1340.11001050506	685
1	1582	1344.604538209434	686
1	1584	1346.382316998375	687
1	1586	1346.934786363909	688
1	1588	1349.934163697682	689
1	1590	1354.227335045797	690
1	1592	1354.370605717922	691
1	1596	1356.612968404854	692
1	1598	1359.897269442592	693
1	1600	1360.816315930591	694
1	1602	1362.315843903772	695
1	1606	1363.576428284529	696
1	1608	1364.497714062381	697
1	1610	1364.629656763984	698
1	1612	1364.80814816028	699
1	1614	1369.290064657432	700
1	1616	1372.002982114048	701
1	1618	1372.865281119156	702
1	1620	1373.934860198876	703
1	1622	1374.18977516166	704
1	1624	1374.781609179545	705
1	1626	1375.024711795256	706
1	1628	1381.038984273216	707
1	1630	1381.105484578564	708
1	1633	1385.252378920961	709
1	1635	1387.430138754105	710
1	1637	1388.513145562123	711
1	1640	1392.251987428019	712
1	1642	1394.797900676945	713
1	1644	1396.339701985338	714
1	1646	1398.030012699336	715
1	1650	1402.634621658754	716
1	1652	1403.172584131934	717
1	1654	1404.006881491265	718
1	1656	1404.147636611637	719
1	1658	1407.295983611596	720
1	1660	1408.797543579639	721
1	1662	1410.45290776536	722
1	1664	1410.807333762003	723
1	1666	1413.303833708933	724
1	1668	1416.004264977178	725
1	1670	1417.785835822802	726
1	1672	1418.076365321173	727
1	1674	1421.461424495869	728
1	1676	1422.364717721519	729
1	1678	1423.410743002109	730
1	1680	1424.66492833171	731
1	1682	1424.719890446708	732
1	1684	1429.011680983366	733
1	1686	1434.171199261762	734
1	1690	1436.508583654409	735
1	1692	1437.57638649718	736
1	1694	1438.50616464237	737
1	1696	1439.008984414936	738
1	1698	1439.653933449598	739
1	1700	1440.052490576631	740
1	1702	1445.098259595484	741
1	1704	1445.395856986018	742
1	1706	1445.928052971655	743
1	1708	1446.060210038395	744
1	1710	1448.737049599831	745
1	1714	1451.375019406892	746
1	1716	1451.641501080196	747
1	1718	1453.668032337395	748
1	1720	1454.137502452627	749
1	1722	1457.512268270465	750
1	1724	1458.420813656672	751
1	1726	1459.244355080973	752
1	1728	1463.65709649376	753
1	1730	1464.561623661602	754
1	1732	1466.677641667969	755
1	1736	1474.542467605766	756
1	1742	1480.555670036668	757
1	1744	1480.886439327516	758
1	1746	1480.998074926639	759
1	1748	1481.081091491578	760
1	1750	1482.683885539714	761
1	1752	1487.655668071158	762
1	1754	1488.428701236738	763
1	1756	1490.166970414349	764
1	1759	1491.719025335995	765
1	1761	1494.220723999892	766
1	1763	1494.977679086379	767
1	1765	1496.913169747463	768
1	1767	1497.998843095723	769
1	1769	1499.137740344572	770
1	1771	1502.261926255297	771
1	1773	1502.933476061021	772
1	1775	1503.072359169738	773
1	1777	1505.130529124197	774
1	1779	1508.250935893346	775
1	1781	1510.52239764749	776
1	1785	1513.352374355751	777
1	1787	1517.921827666691	778
1	1789	1519.721797619021	779
1	1791	1521.873210714556	780
1	1793	1522.183191129978	781
1	1795	1522.253159570792	782
1	1797	1524.927260413539	783
1	1799	1526.973949697063	784
1	1801	1527.611901600453	785
1	1804	1529.666484749321	786
1	1806	1531.877030961562	787
1	1808	1533.293477337773	788
1	1810	1534.496724184844	789
1	1812	1534.628272412031	790
1	1814	1537.171960197316	791
1	1818	1539.224591836755	792
1	1820	1541.609836390449	793
1	1822	1541.973595987528	794
1	1824	1542.6713759843	795
1	1826	1546.97836488854	796
1	1828	1548.15735860364	797
1	1830	1551.307526046419	798
1	1832	1552.168341261294	799
1	1834	1555.16131875089	800
1	1836	1555.31240436581	801
1	1839	1563.327049875224	802
1	1841	1563.529610068771	803
1	1843	1563.65203874967	804
1	1845	1564.447283252542	805
1	1847	1566.337513704969	806
1	1849	1566.82731447238	807
1	1851	1568.755074116504	808
1	1853	1569.359372114707	809
1	1855	1569.60554146922	810
1	1857	1570.838286203846	811
1	1859	1572.202648952596	812
1	1861	1574.367691491079	813
1	1863	1574.587404928613	814
1	1865	1575.759604723079	815
1	1867	1576.49179610172	816
1	1869	1577.834649226152	817
1	1871	1578.390631807218	818
1	1873	1580.315435779899	819
1	1875	1581.229932487139	820
1	1878	1590.809890954838	821
1	1880	1592.18354867719	822
1	1882	1593.150933833405	823
1	1885	1595.28327456945	824
1	1889	1600.194259461508	825
1	1891	1601.328337837301	826
1	1893	1601.750074130262	827
1	1895	1612.068891642692	828
1	1897	1612.617470989174	829
1	1899	1615.2797686682	830
1	1903	1618.15488583965	831
1	1905	1618.899654063162	832
1	1907	1619.773965433985	833
1	1909	1620.789134763551	834
1	1911	1620.857252798097	835
1	1913	1621.61860500234	836
1	1915	1621.894330439187	837
1	1917	1622.510262437837	838
1	1919	1624.941989623282	839
1	1921	1629.748983534709	840
1	1923	1630.940839557153	841
1	1927	1632.910633063285	842
1	1929	1634.105866961538	843
1	1931	1634.459424688121	844
1	1933	1638.117644901558	845
1	1935	1639.433757146908	846
1	1937	1641.720948396302	847
1	1939	1644.902342871125	848
1	1941	1645.564462403194	849
1	1943	1647.030968287065	850
1	1945	1647.154226654533	851
1	1949	1650.255172310542	852
1	1951	1650.95684895704	853
1	1953	1651.543459644168	854
1	1956	1654.115174396312	855
1	1958	1657.567131296929	856
1	1960	1659.255422292393	857
1	1962	1660.932126910119	858
1	1964	1663.068840954452	859
1	1966	1663.326751310063	860
1	1968	1671.226341099988	861
1	1970	1672.775378778578	862
1	1972	1677.192562927936	863
1	1974	1677.207330754859	864
1	1978	1680.717163485994	865
1	1980	1682.77518581278	866
1	1982	1683.958098302581	867
1	1984	1684.986966377605	868
1	1986	1686.037329548091	869
1	1988	1688.593282121798	870
1	1991	1691.091536817302	871
1	1993	1694.323799509353	872
1	1995	1695.195147400174	873
1	1999	1697.742083080889	874
1	2001	1701.400943431529	875
1	2003	1702.051782037465	876
1	2005	1703.02723083576	877
1	2007	1704.116559681762	878
1	2009	1705.193152449186	879
1	2011	1708.736304169611	880
1	2013	1711.462642918616	881
1	2015	1711.469733086641	882
1	2018	1714.681136503304	883
1	2020	1723.030068077697	884
1	2022	1723.246568533721	885
1	2024	1724.076262267529	886
1	2026	1724.95190416577	887
1	2032	1725.818917818701	888
1	2036	1732.051197869349	889
1	2038	1733.537615403161	890
1	2040	1734.282865486941	891
1	2042	1734.849403593635	892
1	2044	1736.365366166766	893
1	2046	1739.30721239523	894
1	2048	1742.656986857109	895
1	2050	1743.532276333542	896
1	2052	1748.414963151423	897
1	2056	1755.029128081996	898
1	2058	1755.597105136117	899
1	2060	1756.656020689856	900
1	2062	1757.537112713897	901
1	2064	1761.556084352417	902
1	2066	1762.209432585275	903
1	2068	1764.889987917555	904
1	2071	1768.238372125451	905
1	2073	1769.786987600339	906
1	2075	1770.72990443738	907
1	2077	1773.748828580728	908
1	2079	1773.99717534266	909
1	2081	1774.542260373627	910
1	2083	1777.084436169308	911
1	2085	1790.604117000871	912
1	2087	1792.521438929417	913
1	2091	1793.064561764058	914
1	2093	1793.257076016764	915
1	2095	1793.344921445009	916
1	2097	1793.536079190375	917
1	2099	1794.129991966853	918
1	2101	1805.21665572971	919
1	2103	1805.25898205267	920
1	2105	1807.818141814145	921
1	2109	1808.774519775913	922
1	2111	1809.836310815792	923
1	2113	1809.911158660265	924
1	2115	1810.23172671364	925
1	2117	1810.596419782505	926
1	2119	1811.37834797309	927
1	2121	1812.446706119128	928
1	2123	1815.818488950634	929
1	2125	1816.228613836517	930
1	2127	1817.448951437345	931
1	2129	1819.422484116388	932
1	2135	1822.821468155677	933
1	2137	1823.89355889	934
1	2139	1825.946140052904	935
1	2141	1828.005112778986	936
1	2143	1830.366307660228	937
1	2145	1832.845948968869	938
1	2147	1833.402474662957	939
1	2149	1840.269572511385	940
1	2151	1840.393564917617	941
1	2153	1844.098661298864	942
1	2155	1844.30279922341	943
1	2157	1844.731156973015	944
1	2159	1847.403643853806	945
1	2161	1849.117653807228	946
1	2163	1850.334015157462	947
1	2165	1852.020911258328	948
1	2167	1852.353652787061	949
1	2169	1856.565616890425	950
1	2171	1857.662345997731	951
1	2173	1863.994026422192	952
1	2175	1865.879136599613	953
1	2177	1866.981435837878	954
1	2179	1867.781731960654	955
1	2181	1870.699280173153	956
1	2183	1876.78103923916	957
1	2185	1877.509030794109	958
1	2187	1878.162123113828	959
1	2189	1878.53320592217	960
1	2191	1883.261058948149	961
1	2193	1883.649168317836	962
1	2195	1883.759081780432	963
1	2197	1884.861436514656	964
1	2203	1887.712045517732	965
1	2205	1888.158699815651	966
1	2207	1888.248924878492	967
1	2209	1888.51119655027	968
1	2211	1890.561528261974	969
1	2213	1891.586353876545	970
1	2215	1892.389396277307	971
1	2217	1894.503953936775	972
1	2219	1897.619670119178	973
1	2221	1898.309438059897	974
1	2225	1902.950298216605	975
1	2227	1903.39377883875	976
1	2232	1911.304509641105	977
1	2234	1913.447246729548	978
1	2236	1915.936053618501	979
1	2238	1917.265022865058	980
1	2240	1918.290640481099	981
1	2242	1920.62239027279	982
1	2244	1924.934030856475	983
1	2246	1926.321031382548	984
1	2248	1926.82683500923	985
1	2250	1927.968167010545	986
1	2252	1928.659419929045	987
1	2254	1933.484963243602	988
1	2256	1934.038767348388	989
1	2260	1935.810001470026	990
1	2262	1939.426576047847	991
1	2264	1941.045750247236	992
1	2266	1949.042463332879	993
1	2269	1953.46773476945	994
1	2271	1953.659043193736	995
1	2273	1954.002890267364	996
1	2275	1955.547032144721	997
1	2277	1956.727294273721	998
1	2279	1957.059604200144	999
1	2281	1961.891163284899	1000
1	2283	1962.734154529254	1001
1	2285	1963.523794140506	1002
1	2287	1963.794139700353	1003
1	2289	1968.255554981545	1004
1	2291	1969.250822218752	1005
1	2293	1970.093434303693	1006
1	2295	1970.901633913481	1007
1	2297	1970.949382882454	1008
1	2299	1972.368569544952	1009
1	2301	1973.134743352903	1010
1	2303	1976.581466345316	1011
1	2305	1976.820532934507	1012
1	2307	1980.657892527562	1013
1	2309	1981.44708078469	1014
1	2311	1986.020264591584	1015
1	2313	1993.142733273049	1016
1	2315	1997.889262654659	1017
1	2317	1998.573859055053	1018
1	2319	2000.967370793037	1019
1	2321	2006.269882563942	1020
1	2323	2007.568691882909	1021
1	2325	2010.030224164667	1022
1	2327	2013.440783236358	1023
1	2329	2014.436784767798	1024
1	2331	2016.167332325316	1025
1	2333	2022.127859723586	1026
1	2335	2023.469049807836	1027
1	2337	2026.352886982633	1028
1	2340	2030.982692579068	1029
1	2342	2032.791787829198	1030
1	2344	2033.463665443732	1031
1	2346	2035.323930032442	1032
1	2348	2035.666425396211	1033
1	2350	2036.495768374966	1034
1	2352	2036.651306474026	1035
1	2354	2039.108404830078	1036
1	2356	2040.412135302803	1037
1	2358	2040.712080975894	1038
1	2360	2044.909677842418	1039
1	2362	2047.096477989543	1040
1	2364	2047.476266512151	1041
1	2366	2047.516296925034	1042
1	2368	2049.295968451352	1043
1	2370	2051.051880554158	1044
1	2372	2051.271648559205	1045
1	2374	2051.919906610931	1046
1	2378	2054.472349800441	1047
1	2380	2055.345008059593	1048
1	2382	2056.339519525423	1049
1	2384	2056.46698305392	1050
1	2386	2058.255581082051	1051
1	2388	2058.615623202196	1052
1	2390	2058.832447256157	1053
1	2392	2059.065904388136	1054
1	2394	2060.212943222652	1055
1	2396	2060.274191222448	1056
1	2398	2061.616259987021	1057
1	2400	2063.037327194066	1058
1	2402	2063.068016213414	1059
1	2404	2063.960268916628	1060
1	2406	2070.32249170455	1061
1	2410	2071.149431319527	1062
1	2412	2072.175378886307	1063
1	2414	2073.183915528491	1064
1	2416	2073.664744567802	1065
1	2418	2074.322551799746	1066
1	2423	2076.86004774437	1067
1	2427	2076.996692263353	1068
1	2429	2077.908497262968	1069
1	2437	2083.437215281981	1070
1	2439	2086.283440966644	1071
1	2441	2087.136645573657	1072
1	2443	2087.414614933002	1073
1	2445	2087.593040299737	1074
1	2447	2091.007456940992	1075
1	2449	2091.495608750556	1076
1	2451	2091.669094984675	1077
1	2453	2092.500336565344	1078
1	2455	2092.510047628172	1079
1	2457	2092.516815883177	1080
1	2459	2093.746492210741	1081
1	2463	2099.644942395518	1082
1	2467	2106.860533411212	1083
1	2469	2106.950486877909	1084
1	2471	2108.191201320192	1085
1	2473	2109.029279663139	1086
1	2475	2109.335060129495	1087
1	2477	2110.880393411175	1088
1	2479	2112.850300755632	1089
1	2481	2113.339164512861	1090
1	2483	2113.418047868663	1091
1	2487	2116.340373079948	1092
1	2489	2117.424848513075	1093
1	2491	2119.13621230396	1094
1	2493	2119.177860978711	1095
1	2496	2123.115958505179	1096
1	2498	2124.72342539855	1097
1	2500	2124.729016873218	1098
1	2502	2124.974867180569	1099
1	2504	2125.228353033549	1100
1	2506	2125.273454739655	1101
1	2508	2128.437279756054	1102
1	2510	2128.905980745634	1103
1	2512	2129.449230120575	1104
1	2514	2131.282602706515	1105
1	2516	2135.506126491897	1106
1	2518	2138.058769619376	1107
1	2520	2138.255453024885	1108
1	2522	2139.036834472927	1109
1	2524	2139.801110012007	1110
1	2526	2143.458787270634	1111
1	2528	2146.77255631153	1112
1	2530	2148.275103141568	1113
1	2532	2148.96723414847	1114
1	2536	2149.643518245576	1115
1	2538	2150.314565308904	1116
1	2542	2154.971305609795	1117
1	2544	2156.494012912015	1118
1	2546	2157.904002238212	1119
1	2550	2159.711734985979	1120
1	2554	2164.039736709072	1121
1	2556	2165.94448983211	1122
1	2558	2169.259616998915	1123
1	2560	2170.722621258309	1124
1	2562	2171.798638683535	1125
1	2564	2173.133835113202	1126
1	2566	2176.083383613256	1127
1	2568	2176.157226518155	1128
1	2570	2176.86573915109	1129
1	2572	2177.504356211877	1130
1	2574	2177.903962789643	1131
1	2577	2187.712465123416	1132
1	2579	2189.362246188574	1133
1	2581	2190.69321265938	1134
1	2583	2190.984038463831	1135
1	2585	2193.037471346161	1136
1	2587	2194.428272033581	1137
1	2589	2196.793680399326	1138
1	2591	2198.438554951803	1139
1	2593	2201.011238847653	1140
1	2595	2201.127966120193	1141
1	2597	2207.495317189962	1142
1	2599	2208.378792947168	1143
1	2601	2209.844016255844	1144
1	2603	2211.640852580817	1145
1	2605	2212.4440482331	1146
1	2609	2214.735001707563	1147
1	2611	2215.667364727233	1148
1	2613	2219.805389923503	1149
1	2615	2223.126186891028	1150
1	2619	2226.368121247322	1151
1	2622	2232.792449199783	1152
1	2624	2236.161156625984	1153
1	2627	2238.942363743909	1154
1	2629	2239.176671560719	1155
1	2631	2240.492006162827	1156
1	2633	2246.354515308956	1157
1	2635	2247.83235314644	1158
1	2637	2256.95172988813	1159
1	2639	2268.308966372426	1160
1	2641	2270.94565538235	1161
1	2643	2274.840536370004	1162
1	2645	2276.794892656725	1163
1	2647	2278.081394537807	1164
1	2649	2280.4371439438	1165
1	2651	2282.505456389156	1166
1	2654	2291.078532357177	1167
1	2656	2291.514069286081	1168
1	2658	2291.997479069682	1169
1	2660	2293.780010711456	1170
1	2662	2293.847844178948	1171
1	2664	2296.798557163124	1172
1	2666	2301.62860305378	1173
1	2668	2302.522350347265	1174
1	2670	2303.339879824285	1175
1	2672	2305.702240998589	1176
1	2674	2307.114428350894	1177
1	2676	2308.56598520979	1178
1	2684	2319.378575210284	1179
1	2686	2320.034628405946	1180
1	2688	2330.467441441593	1181
1	2690	2330.716087366273	1182
1	2692	2332.532963264783	1183
1	2694	2337.709560273173	1184
1	2696	2337.759845981074	1185
1	2698	2337.923851734331	1186
1	2700	2338.093195442523	1187
1	2702	2341.296517407182	1188
1	2706	2342.686662516951	1189
1	2708	2342.790021196257	1190
1	2710	2343.825742426067	1191
1	2712	2351.988209513586	1192
1	2714	2355.916257018855	1193
1	2716	2359.518397408575	1194
1	2718	2361.275294890122	1195
1	2720	2362.376228726413	1196
1	2722	2362.758162171905	1197
1	2724	2363.327491546304	1198
1	2726	2364.799357599974	1199
1	2728	2366.486032986783	1200
1	2730	2366.963173245684	1201
1	2732	2367.627710860833	1202
1	2734	2367.632758422822	1203
1	2736	2368.288207823217	1204
1	2738	2369.757787040284	1205
1	2740	2371.462207129734	1206
1	2742	2371.782565496098	1207
1	2746	2375.974240613267	1208
1	2748	2378.412629141019	1209
1	2750	2380.605269400091	1210
1	2754	2381.15437075704	1211
1	2756	2381.257429993555	1212
1	2758	2381.763885128777	1213
1	2760	2383.597788824667	1214
1	2762	2384.238051264639	1215
1	2764	2385.098650771788	1216
1	2766	2386.467880678883	1217
1	2768	2387.049916828927	1218
1	2770	2390.546929536277	1219
1	2772	2391.006124165062	1220
1	2774	2391.869770781628	1221
1	2776	2394.580028431507	1222
1	2778	2395.834403302089	1223
1	2780	2397.563295904604	1224
1	2782	2400.878934179023	1225
1	2784	2403.657576112361	1226
1	2788	2404.878146282566	1227
1	2790	2405.430282386725	1228
1	2792	2410.068845495654	1229
1	2794	2412.058580119382	1230
1	2796	2415.503604910518	1231
1	2798	2418.502040453874	1232
1	2800	2418.78515501181	1233
1	2802	2420.491089031859	1234
1	2804	2420.976402668747	1235
1	2806	2422.160948350089	1236
1	2808	2423.445310291057	1237
1	2810	2428.867429916228	1238
1	2812	2429.25541051999	1239
1	2814	2430.568142512539	1240
1	2816	2431.035360961812	1241
1	2818	2431.964583423695	1242
1	2820	2432.129866611837	1243
1	2822	2432.634728812779	1244
1	2824	2433.370844780048	1245
1	2828	2433.662041765441	1246
1	2830	2433.850336077985	1247
1	2832	2435.158261286455	1248
1	2834	2437.716883050524	1249
1	2836	2440.232660009919	1250
1	2840	2452.153036656639	1251
1	2842	2456.698131708317	1252
1	2844	2457.012634856319	1253
1	2846	2457.227823134058	1254
1	2848	2457.370279631451	1255
1	2850	2457.980791107703	1256
1	2852	2459.756045092784	1257
1	2856	2461.338887560369	1258
1	2858	2467.290403133962	1259
1	2862	2468.885738053784	1260
1	2864	2469.188014457844	1261
1	2866	2469.462237226464	1262
1	2868	2469.922150022588	1263
1	2871	2474.757557130043	1264
1	2875	2475.344639935113	1265
1	2877	2475.598000721136	1266
1	2879	2476.459297913743	1267
1	2881	2478.667074935465	1268
1	2883	2479.346310014114	1269
1	2885	2484.728224365463	1270
1	2887	2487.991910657129	1271
1	2890	2490.628443559319	1272
1	2892	2493.999941963859	1273
1	2896	2498.743920088481	1274
2	429	356.5813254123	4
2	433	362.521660136066	5
2	471	400.41477839754	4
2	475	400.989063535264	5
2	559	478.265615825747	6
2	577	498.462216923946	5
2	589	506.274101154578	6
2	627	543.861325420206	7
2	639	560.04194327393	8
2	671	586.69130007823	9
2	705	604.735245203313	10
2	707	605.155777816588	11
2	715	611.966540144215	12
2	717	614.333274271427	13
2	733	634.520473617099	14
2	749	641.589042052045	15
2	753	646.140911074391	16
2	781	669.370048180619	17
2	789	676.089550307947	18
2	824	715.645460968857	18
2	854	735.110182554916	19
2	860	739.538941641431	20
2	878	749.503152676415	21
2	904	770.914674302833	22
2	916	787.110693257764	23
2	940	811.167204134008	24
2	1002	858.399036366918	25
2	1012	867.088444874552	26
2	1037	881.809084173332	26
2	1073	913.018282051986	27
2	1138	968.873454385473	27
2	1178	1002.51878157638	26
2	1214	1029.242586038515	27
2	1224	1033.641092825581	28
2	1232	1039.791114202476	29
2	1303	1099.489056947826	29
2	1319	1110.541336198966	30
2	1334	1123.489536725241	30
2	1411	1194.221935883371	30
2	1433	1216.190203000085	29
2	1436	1220.406967291869	29
2	1438	1225.154657742576	30
2	1452	1240.638952913731	31
2	1498	1273.59487077883	32
2	1524	1286.95495848667	31
2	1532	1294.658978465549	32
2	1559	1324.434619982293	32
2	1565	1331.395607018128	33
2	1594	1355.60478524757	33
2	1604	1362.793164268834	34
2	1648	1400.224333753695	33
2	1688	1435.416693770565	34
2	1712	1451.229788169275	35
2	1734	1467.31286884861	36
2	1738	1476.276237015556	37
2	1740	1480.532117879222	38
2	1783	1512.620878371213	38
2	1816	1537.674109379175	38
2	1887	1595.678269176451	36
2	1901	1616.104092815001	37
2	1925	1632.557720265987	38
2	1947	1647.794972004337	39
2	1976	1680.412202636077	39
2	1997	1697.409528314427	39
2	2028	1724.988876512068	39
2	2030	1725.23706083006	40
2	2034	1728.758263676249	41
2	2054	1752.522744556116	42
2	2089	1792.921853419995	42
2	2107	1808.22155861746	43
2	2131	1820.926754352695	44
2	2133	1822.575584828858	45
2	2199	1886.804862313205	46
2	2201	1887.079489260505	47
2	2223	1900.930256248978	48
2	2229	1907.440788448399	49
2	2258	1935.405271074888	49
2	2376	2054.337250358517	48
2	2408	2070.533405052142	49
2	2421	2075.646756539144	49
2	2425	2076.914782185927	50
2	2431	2079.133756545541	51
2	2433	2081.549383941071	52
2	2435	2081.878085919375	53
2	2461	2095.149543605838	54
2	2465	2103.509230131846	55
2	2485	2116.197895522037	56
2	2534	2149.223735525897	56
2	2540	2154.144608735228	57
2	2548	2159.045226232794	58
2	2552	2159.7706300103	59
2	2607	2214.316810083452	59
2	2617	2223.374868222643	60
2	2678	2312.67934090531	58
2	2680	2313.820088273974	59
2	2682	2314.04164474955	60
2	2704	2342.03911326403	61
2	2744	2372.772414252373	62
2	2752	2380.837896134975	63
2	2786	2403.964648935548	64
2	2826	2433.433079546767	65
2	2838	2447.93178109452	66
2	2854	2461.038193796627	67
2	2860	2467.308126790654	68
2	2873	2475.318419721545	68
2	2894	2497.177872175454	68
3	429	356.5813254123	3
3	433	362.521660136066	4
3	460	390.414305625655	4
3	469	396.66614504679	3
3	471	400.41477839754	3
3	475	400.989063535264	4
3	559	478.265615825747	5
3	562	478.814276544319	5
3	563	479.223358232603	4
3	577	498.462216923946	4
3	589	506.274101154578	5
3	627	543.861325420206	6
3	639	560.04194327393	7
3	671	586.69130007823	8
3	705	604.735245203313	9
3	707	605.155777816588	10
3	715	611.966540144215	11
3	717	614.333274271427	12
3	733	634.520473617099	13
3	749	641.589042052045	14
3	753	646.140911074391	15
3	781	669.370048180619	16
3	789	676.089550307947	17
3	794	682.197078070396	17
3	824	715.645460968857	17
3	854	735.110182554916	18
3	860	739.538941641431	19
3	878	749.503152676415	20
3	904	770.914674302833	21
3	916	787.110693257764	22
3	940	811.167204134008	23
3	1002	858.399036366918	24
3	1012	867.088444874552	25
3	1035	879.050198762753	25
3	1037	881.809084173332	25
3	1073	913.018282051986	26
3	1098	929.533688437896	26
3	1138	968.873454385473	26
3	1149	975.755391526307	26
3	1162	987.917810132011	25
3	1178	1002.51878157638	25
3	1214	1029.242586038515	26
3	1224	1033.641092825581	27
3	1232	1039.791114202476	28
3	1289	1082.446487397393	28
3	1303	1099.489056947826	28
3	1319	1110.541336198966	29
3	1328	1122.263925678522	29
3	1334	1123.489536725241	29
3	1373	1161.529935670825	29
3	1411	1194.221935883371	29
3	1420	1200.964400551669	29
3	1425	1203.622506689438	28
3	1433	1216.190203000085	28
3	1434	1216.956127826704	28
3	1436	1220.406967291869	28
3	1438	1225.154657742576	29
3	1452	1240.638952913731	30
3	1498	1273.59487077883	31
3	1507	1280.063132533246	31
3	1522	1286.099579673588	30
3	1524	1286.95495848667	30
3	1532	1294.658978465549	31
3	1533	1301.377959489911	31
3	1559	1324.434619982293	31
3	1565	1331.395607018128	32
3	1572	1336.001256498926	32
3	1594	1355.60478524757	32
3	1604	1362.793164268834	33
3	1631	1381.49879665859	33
3	1638	1389.748922061756	32
3	1648	1400.224333753695	32
3	1688	1435.416693770565	33
3	1712	1451.229788169275	34
3	1734	1467.31286884861	35
3	1738	1476.276237015556	36
3	1740	1480.532117879222	37
3	1757	1490.66310182557	37
3	1783	1512.620878371213	37
3	1802	1528.700804013061	37
3	1816	1537.674109379175	37
3	1837	1560.409042015795	37
3	1876	1584.879111535219	36
3	1883	1594.894299558328	35
3	1887	1595.678269176451	35
3	1901	1616.104092815001	36
3	1925	1632.557720265987	37
3	1947	1647.794972004337	38
3	1954	1653.18439726286	38
3	1976	1680.412202636077	38
3	1989	1690.207635628688	38
3	1997	1697.409528314427	38
3	2016	1713.542263751448	38
3	2028	1724.988876512068	38
3	2030	1725.23706083006	39
3	2034	1728.758263676249	40
3	2054	1752.522744556116	41
3	2069	1764.992165379236	41
3	2089	1792.921853419995	41
3	2107	1808.22155861746	42
3	2131	1820.926754352695	43
3	2133	1822.575584828858	44
3	2199	1886.804862313205	45
3	2201	1887.079489260505	46
3	2223	1900.930256248978	47
3	2229	1907.440788448399	48
3	2230	1911.079134028804	48
3	2258	1935.405271074888	48
3	2267	1952.055985855073	48
3	2338	2027.16547537599	47
3	2376	2054.337250358517	47
3	2408	2070.533405052142	48
3	2419	2074.386134840415	48
3	2421	2075.646756539144	48
3	2425	2076.914782185927	49
3	2431	2079.133756545541	50
3	2433	2081.549383941071	51
3	2435	2081.878085919375	52
3	2461	2095.149543605838	53
3	2465	2103.509230131846	54
3	2485	2116.197895522037	55
3	2494	2121.21518183263	55
3	2534	2149.223735525897	55
3	2540	2154.144608735228	56
3	2548	2159.045226232794	57
3	2552	2159.7706300103	58
3	2575	2182.047348170289	58
3	2607	2214.316810083452	58
3	2617	2223.374868222643	59
3	2620	2229.803089819512	59
3	2625	2237.54201249939	58
3	2652	2289.041250410213	57
3	2678	2312.67934090531	57
3	2680	2313.820088273974	58
3	2682	2314.04164474955	59
3	2704	2342.03911326403	60
3	2744	2372.772414252373	61
3	2752	2380.837896134975	62
3	2786	2403.964648935548	63
3	2826	2433.433079546767	64
3	2838	2447.93178109452	65
3	2854	2461.038193796627	66
3	2860	2467.308126790654	67
3	2869	2472.570654449621	67
3	2873	2475.318419721545	67
3	2888	2488.202430189297	67
3	2894	2497.177872175454	67
4	460	390.414305625655	13
4	469	396.66614504679	14
4	562	478.814276544319	15
4	563	479.223358232603	16
4	794	682.197078070396	17
4	1035	879.050198762753	18
4	1098	929.533688437896	19
4	1149	975.755391526307	20
4	1162	987.917810132011	21
4	1289	1082.446487397393	22
4	1328	1122.263925678522	23
4	1373	1161.529935670825	24
4	1420	1200.964400551669	25
4	1425	1203.622506689438	26
4	1434	1216.956127826704	27
4	1507	1280.063132533246	28
4	1522	1286.099579673588	29
4	1533	1301.377959489911	30
4	1572	1336.001256498926	31
4	1631	1381.49879665859	32
4	1638	1389.748922061756	33
4	1757	1490.66310182557	34
4	1802	1528.700804013061	35
4	1837	1560.409042015795	36
4	1876	1584.879111535219	37
4	1883	1594.894299558328	38
4	1954	1653.18439726286	39
4	1989	1690.207635628688	40
4	2016	1713.542263751448	41
4	2069	1764.992165379236	42
4	2230	1911.079134028804	43
4	2267	1952.055985855073	44
4	2338	2027.16547537599	45
4	2419	2074.386134840415	46
4	2494	2121.21518183263	47
4	2575	2182.047348170289	48
4	2620	2229.803089819512	49
4	2625	2237.54201249939	50
4	2652	2289.041250410213	51
4	2869	2472.570654449621	52
4	2888	2488.202430189297	53
5	460	390.414305625655	150.08955534744
5	469	396.66614504679	145.20779105008
5	562	478.814276544319	139.07244704376
5	563	479.223358232603	122.6420328203
5	794	682.197078070396	319.67541793433
5	1035	879.050198762753	478.63542036521
5	1098	929.533688437896	528.54462490263
5	1149	975.755391526307	497.48977570056
5	1162	987.917810132011	489.45559320807
5	1289	1082.446487397393	576.17238624282
5	1328	1122.263925678522	578.40260025832
5	1373	1161.529935670825	601.4879923969
5	1420	1200.964400551669	614.27310047344
5	1425	1203.622506689438	598.88726148612
5	1434	1216.956127826704	611.80035001012
5	1507	1280.063132533246	668.09659238903
5	1522	1286.099579673588	671.76630540216
5	1533	1301.377959489911	666.85748587281
5	1572	1336.001256498926	694.41221444688
5	1631	1381.49879665859	735.3578855842
5	1638	1389.748922061756	720.37887388114
5	1757	1490.66310182557	814.57355151762
5	1802	1528.700804013061	813.0553430442
5	1837	1560.409042015795	825.29885946088
5	1876	1584.879111535219	845.34016989379
5	1883	1594.894299558328	845.39114688191
5	1954	1653.18439726286	882.26972296003
5	1989	1690.207635628688	903.09694237092
5	2016	1713.542263751448	902.37505961744
5	2069	1764.992165379236	906.59312901232
5	2230	1911.079134028804	1043.9906891543
5	2267	1952.055985855073	1070.2469016817
5	2338	2027.16547537599	1114.147193324
5	2419	2074.386134840415	1105.5126804549
5	2494	2121.21518183263	1118.6964002562
5	2575	2182.047348170289	1152.8047621318
5	2620	2229.803089819512	1196.1619969939
5	2625	2237.54201249939	1197.7508982969
5	2652	2289.041250410213	1189.5521934624
5	2869	2472.570654449621	1362.0293182507
5	2888	2488.202430189297	1364.7128934641
6	460	390.414305625655	138.95595162894
6	469	396.66614504679	56.924315546227
6	562	478.814276544319	122.23295113202
6	563	479.223358232603	116.70169809654
6	794	682.197078070396	281.78229967286
6	1035	879.050198762753	478.06113522749
6	1098	929.533688437896	451.26807261215
6	1149	975.755391526307	477.29317460236
6	1162	987.917810132011	481.64370897743
6	1289	1082.446487397393	538.58516197719
6	1328	1122.263925678522	562.22198240459
6	1373	1161.529935670825	574.83863559259
6	1420	1200.964400551669	596.22915534836
6	1425	1203.622506689438	598.46672887285
6	1434	1216.956127826704	604.98958768249
6	1507	1280.063132533246	665.72985826182
6	1522	1286.099579673588	651.57910605649
6	1533	1301.377959489911	659.78891743787
6	1572	1336.001256498926	689.86034542454
6	1631	1381.49879665859	712.12874847797
6	1638	1389.748922061756	713.65937175381
6	1757	1490.66310182557	775.01764085671
6	1802	1528.700804013061	793.59062145814
6	1837	1560.409042015795	820.87010037436
6	1876	1584.879111535219	835.3759588588
6	1883	1594.894299558328	823.97962525549
6	1954	1653.18439726286	866.0737040051
6	1989	1690.207635628688	879.04043149468
6	2016	1713.542263751448	855.14322738453
6	2069	1764.992165379236	897.90372050468
6	2230	1911.079134028804	1029.2700498555
6	2267	1952.055985855073	1039.0377038031
6	2338	2027.16547537599	1058.2920209905
6	2419	2074.386134840415	1071.867353264
6	2494	2121.21518183263	1091.9725957941
6	2575	2182.047348170289	1148.4062553447
6	2620	2229.803089819512	1190.011975617
6	2625	2237.54201249939	1138.0529555516
6	2652	2289.041250410213	1178.4999142112
6	2869	2472.570654449621	1349.0811177244
6	2888	2488.202430189297	1293.9804943059
7	2897	2500	0.0068
8	2897	2500	0.0212

