file 120177 1677857809                                          
version 2
run factors_calibration_bosses-217-20230303-16:36:49-8737
attr configname factors_calibration_bosses
attr datetime 20230303-16:36:49
attr experiment factors_calibration_bosses
attr inifile omnetpp.ini
attr iterationvars $0=20
attr iterationvarsf 20-
attr measurement $0=20
attr network Network
attr processid 8737
attr repetition 7
attr replication #7
attr resultdir results
attr runnumber 217
attr seedset 7
param *.minion.arrival_mean 2
param *.minion.service_mean 1
param *.boss.arrival_mean 20
param *.boss.service_mean 20
param *.player.recover_rate_x 100
param **.minion.arrival_distribution 0
param **.minion.service_distribution 0
param **.boss.arrival_distribution 0
param **.boss.service_distribution 0

vector 0 Network.player minion_defeated_stat:vector ETV
attr source signal_minion_defeated
vector 1 Network.player minion_jobs_queue_number_stat:vector ETV
attr source signal_minion_jobs_queue_number
vector 2 Network.player minion_response_time_stat:vector ETV
attr source signal_minion_response_time
vector 3 Network.player minion_waiting_time_stat:vector ETV
attr source signal_minion_waiting_time
vector 4 Network.player minion_jobs_number_stat:vector ETV
attr source signal_minion_jobs_number
vector 5 Network.player boss_jobs_number_stat:vector ETV
attr source signal_boss_jobs_number
vector 6 Network.player boss_jobs_queue_number_stat:vector ETV
attr source signal_boss_jobs_queue_number
vector 7 Network.player minion_recovered_stat:vector ETV
attr source signal_minion_recovered
vector 8 Network.player boss_waiting_time_stat:vector ETV
attr source signal_boss_waiting_time
vector 9 Network.player boss_defeated_stat:vector ETV
attr source signal_boss_defeated
vector 10 Network.player boss_response_time_stat:vector ETV
attr source signal_boss_response_time
vector 11 Network.player minion_throughput:vector ETV
attr source signal_minion_throughput
vector 12 Network.player boss_throughput:vector ETV
attr source signal_boss_throughput
0	1970 7094 394 3023 350.487072467697 2402.093851251978 251 48 298 43423 8829929
1	9064 38264 394 3169 350.487072467697 2499.569954376824 1348 105 953 666119 389759063
2	47328 10128 394 3023 350.487072467697 2402.093851251978 251 225.57434273061 1776.1969685921 209645.65619654 188354645.29447
3	57456 10648 394 3023 350.487072467697 2402.093851251978 264 224.76567481858 1775.8026234129 220034.27986562 198167818.83125
4	68104 31118 396 3169 350.506577188023 2499.569954376824 1097 106 954 558558 340269500
5	99222 2937 404 3143 354.444077836132 2480.556299264915 111 1 13 558 3850
6	102159 5832 404 3165 354.444077836132 2498.760536085379 220 0 12 893 5689
7	107991 372 404 3033 354.444077836132 2403.073108456165 14 2 15 119 1239
8	108363 4244 404 3165 354.444077836132 2498.760536085379 110 0 188.04764833649 6551.280290681 648001.50194688
9	112607 3020 453 3165 402.244838604254 2498.760536085379 109 13 121 7303 597211
10	115627 4509 453 3165 402.244838604254 2498.760536085379 109 0.601250577245 199.55192640107 8381.5412733021 907188.60522205
11	120136 20 3170 3170 2500 2500 1 0.1192 0.1192 0.1192 0.01420864
12	120156 20 3170 3170 2500 2500 1 0.0484 0.0484 0.0484 0.00234256

