version 2
run factors_calibration_bosses-62-20230303-16:36:33-7955
attr configname factors_calibration_bosses
attr datetime 20230303-16:36:33
attr experiment factors_calibration_bosses
attr inifile omnetpp.ini
attr iterationvars $0=5
attr iterationvarsf 5-
attr measurement $0=5
attr network Network
attr processid 7955
attr repetition 2
attr replication #2
attr resultdir results
attr runnumber 62
attr seedset 2
param *.minion.arrival_mean 2
param *.minion.service_mean 1
param *.boss.arrival_mean 20
param *.boss.service_mean 5
param *.player.recover_rate_x 100
param **.minion.arrival_distribution 0
param **.minion.service_distribution 0
param **.boss.arrival_distribution 0
param **.boss.service_distribution 0

vector 0 Network.player minion_jobs_number_stat:vector ETV
attr source signal_minion_jobs_number
vector 1 Network.player minion_jobs_queue_number_stat:vector ETV
attr source signal_minion_jobs_queue_number
vector 2 Network.player minion_waiting_time_stat:vector ETV
attr source signal_minion_waiting_time
vector 3 Network.player minion_defeated_stat:vector ETV
attr source signal_minion_defeated
vector 4 Network.player minion_response_time_stat:vector ETV
attr source signal_minion_response_time
vector 5 Network.player boss_jobs_number_stat:vector ETV
attr source signal_boss_jobs_number
vector 6 Network.player boss_jobs_queue_number_stat:vector ETV
attr source signal_boss_jobs_queue_number
vector 7 Network.player boss_waiting_time_stat:vector ETV
attr source signal_boss_waiting_time
vector 8 Network.player boss_defeated_stat:vector ETV
attr source signal_boss_defeated
vector 9 Network.player boss_response_time_stat:vector ETV
attr source signal_boss_response_time
vector 10 Network.player minion_recovered_stat:vector ETV
attr source signal_minion_recovered
vector 11 Network.player minion_throughput:vector ETV
attr source signal_minion_throughput
vector 12 Network.player boss_throughput:vector ETV
attr source signal_boss_throughput
0	632	351.708010124552	1
0	635	352.769541613541	1
0	637	353.478967363125	2
0	639	353.950859212746	3
0	641	354.24875201928	4
0	647	359.439445002503	1
0	650	361.457342379826	1
0	653	362.536568020038	1
0	655	362.553254195191	2
0	657	362.854232395247	3
0	662	365.962080490795	1
0	664	366.172201118935	2
0	668	367.566822339824	1
0	674	372.610773845769	1
0	677	384.30977768933	1
0	680	385.016945621714	1
0	683	393.292365701504	1
0	686	399.28854524699	1
0	689	399.803701145728	1
0	692	400.626771037502	1
0	698	404.420441632382	2
0	700	405.396943105286	3
0	703	408.748285860196	4
0	707	413.607179000517	5
0	709	414.145905756104	6
0	711	416.412112854499	7
0	714	418.551307265662	8
0	716	421.557752565119	9
0	721	429.117200060889	10
0	723	431.494001640898	11
0	725	434.124320774802	12
0	732	439.533844894007	9
0	735	439.734874700236	9
0	737	440.710943060992	10
0	741	442.099663332192	9
0	744	442.45498436228	9
0	746	443.69611682974	10
0	748	444.296367835722	11
0	750	444.297856178586	12
0	752	444.625194594925	13
0	763	453.633843275932	5
0	766	456.174960056056	5
0	770	460.376207680804	4
0	775	461.982198346533	2
0	777	462.471982923174	3
0	780	463.634031616492	3
0	782	465.49368296134	4
0	788	468.799380958768	1
0	793	470.076521370294	1
0	795	471.722315939363	2
0	797	472.612107443204	3
0	800	474.700921993051	4
0	804	476.207958597559	3
0	806	477.217554336593	4
0	809	478.881559702339	4
0	814	480.913029894077	2
0	818	484.499138585031	1
0	820	484.764683099026	2
0	822	484.894428676398	3
0	824	486.025930681005	4
0	828	487.890601325305	3
0	831	489.257871743982	3
0	835	490.65866954883	2
0	838	491.740492762202	2
0	840	492.089910835095	3
0	844	492.958923943638	2
0	846	493.273273886717	3
0	850	495.550241216146	2
0	852	497.581584314889	3
0	855	498.370925172576	3
0	860	502.66048413632	1
0	862	503.098146377165	2
0	864	503.164982427536	3
0	870	504.401957967695	3
0	873	505.519267140204	3
0	875	505.842637363705	4
0	879	510.048353687146	5
0	881	512.59496735705	6
0	883	513.889430890911	7
0	886	515.645671992878	8
0	888	516.562045171051	9
0	891	517.684802588891	9
0	895	518.235388201545	8
0	897	518.331990658204	9
0	899	518.430858128014	10
0	902	520.020352968004	10
0	906	520.405501111895	9
0	908	520.676063514664	10
0	912	522.30342092196	9
0	916	524.032214596016	8
0	918	525.542623553548	9
0	922	525.91625975539	8
0	928	527.487756659345	9
0	930	527.595509234052	10
0	932	528.306154508926	11
0	934	529.581544760563	12
0	937	533.592797625757	13
0	939	534.105697370311	14
0	943	537.859633366495	14
0	946	541.205220869077	14
0	949	542.458817848975	14
0	951	542.755618621207	15
0	954	545.539102566885	15
0	956	545.720631591873	16
0	960	548.781614041428	15
0	964	549.892475780489	14
0	968	550.810514053242	13
0	974	553.176165599622	13
0	977	553.566524771518	13
0	980	555.000308231236	13
0	982	555.583341740848	14
0	986	556.884502853748	13
0	989	557.425736052238	13
0	993	558.260964570041	12
0	997	559.255781845044	11
0	1001	564.429146918348	10
0	1003	564.443611917667	11
0	1012	569.298934675645	5
0	1014	569.958418916985	6
0	1018	572.419753771514	5
0	1022	573.960113113206	4
0	1028	578.090062054647	1
0	1030	579.190093653222	2
0	1034	580.78231665452	1
0	1037	582.300148530594	1
0	1040	589.404602994107	1
0	1043	592.099345425573	1
0	1048	595.053981113949	1
0	1050	600.407532986141	2
0	1054	602.041053008214	3
0	1056	602.830094590427	4
0	1058	605.352827597016	5
0	1060	605.983821003696	6
0	1062	606.944404912846	7
0	1064	608.237786921783	8
0	1066	609.5613356155	9
0	1068	611.442585499527	10
0	1073	613.779144971869	10
0	1075	614.193809467303	11
0	1081	617.956994539298	8
0	1083	618.013783953188	9
0	1085	618.877007649361	10
0	1088	619.333303626253	10
0	1091	622.641859849773	10
0	1093	623.204211923789	11
0	1096	623.934234605739	11
0	1099	625.080809209176	11
0	1104	627.771648008058	9
0	1108	629.765181799383	10
0	1110	630.815522335214	11
0	1112	631.532943827774	12
0	1114	638.568594795728	13
0	1116	645.987306996653	14
0	1118	648.399191079183	15
0	1125	652.497378024676	12
0	1127	652.774202539081	13
0	1133	654.713227075448	10
0	1140	660.733251470175	6
0	1143	661.557889782312	6
0	1145	662.667699980666	7
0	1147	663.039712516988	8
0	1149	664.021662460579	9
0	1153	666.17769504569	8
0	1163	676.406622539043	1
0	1167	678.920308586022	2
0	1171	680.9943132381	2
0	1174	681.131086598952	2
0	1176	681.185891193516	3
0	1180	684.1702342092	2
0	1184	686.51584825831	1
0	1187	690.905621483301	1
0	1189	691.036301896272	2
0	1193	693.03686310062	1
0	1197	694.01437164122	2
0	1199	696.444793197351	3
0	1201	696.913453296531	4
0	1204	700.895497547757	5
0	1211	705.034668496869	1
0	1214	710.975729764576	1
0	1217	713.28126053322	1
0	1220	714.148608300627	1
0	1225	718.466904291382	1
0	1227	718.588957525124	2
0	1234	721.239639279972	1
0	1237	721.984536940641	2
0	1241	726.248067400461	1
0	1243	726.622778140177	2
0	1247	729.34528042176	1
0	1250	730.282245968083	1
0	1252	730.367169372856	2
0	1254	731.769411248446	3
0	1259	736.074729833894	1
0	1264	739.200715611547	1
0	1266	739.703050335894	2
0	1271	745.796339428068	1
0	1276	747.594044137057	1
0	1278	748.278520114691	2
0	1282	752.518362198375	3
0	1284	758.592057866377	4
0	1287	761.578665786834	5
0	1289	761.985456144618	6
0	1291	762.204227802396	7
0	1293	763.364083928278	8
0	1295	763.433194631949	9
0	1297	763.836202117818	10
0	1299	765.180447169277	11
0	1301	765.784417495047	12
0	1303	767.817039000994	13
0	1305	767.851752303703	14
0	1309	770.4501442914	14
0	1312	771.015611938904	14
0	1314	772.739976433253	15
0	1316	773.717165210026	16
0	1325	779.269869795325	10
0	1328	780.64486833192	10
0	1332	781.397060959762	11
0	1334	782.120555057653	12
0	1336	782.268372859712	13
0	1338	782.294626539233	14
0	1340	782.554693296388	15
0	1344	786.743399664121	15
0	1354	795.568989552742	11
0	1358	796.107613405504	10
0	1362	797.242387880923	9
0	1365	797.736495849685	9
0	1369	800.182907934784	8
0	1371	800.191255723218	9
0	1376	801.648876763988	7
0	1378	802.251170571511	8
0	1380	803.214626045954	9
0	1383	803.857772610348	9
0	1385	804.988716802073	10
0	1392	806.692634349566	6
0	1396	807.503067467318	5
0	1401	808.972700660716	6
0	1404	810.55450700396	6
0	1407	813.765695127064	6
0	1415	821.204484402746	1
0	1418	824.217746260477	1
0	1421	827.841759372518	1
0	1427	833.162530233756	1
0	1433	835.822655617544	1
0	1436	837.31452797109	1
0	1439	837.758240698744	1
0	1442	843.223662144773	1
0	1444	843.525975381596	2
0	1451	846.915585341053	1
0	1454	847.654113752328	1
0	1457	848.073457628486	1
0	1460	849.854829735514	1
0	1463	852.246145568974	1
0	1466	853.427738306703	1
0	1469	858.357278240222	1
0	1472	860.163301486005	1
0	1475	864.830450994504	1
0	1478	866.029650889753	1
0	1481	869.986325987543	1
0	1484	870.381747350533	1
0	1487	872.467930683152	1
0	1490	874.454020059546	1
0	1495	880.893903825962	1
0	1497	889.265092351596	2
0	1499	889.840501203587	3
0	1502	891.899494852509	4
0	1507	894.290009963311	5
0	1514	895.380294467232	4
0	1517	895.644232388779	4
0	1523	898.272556695917	1
0	1526	900.446522163862	1
0	1528	901.284046280524	2
0	1532	903.757319436568	1
0	1535	906.352232859114	1
0	1538	908.581620982067	1
0	1541	909.220312180138	1
0	1544	910.599221751332	1
0	1546	910.608691591796	2
0	1548	911.668712010122	3
0	1553	914.538067174958	3
0	1555	918.568061105693	4
0	1557	919.595337712715	5
0	1562	920.864146155123	6
0	1564	922.680828316558	7
0	1566	923.445756951598	8
0	1568	924.117847777121	9
0	1570	924.214416369718	10
0	1573	928.191261048975	11
0	1578	930.343729203702	9
0	1580	930.618141156996	10
0	1583	933.43577609549	10
0	1585	933.472669286054	11
0	1590	934.874516138298	11
0	1595	939.991764678769	12
0	1598	942.606486493536	13
0	1601	943.653138248914	13
0	1606	945.69471205703	11
0	1608	949.105938953013	12
0	1614	950.500987373977	9
0	1628	957.50604040359	1
0	1631	957.923270649807	1
0	1635	962.206559693749	2
0	1637	963.09043922365	3
0	1639	964.643291828203	4
0	1643	967.259902873048	4
0	1649	971.675843183991	1
0	1652	974.452951054075	1
0	1656	976.945818916984	2
0	1658	977.055000140387	3
0	1660	977.69144197034	4
0	1662	978.809149591378	5
0	1666	980.975889802406	5
0	1670	982.854345425198	4
0	1672	984.374867388465	5
0	1678	987.010500981219	2
0	1682	994.848940772948	1
0	1685	995.867819304922	1
0	1688	998.073199501055	1
0	1691	999.645584694439	1
0	1694	1001.877887225723	1
0	1697	1002.829269022293	1
0	1700	1004.476249894396	1
0	1703	1005.307528272871	1
0	1707	1005.744303919542	2
0	1711	1006.53401755819	2
0	1714	1006.904684278527	2
0	1718	1010.34125181889	1
0	1721	1017.698396342765	1
0	1723	1017.859441232741	2
0	1725	1018.327146210581	3
0	1727	1018.401233578576	4
0	1731	1019.908612674232	3
0	1736	1022.219411202822	1
0	1738	1022.303200626138	2
0	1740	1023.205152556918	3
0	1745	1028.544689834517	1
0	1748	1034.183894241219	1
0	1751	1035.458062994569	1
0	1754	1035.83197070959	1
0	1756	1036.084484309307	2
0	1759	1037.145405357616	2
0	1765	1038.89546757618	3
0	1767	1039.912353048703	4
0	1770	1043.934897050035	5
0	1772	1045.363938827792	6
0	1776	1046.184702626492	6
0	1778	1046.526064055875	7
0	1780	1046.733668816201	8
0	1790	1054.843864042092	3
0	1792	1055.637236690431	4
0	1794	1057.640675632498	5
0	1797	1063.046366626047	6
0	1802	1068.355447985474	4
0	1805	1069.282628776193	4
0	1810	1071.32429578173	2
0	1814	1072.1423590295	1
0	1818	1074.16300219891	2
0	1820	1074.915264754877	3
0	1823	1076.752847569322	4
0	1829	1087.489031054175	1
0	1831	1088.054329168133	2
0	1833	1088.364148810799	3
0	1837	1089.039799530467	2
0	1841	1090.136045745881	1
0	1843	1090.501087492962	2
0	1845	1091.883014801598	3
0	1848	1094.341731478667	3
0	1850	1094.853625355097	4
0	1856	1098.73142991353	1
0	1858	1100.054326485509	2
0	1860	1100.549829042645	3
0	1863	1102.682146118762	3
0	1865	1102.810334404435	4
0	1867	1102.961397428955	5
0	1869	1103.994610191319	6
0	1873	1106.262361855444	5
0	1880	1113.008190106719	1
0	1883	1114.457327977673	1
0	1886	1114.769765037731	1
0	1889	1116.755010989851	1
0	1892	1118.376504046594	1
0	1897	1120.903639998311	1
0	1899	1123.901171352329	2
0	1901	1125.192678626831	3
0	1903	1125.626279599382	4
0	1908	1127.820707873665	3
0	1912	1128.678402093	4
0	1914	1129.656094040684	5
0	1916	1130.159883489957	6
0	1918	1132.027416328319	7
0	1920	1133.285615446978	8
0	1922	1133.726127930948	9
0	1926	1139.197111362838	10
0	1929	1142.617057636978	11
0	1932	1144.612163223878	12
0	1936	1145.76283951262	11
0	1938	1145.997108667984	12
0	1941	1146.533788586277	12
0	1946	1147.373239431035	10
0	1961	1154.501594489926	3
0	1963	1156.934716593592	4
0	1966	1161.288670053955	5
0	1976	1171.705048162296	3
0	1978	1178.881469970038	4
0	1980	1179.780308689348	5
0	1984	1180.733516324886	6
0	1986	1182.197106188803	7
0	1993	1185.899339561017	8
0	1995	1186.406107642895	9
0	1998	1193.075845977143	10
0	2000	1193.92964238306	11
0	2002	1194.394826091362	12
0	2004	1194.680072038553	13
0	2006	1195.000569336208	14
0	2008	1195.408310708759	15
0	2010	1203.180445312219	16
0	2012	1203.890687088977	17
0	2014	1204.94807370156	18
0	2016	1205.047676303315	19
0	2018	1208.45267916999	20
0	2021	1209.103582156227	21
0	2023	1210.50660897735	22
0	2025	1210.680143680488	23
0	2027	1214.709881945022	24
0	2030	1214.769042002665	25
0	2035	1217.772672004627	23
0	2045	1224.456035258227	19
0	2048	1225.241134630901	19
0	2050	1226.031364003059	20
0	2052	1226.108348289642	21
0	2056	1228.441097130953	20
0	2059	1230.96868068984	20
0	2061	1231.624898326043	21
0	2063	1232.421708194207	22
0	2066	1233.582343005423	22
0	2069	1233.837733243852	22
0	2076	1237.259376371918	18
0	2078	1237.501406732835	19
0	2084	1240.655999414407	16
0	2088	1241.875718725623	15
0	2091	1243.368931633948	15
0	2093	1243.672061121122	16
0	2098	1244.545451193259	14
0	2108	1255.121407240182	7
0	2110	1255.908098465868	8
0	2118	1259.933441820375	7
0	2123	1264.225859842412	7
0	2128	1266.945322842049	5
0	2131	1267.182788707546	5
0	2135	1269.04981565119	4
0	2141	1270.014980483904	1
0	2146	1274.544962691249	2
0	2148	1274.628190153793	3
0	2151	1275.364711269898	3
0	2155	1277.375912538285	2
0	2159	1279.670936004155	1
0	2162	1285.371798375259	1
0	2164	1286.413744617043	2
0	2168	1288.096577073877	1
0	2170	1288.884796358998	2
0	2172	1289.787476347646	3
0	2178	1295.156611241135	4
0	2180	1295.907172523529	5
0	2182	1297.408581279147	6
0	2185	1299.837138768705	7
0	2189	1300.895038406078	7
0	2191	1301.214239557997	8
0	2194	1302.508362524381	8
0	2201	1305.06218748527	4
0	2203	1305.803684355838	5
0	2206	1306.159432552071	5
0	2212	1310.349578398736	5
0	2215	1311.004816111792	5
0	2218	1311.873656618246	5
0	2225	1319.037593084207	1
0	2228	1320.237711342364	1
0	2231	1321.042144973848	1
0	2234	1321.780245022168	1
0	2237	1328.275551319122	1
0	2240	1330.037571360836	1
0	2243	1334.626856599253	1
0	2248	1335.399995007877	2
0	2251	1335.818721899634	2
0	2254	1338.800671591291	2
0	2257	1338.872253391963	2
0	2259	1341.847302203474	3
0	2263	1342.78430416232	2
0	2267	1344.434968163674	1
0	2270	1346.79486533799	1
0	2273	1347.064934544188	1
0	2276	1353.076183628924	1
0	2279	1356.920882519661	1
0	2282	1357.806755111901	1
0	2285	1360.732142308585	1
0	2287	1361.65184375846	2
0	2291	1362.820537013237	1
0	2293	1363.119066831962	2
0	2297	1367.473835354733	1
0	2302	1370.299215215072	1
0	2308	1375.131520924388	2
0	2314	1376.394957523879	1
0	2316	1376.623121349583	2
0	2321	1377.937045801706	1
0	2324	1378.172438554064	1
0	2327	1378.588590014367	1
0	2330	1379.652875519686	1
0	2332	1379.764793668211	2
0	2335	1382.438440955182	2
0	2338	1384.758559887524	2
0	2342	1390.813939332308	1
0	2345	1392.133451519084	1
0	2348	1394.260351700845	1
0	2351	1397.773341609408	1
0	2354	1402.101231972216	1
0	2356	1402.157570203784	2
0	2360	1403.695615372882	1
0	2365	1407.270681644517	1
0	2367	1407.425559364975	2
0	2370	1411.083470752467	3
0	2375	1417.924943851294	1
0	2377	1418.57449633909	2
0	2381	1419.520270713801	1
0	2383	1420.322486430878	2
0	2386	1420.498069199291	2
0	2390	1423.08658689711	1
0	2393	1427.231433163357	1
0	2396	1429.911153973785	1
0	2398	1431.225627258379	2
0	2401	1434.391796045752	2
0	2405	1438.65191713681	1
0	2408	1438.82735647103	1
0	2411	1442.59271033007	1
0	2413	1443.811121454948	2
0	2417	1444.619330009297	3
0	2422	1448.423980876288	2
0	2425	1448.803673765259	2
0	2429	1457.860480221174	1
0	2432	1461.216365247832	1
0	2435	1463.788422989704	1
0	2437	1464.451773359335	2
0	2439	1467.754286832687	3
0	2441	1467.774211863277	4
0	2443	1468.012534122867	5
0	2448	1469.880190657117	3
0	2453	1477.693650495553	1
0	2455	1477.862248815799	2
0	2458	1478.649587127076	2
0	2464	1482.84893597097	2
0	2466	1483.241245131492	3
0	2469	1486.420428945437	3
0	2473	1488.63906000145	2
0	2479	1491.00851493958	2
0	2481	1491.021749119233	3
0	2483	1492.662651348915	4
0	2488	1493.758243351452	2
0	2495	1497.767162479348	1
0	2498	1500.151423892719	1
0	2501	1501.143932701823	1
0	2503	1501.153051617604	2
0	2507	1504.108365577555	1
0	2510	1504.89178642092	1
0	2512	1505.018247523998	2
0	2514	1505.326053815666	3
0	2519	1513.316412852397	1
0	2521	1513.571088216766	2
0	2523	1514.939974514613	3
0	2528	1520.543784777218	1
0	2533	1524.585762724797	1
0	2535	1524.740554455978	2
0	2537	1525.236554060043	3
0	2541	1526.523837643677	3
0	2543	1526.543748807293	4
0	2545	1527.364350379313	5
0	2549	1529.684179171167	4
0	2555	1535.085835391615	1
0	2557	1535.505021106585	2
0	2561	1537.252622423768	1
0	2563	1538.108840226498	2
0	2566	1540.385915249717	2
0	2572	1545.366893731705	1
0	2574	1546.607911715088	2
0	2576	1547.699765276856	3
0	2580	1549.892033417297	4
0	2583	1555.839541050058	5
0	2585	1555.972401192107	6
0	2587	1557.526567667314	7
0	2589	1559.015189862148	8
0	2591	1559.04590313945	9
0	2593	1563.109502593219	10
0	2598	1564.051085125306	9
0	2602	1565.556471156342	8
0	2608	1570.274646103795	5
0	2610	1571.30115726616	6
0	2612	1571.336884764578	7
0	2614	1571.52543148778	8
0	2618	1572.493124073727	7
0	2621	1574.608697285813	7
0	2623	1575.45131480806	8
0	2625	1577.756758984453	9
0	2628	1578.987348681997	9
0	2630	1581.384584358844	10
0	2633	1582.136204372116	10
0	2637	1582.702358627326	9
0	2640	1584.78660884464	9
0	2642	1585.834343121088	10
0	2647	1588.651396363243	8
0	2651	1589.94843228214	7
0	2655	1591.078463429699	8
0	2657	1591.742196173994	9
0	2659	1595.512100184494	10
0	2662	1596.50661225901	11
0	2674	1604.598108807078	2
0	2676	1604.71636852506	3
0	2681	1608.64974285651	1
0	2684	1610.033557391936	1
0	2687	1614.810665952502	1
0	2690	1615.89212156609	1
0	2692	1616.466634548442	2
0	2694	1617.496484429879	3
0	2696	1618.572986654394	4
0	2698	1619.002095031143	5
0	2700	1619.769973077032	6
0	2705	1621.147513034664	4
0	2707	1622.103394484181	5
0	2711	1624.191728082342	4
0	2713	1626.194891760476	5
0	2717	1628.200292943742	4
0	2723	1632.166890415194	1
0	2727	1636.020266602979	2
0	2729	1637.067745491449	3
0	2731	1637.10588584046	4
0	2733	1640.4464480228	5
0	2735	1640.895615897315	6
0	2737	1642.700388769225	7
0	2739	1644.461165482193	8
0	2742	1646.086132048562	9
0	2746	1651.37986674778	8
0	2748	1651.384718069572	9
0	2754	1655.420644754658	6
0	2758	1657.616306969379	5
0	2760	1658.814235814203	6
0	2765	1660.920149779062	4
0	2771	1670.153886101364	1
0	2774	1673.474700598956	1
0	2776	1673.783081694761	2
0	2779	1674.87612375819	2
0	2781	1675.62669056607	3
0	2784	1675.945448615932	3
0	2786	1675.947305068116	4
0	2791	1677.306249409098	2
0	2794	1678.228275710039	2
0	2796	1678.418106968758	3
0	2799	1678.948193475066	3
0	2801	1680.62493544749	4
0	2803	1681.226660867959	5
0	2806	1682.900341848298	5
0	2813	1689.547329397039	1
0	2816	1691.424700621982	1
0	2819	1692.274886681706	1
0	2822	1696.487282487925	1
0	2824	1696.496955320948	2
0	2826	1699.084744259079	3
0	2831	1701.183104869208	1
0	2834	1703.702633941495	1
0	2837	1709.375660464834	1
0	2840	1711.073699156385	1
0	2843	1712.484156112395	1
0	2845	1712.735874573822	2
0	2848	1714.984741449449	2
0	2852	1717.891175565134	3
0	2856	1725.606036468904	4
0	2858	1728.803873814572	5
0	2860	1729.921551494518	6
0	2865	1737.465928355937	7
0	2869	1740.378967622489	8
0	2871	1740.993283734269	9
0	2873	1741.139340336858	10
0	2875	1741.593723153239	11
0	2877	1743.504854770616	12
0	2879	1743.656708701933	13
0	2881	1744.629840160178	14
0	2883	1744.809852470361	15
0	2887	1749.336250793573	16
0	2889	1750.130528653825	17
0	2891	1750.87170349726	18
0	2897	1755.565455454534	16
0	2899	1756.197147187313	17
0	2901	1756.581798755286	18
0	2904	1757.483902514218	18
0	2906	1757.702293138669	19
0	2908	1757.765426442705	20
0	2913	1759.97919016083	18
0	2917	1760.834197759858	17
0	2920	1762.050035302761	17
0	2922	1762.497491345931	18
0	2924	1762.550197072761	19
0	2928	1765.933458378556	18
0	2930	1766.553760006776	19
0	2932	1766.766966143646	20
0	2934	1769.183781831659	21
0	2936	1769.247786458431	22
0	2938	1770.869364803953	23
0	2941	1772.280869808882	23
0	2945	1776.361923497534	22
0	2951	1778.224537055899	19
0	2956	1779.102705108977	17
0	2958	1780.416562793548	18
0	2962	1781.529272112536	19
0	2964	1781.831541424408	20
0	2966	1783.136004200262	21
0	2968	1784.659994405781	22
0	2970	1785.293166120718	23
0	2972	1788.565955226697	24
0	2974	1789.151685921691	25
0	2980	1792.960089011478	25
0	2985	1797.438459346951	24
0	2994	1801.864261701239	23
0	3000	1803.743541038276	23
0	3002	1806.842737054364	24
0	3004	1807.413183623703	25
0	3010	1813.178772179253	23
0	3013	1814.428596640357	23
0	3017	1815.21784393294	22
0	3021	1816.881137908995	21
0	3023	1817.267149467547	22
0	3035	1826.466108968639	13
0	3039	1829.030596128261	12
0	3041	1829.419372924974	13
0	3045	1831.328571050586	12
0	3051	1833.275365755111	9
0	3053	1833.312359269645	10
0	3056	1833.611682483916	10
0	3065	1837.866053028068	6
0	3068	1840.78605675741	7
0	3072	1843.400042410764	6
0	3074	1843.546058016823	7
0	3077	1844.494533679918	7
0	3085	1848.497636789784	2
0	3088	1850.565525021316	2
0	3090	1852.986243775919	3
0	3092	1854.169626571744	4
0	3094	1856.258994878115	5
0	3096	1856.642643113614	6
0	3101	1859.949240073793	4
0	3103	1861.093380057332	5
0	3105	1861.792536269458	6
0	3108	1862.856475798069	6
0	3110	1864.609214526149	7
0	3112	1864.645943168143	8
0	3114	1866.343520905902	9
0	3116	1866.34587921289	10
0	3123	1870.055105778488	6
0	3129	1872.836572897925	3
0	3134	1874.30707250339	3
0	3138	1877.24647233042	3
0	3140	1877.329893218892	4
0	3144	1879.671065337536	5
0	3151	1884.490923282361	2
0	3155	1884.903518418716	1
0	3158	1885.685162776192	1
0	3161	1887.958621293472	1
0	3164	1890.387534230096	1
0	3166	1890.452234536624	2
0	3170	1893.935655325884	1
0	3173	1898.207659219821	1
0	3177	1901.047288368037	2
0	3179	1901.101147164268	3
0	3181	1903.406666761934	4
0	3183	1905.200005298397	5
0	3185	1905.71579449669	6
0	3187	1905.789170608503	7
0	3189	1906.789429018053	8
0	3193	1908.71471892932	9
0	3195	1911.51764337888	10
0	3197	1911.5637232218	11
0	3200	1921.650201445962	12
0	3202	1923.859669699322	13
0	3208	1927.889807436792	13
0	3210	1929.614542346458	14
0	3212	1930.615678481628	15
0	3214	1931.910270260984	16
0	3217	1934.412286883518	17
0	3219	1935.114519072026	18
0	3222	1935.451652819101	18
0	3227	1936.681563056088	16
0	3231	1937.571721677726	15
0	3238	1941.021386045548	11
0	3244	1942.521170502774	8
0	3246	1943.450900183677	9
0	3255	1949.260639519239	3
0	3257	1949.595559021651	4
0	3262	1951.57024535829	2
0	3266	1953.868484266766	1
0	3269	1956.482518597606	1
0	3272	1958.326656384022	1
0	3274	1962.076146865515	2
0	3278	1963.658455236127	1
0	3280	1963.662812075595	2
0	3284	1965.042613628784	1
0	3286	1965.288285058409	2
0	3288	1965.740436956723	3
0	3290	1965.888178991435	4
0	3293	1968.748243175979	4
0	3297	1970.842607842277	3
0	3299	1972.965349668999	4
0	3305	1983.447410326758	1
0	3311	1987.568086450712	1
0	3314	1990.738774455123	1
0	3317	1992.663852215296	1
0	3320	1994.255917166466	1
0	3325	1996.462799914173	1
0	3327	1999.50340944663	2
0	3329	2000.441653687836	3
0	3331	2001.396317209327	4
0	3333	2002.283176531856	5
0	3335	2002.385363808984	6
0	3337	2003.538634705028	7
0	3339	2004.696831361618	8
0	3341	2006.224486692526	9
0	3343	2008.17140053702	10
0	3345	2019.859738448556	11
0	3347	2021.293343391036	12
0	3351	2022.07694949548	12
0	3353	2023.397628419887	13
0	3356	2023.795471169016	13
0	3358	2024.224854861403	14
0	3360	2024.517674904937	15
0	3362	2025.626132138699	16
0	3368	2028.63306480701	13
0	3370	2028.818761618093	14
0	3373	2029.065176400383	14
0	3378	2034.160360450979	12
0	3380	2034.355331704649	13
0	3390	2042.475366152032	6
0	3398	2053.873171268505	1
0	3401	2056.172131748079	1
0	3404	2060.781963288394	1
0	3407	2062.682513951472	1
0	3410	2065.810701103624	1
0	3413	2068.568071880724	1
0	3415	2069.135804979859	2
0	3419	2072.331664985976	1
0	3421	2072.743075264632	2
0	3423	2072.777780876878	3
0	3426	2075.043629485579	3
0	3428	2075.5680006366	4
0	3430	2075.686712879844	5
0	3437	2079.340090431879	1
0	3440	2080.615146532785	1
0	3442	2082.791648884974	2
0	3449	2087.787601899644	1
0	3452	2088.281600805324	1
0	3455	2090.23966014268	1
0	3457	2090.63995032272	2
0	3459	2091.505391287354	3
0	3463	2092.300058373604	2
0	3469	2096.07236128109	2
0	3472	2097.448330895495	2
0	3474	2097.666280331242	3
0	3476	2097.690097263113	4
0	3480	2099.725029452048	3
0	3483	2101.313000144738	3
0	3488	2103.337720686053	1
0	3493	2105.491359158435	1
0	3495	2109.872449897907	2
0	3500	2113.810052753544	1
0	3503	2118.180190714784	1
0	3508	2124.680073415606	1
0	3510	2125.200507096268	2
0	3512	2126.692948359228	3
0	3514	2127.765482418307	4
0	3516	2129.917232540312	5
0	3519	2130.77383945795	6
0	3521	2131.347668875543	7
0	3525	2134.945016277708	6
0	3527	2135.115745535964	7
0	3529	2136.499555549846	8
0	3531	2136.601924803367	9
0	3535	2139.112563392294	8
0	3539	2139.726529637103	7
0	3541	2139.958082758444	8
0	3549	2144.89972596021	3
0	3551	2145.726390364178	4
0	3554	2147.044423731756	4
0	3559	2149.989066463902	2
0	3561	2150.660847536433	3
0	3563	2150.66968828241	4
0	3567	2152.255552001207	3
0	3570	2152.996176910997	3
0	3575	2157.347940858961	1
0	3579	2157.636943331284	2
0	3581	2157.669099068943	3
0	3584	2160.444141477364	4
0	3591	2164.864392824494	3
0	3593	2164.986066386564	4
0	3598	2165.536364322882	2
0	3600	2165.840534096805	3
0	3606	2169.214006432723	2
0	3610	2170.646739844785	3
0	3613	2172.873852262097	4
0	3615	2175.065065763267	5
0	3617	2177.214718777533	6
0	3619	2177.819102029028	7
0	3621	2180.699710948316	8
0	3623	2183.815532181473	9
0	3625	2186.394014824343	10
0	3631	2191.925995676637	10
0	3634	2195.160008904471	11
0	3639	2198.353665444075	9
0	3643	2199.615898498073	10
0	3645	2199.8073242975	11
0	3652	2202.696935827933	8
0	3654	2205.192445406194	9
0	3656	2205.665169251684	10
0	3658	2206.499209816717	11
0	3660	2207.231738431738	12
0	3664	2209.398438538451	11
0	3666	2209.544853232157	12
0	3670	2211.00613079802	11
0	3676	2213.462712923391	8
0	3680	2215.830546538697	7
0	3684	2216.11246914546	6
0	3688	2216.546365313856	5
0	3690	2217.125267085794	6
0	3695	2220.113402875843	4
0	3697	2220.276830623382	5
0	3701	2223.320601470618	4
0	3707	2225.495811333429	1
0	3710	2230.035103798795	1
0	3713	2233.959475037839	1
0	3716	2241.866343898221	1
0	3721	2245.634001898801	1
0	3723	2246.982441579311	2
0	3725	2247.573421856398	3
0	3727	2248.817536228379	4
0	3729	2249.006779674678	5
0	3731	2250.323369286618	6
0	3733	2250.855146124179	7
0	3735	2251.51229568324	8
0	3748	2266.926586008797	1
0	3750	2268.796692842809	2
0	3755	2274.475449500018	1
0	3758	2277.924734281231	1
0	3760	2280.113457259286	2
0	3762	2280.131006513275	3
0	3766	2281.223902676127	4
0	3768	2281.786991142651	5
0	3770	2282.817905420978	6
0	3775	2284.653955565043	5
0	3777	2285.596467541239	6
0	3782	2287.531899965285	4
0	3787	2288.84921095812	2
0	3791	2290.127639009795	1
0	3795	2290.785303274407	2
0	3797	2292.183139474924	3
0	3799	2292.345191033125	4
0	3801	2295.132088304073	5
0	3805	2296.849947925114	5
0	3811	2300.326757145279	2
0	3815	2304.203726708398	1
0	3817	2304.970585536966	2
0	3819	2305.727046936265	3
0	3822	2307.310593769305	3
0	3830	2309.055356026307	4
0	3832	2310.179259672131	5
0	3836	2312.99174329371	6
0	3838	2313.40489100627	7
0	3840	2314.169880724864	8
0	3842	2314.842071533875	9
0	3844	2314.983898803753	10
0	3851	2325.276165550035	9
0	3854	2326.033505697916	10
0	3858	2326.846618314973	9
0	3860	2326.858862318024	10
0	3862	2326.966684863354	11
0	3864	2327.015212984852	12
0	3866	2328.659145332549	13
0	3871	2331.619243528927	11
0	3877	2334.622541134977	10
0	3879	2335.653168350419	11
0	3881	2336.28714046642	12
0	3891	2341.184197308139	13
0	3893	2341.333378494346	14
0	3898	2350.420326779699	15
0	3901	2351.700724440067	16
0	3905	2353.617823242395	17
0	3907	2357.716564667396	18
0	3909	2357.843561261819	19
0	3915	2360.537632950045	20
0	3917	2361.499850651742	21
0	3919	2362.376932593857	22
0	3921	2362.484837266887	23
0	3926	2366.948884828702	22
0	3928	2367.181103033415	23
0	3933	2370.02543995655	21
0	3937	2373.622674166668	20
0	3939	2374.404563876107	21
0	3945	2376.346765732543	18
0	3949	2381.084268990258	17
0	3954	2386.026477790384	18
0	3957	2387.172313864772	18
0	3959	2387.29985190887	19
0	3961	2388.214933478755	20
0	3965	2389.264383320038	19
0	3968	2390.035487370644	19
0	3972	2392.55634855866	18
0	3983	2397.367518521628	10
0	3985	2397.514843542365	11
0	3991	2400.330305857934	8
0	3993	2400.555793962101	9
0	3999	2403.59392448413	6
0	4003	2404.478635984164	5
0	4009	2406.527484044502	2
0	4015	2412.207326668653	1
0	4017	2414.860220577639	2
0	4023	2418.207533363532	3
0	4025	2418.22896503933	4
0	4027	2420.142922605256	5
0	4029	2421.262074810968	6
0	4033	2422.227699045296	7
0	4035	2425.300741704561	8
0	4037	2425.563282451096	9
0	4041	2430.561702077028	10
0	4043	2430.92789589461	11
0	4045	2432.406199402749	12
0	4051	2434.539455771874	13
0	4053	2436.872596590171	14
0	4055	2437.127132392135	15
0	4061	2443.197533304035	15
0	4063	2443.649120092702	16
0	4065	2445.281662497737	17
0	4067	2445.464163384999	18
0	4069	2447.265982944605	19
0	4071	2447.759765606452	20
0	4073	2448.899313289265	21
0	4076	2450.184910261108	22
0	4080	2450.886240960121	23
0	4082	2451.647193513953	24
0	4084	2454.039667978688	25
0	4088	2456.433143097215	26
0	4090	2457.687880044008	27
0	4092	2462.413332887188	28
0	4094	2462.489955074098	29
0	4096	2464.064443131203	30
0	4098	2464.598644269654	31
0	4100	2465.04613023064	32
0	4111	2472.280025167662	26
0	4113	2473.454370401263	27
0	4119	2476.148274939346	26
0	4125	2478.469080962472	26
0	4128	2480.188969876309	27
0	4130	2481.056226833994	28
0	4132	2481.722349283328	29
0	4136	2483.035221787212	28
0	4139	2483.204511960064	28
0	4149	2487.127824448786	23
0	4151	2489.292946878675	24
0	4154	2491.911843637405	25
0	4156	2492.738608480593	26
0	4159	2492.903033175565	26
0	4162	2497.114566617754	26
0	4164	2497.210858022987	27
1	632	351.708010124552	0
1	633	352.707931639702	0
1	635	352.769541613541	0
1	637	353.478967363125	1
1	639	353.950859212746	2
1	641	354.24875201928	3
1	642	354.443424316993	3
1	643	354.482133151878	2
1	644	354.512462614171	1
1	645	355.205825653896	0
1	647	359.439445002503	0
1	648	361.25037313044	0
1	650	361.457342379826	0
1	651	361.544582983858	0
1	653	362.536568020038	0
1	655	362.553254195191	1
1	657	362.854232395247	2
1	658	362.974232028897	2
1	659	364.541176851692	1
1	660	365.438549670694	0
1	662	365.962080490795	0
1	664	366.172201118935	1
1	665	367.381046928379	1
1	666	367.38835935612	0
1	668	367.566822339824	0
1	669	367.871004077814	0
1	674	372.610773845769	0
1	675	374.27897787314	0
1	677	384.30977768933	0
1	678	384.416092647771	0
1	680	385.016945621714	0
1	681	387.819924249307	0
1	683	393.292365701504	0
1	684	395.783604849745	0
1	686	399.28854524699	0
1	687	399.461738575724	0
1	689	399.803701145728	0
1	690	400.532393092189	0
1	692	400.626771037502	0
1	698	404.420441632382	1
1	700	405.396943105286	2
1	703	408.748285860196	3
1	707	413.607179000517	4
1	709	414.145905756104	5
1	711	416.412112854499	6
1	714	418.551307265662	7
1	716	421.557752565119	8
1	721	429.117200060889	9
1	723	431.494001640898	10
1	725	434.124320774802	11
1	727	435.38102457438	11
1	728	437.686609936436	10
1	729	437.806005276759	9
1	730	437.877441366401	8
1	732	439.533844894007	8
1	733	439.720332971554	8
1	735	439.734874700236	8
1	737	440.710943060992	9
1	738	441.035044597383	9
1	739	441.824867315133	8
1	741	442.099663332192	8
1	742	442.432409026034	8
1	744	442.45498436228	8
1	746	443.69611682974	9
1	748	444.296367835722	10
1	750	444.297856178586	11
1	752	444.625194594925	12
1	753	445.081136317525	12
1	754	445.383616108758	11
1	755	446.812335009534	10
1	756	447.669945394444	9
1	757	448.965323426967	8
1	758	449.341986241741	7
1	759	450.995429098396	6
1	760	452.563836325718	5
1	761	453.016383356698	4
1	763	453.633843275932	4
1	764	453.695806576874	4
1	766	456.174960056056	4
1	767	456.245993418123	4
1	768	459.602930317256	3
1	770	460.376207680804	3
1	771	460.389541573446	3
1	772	461.124160844971	2
1	773	461.166723965542	1
1	775	461.982198346533	1
1	777	462.471982923174	2
1	778	463.499990864196	2
1	780	463.634031616492	2
1	782	465.49368296134	3
1	783	465.641976497384	3
1	784	465.929398021277	2
1	785	466.768915931195	1
1	786	467.505988465767	0
1	788	468.799380958768	0
1	789	468.813678334018	0
1	793	470.076521370294	0
1	795	471.722315939363	1
1	797	472.612107443204	2
1	800	474.700921993051	3
1	801	474.93655940433	3
1	802	475.78149205694	2
1	804	476.207958597559	2
1	806	477.217554336593	3
1	807	477.458521015823	3
1	809	478.881559702339	3
1	810	479.322485994701	3
1	811	479.398497249114	2
1	812	479.477899161237	1
1	814	480.913029894077	1
1	815	481.287050975351	1
1	816	482.790571723427	0
1	818	484.499138585031	0
1	820	484.764683099026	1
1	822	484.894428676398	2
1	824	486.025930681005	3
1	825	486.129982122912	3
1	826	487.54542914258	2
1	828	487.890601325305	2
1	829	488.066846106193	2
1	831	489.257871743982	2
1	832	489.738005890556	2
1	833	489.775138085783	1
1	835	490.65866954883	1
1	836	491.09401716059	1
1	838	491.740492762202	1
1	840	492.089910835095	2
1	841	492.551825182831	2
1	842	492.586254885312	1
1	844	492.958923943638	1
1	846	493.273273886717	2
1	847	493.72234341457	2
1	848	495.291842437666	1
1	850	495.550241216146	1
1	852	497.581584314889	2
1	853	497.8042710318	2
1	855	498.370925172576	2
1	856	498.661058896795	2
1	857	499.482461410728	1
1	858	500.143428442234	0
1	860	502.66048413632	0
1	862	503.098146377165	1
1	864	503.164982427536	2
1	868	504.321150903757	2
1	870	504.401957967695	2
1	871	504.689875798867	2
1	873	505.519267140204	2
1	875	505.842637363705	3
1	879	510.048353687146	4
1	881	512.59496735705	5
1	883	513.889430890911	6
1	886	515.645671992878	7
1	888	516.562045171051	8
1	889	517.424868362463	8
1	891	517.684802588891	8
1	892	517.838703347404	8
1	893	518.186842783723	7
1	895	518.235388201545	7
1	897	518.331990658204	8
1	899	518.430858128014	9
1	900	518.751229667121	9
1	902	520.020352968004	9
1	903	520.063834304317	9
1	904	520.248883114726	8
1	906	520.405501111895	8
1	908	520.676063514664	9
1	909	521.457432742757	9
1	910	521.76134862065	8
1	912	522.30342092196	8
1	913	523.053602417247	8
1	914	523.410474312796	7
1	916	524.032214596016	7
1	918	525.542623553548	8
1	919	525.654250492603	8
1	920	525.727620301841	7
1	922	525.91625975539	7
1	928	527.487756659345	8
1	930	527.595509234052	9
1	932	528.306154508926	10
1	934	529.581544760563	11
1	937	533.592797625757	12
1	939	534.105697370311	13
1	941	537.590178022775	13
1	943	537.859633366495	13
1	944	538.736362436604	13
1	946	541.205220869077	13
1	947	541.988584466255	13
1	949	542.458817848975	13
1	951	542.755618621207	14
1	952	543.84083842892	14
1	954	545.539102566885	14
1	956	545.720631591873	15
1	957	547.693146471335	15
1	958	548.72911922435	14
1	960	548.781614041428	14
1	961	549.040626223917	14
1	962	549.593292596163	13
1	964	549.892475780489	13
1	965	549.953830548703	13
1	966	549.987147600841	12
1	968	550.810514053242	12
1	969	551.751960604247	12
1	974	553.176165599622	12
1	975	553.263927515891	12
1	977	553.566524771518	12
1	978	554.423268843332	12
1	980	555.000308231236	12
1	982	555.583341740848	13
1	983	555.63992404266	13
1	984	556.617335974599	12
1	986	556.884502853748	12
1	987	557.384965872748	12
1	989	557.425736052238	12
1	990	557.545075701407	12
1	991	558.024418029372	11
1	993	558.260964570041	11
1	994	558.547314238766	11
1	995	558.744081149917	10
1	997	559.255781845044	10
1	998	559.318685578726	10
1	999	561.488766378168	9
1	1001	564.429146918348	9
1	1003	564.443611917667	10
1	1004	564.834862347774	10
1	1005	565.246747255974	9
1	1006	565.330382693743	8
1	1007	565.559834717329	7
1	1008	567.18737879739	6
1	1009	567.798152680287	5
1	1010	568.948491030864	4
1	1012	569.298934675645	4
1	1014	569.958418916985	5
1	1015	570.492665705664	5
1	1016	571.112581829353	4
1	1018	572.419753771514	4
1	1019	572.472411468867	4
1	1020	573.563202350878	3
1	1022	573.960113113206	3
1	1023	574.462619794167	3
1	1024	574.794833876418	2
1	1025	575.503249915892	1
1	1026	577.48067489045	0
1	1028	578.090062054647	0
1	1030	579.190093653222	1
1	1031	579.67037115077	1
1	1032	579.866969602709	0
1	1034	580.78231665452	0
1	1035	581.448572898165	0
1	1037	582.300148530594	0
1	1038	583.16696072331	0
1	1040	589.404602994107	0
1	1041	589.407250189008	0
1	1043	592.099345425573	0
1	1044	592.722284653328	0
1	1048	595.053981113949	0
1	1050	600.407532986141	1
1	1054	602.041053008214	2
1	1056	602.830094590427	3
1	1058	605.352827597016	4
1	1060	605.983821003696	5
1	1062	606.944404912846	6
1	1064	608.237786921783	7
1	1066	609.5613356155	8
1	1068	611.442585499527	9
1	1071	613.632320854376	9
1	1073	613.779144971869	9
1	1075	614.193809467303	10
1	1076	614.750794567022	10
1	1077	614.773326875983	9
1	1078	615.419828006151	8
1	1079	616.146154411705	7
1	1081	617.956994539298	7
1	1083	618.013783953188	8
1	1085	618.877007649361	9
1	1086	619.193414737546	9
1	1088	619.333303626253	9
1	1089	621.702533735779	9
1	1091	622.641859849773	9
1	1093	623.204211923789	10
1	1094	623.621610539623	10
1	1096	623.934234605739	10
1	1097	624.42709156746	10
1	1099	625.080809209176	10
1	1100	626.714858043073	10
1	1101	627.153830361487	9
1	1102	627.179732033081	8
1	1104	627.771648008058	8
1	1108	629.765181799383	9
1	1110	630.815522335214	10
1	1112	631.532943827774	11
1	1114	638.568594795728	12
1	1116	645.987306996653	13
1	1118	648.399191079183	14
1	1120	650.323422883237	14
1	1121	651.094652091131	13
1	1122	651.742631192582	12
1	1123	651.970419329672	11
1	1125	652.497378024676	11
1	1127	652.774202539081	12
1	1128	653.297395693462	12
1	1129	653.536651597387	11
1	1130	653.977188822659	10
1	1131	654.693447734677	9
1	1133	654.713227075448	9
1	1134	657.703395488654	9
1	1135	658.534549519359	8
1	1136	658.684579797841	7
1	1137	658.731115473322	6
1	1138	660.060561111266	5
1	1140	660.733251470175	5
1	1141	661.083438958644	5
1	1143	661.557889782312	5
1	1145	662.667699980666	6
1	1147	663.039712516988	7
1	1149	664.021662460579	8
1	1150	664.18312029192	8
1	1151	665.326331626562	7
1	1153	666.17769504569	7
1	1154	666.639858303522	7
1	1155	667.143439364526	6
1	1156	667.164648080137	5
1	1157	667.311609834355	4
1	1158	669.922311935151	3
1	1159	670.460950365756	2
1	1160	670.821699596105	1
1	1161	672.162878471621	0
1	1163	676.406622539043	0
1	1167	678.920308586022	1
1	1169	680.246655611982	1
1	1171	680.9943132381	1
1	1172	681.124465409733	1
1	1174	681.131086598952	1
1	1176	681.185891193516	2
1	1177	681.516534979828	2
1	1178	683.665825978885	1
1	1180	684.1702342092	1
1	1181	684.254315709782	1
1	1182	685.118843581546	0
1	1184	686.51584825831	0
1	1185	688.950050241597	0
1	1187	690.905621483301	0
1	1189	691.036301896272	1
1	1190	691.101600425651	1
1	1191	692.882397178288	0
1	1193	693.03686310062	0
1	1197	694.01437164122	1
1	1199	696.444793197351	2
1	1201	696.913453296531	3
1	1204	700.895497547757	4
1	1205	701.656412708756	4
1	1206	703.187465994678	3
1	1207	703.242849475957	2
1	1208	703.667509480339	1
1	1209	705.027797489591	0
1	1211	705.034668496869	0
1	1212	706.113872383046	0
1	1214	710.975729764576	0
1	1215	711.200171241282	0
1	1217	713.28126053322	0
1	1218	713.462910795392	0
1	1220	714.148608300627	0
1	1221	716.499075107059	0
1	1225	718.466904291382	0
1	1227	718.588957525124	1
1	1229	719.306539951186	1
1	1230	719.948172826247	0
1	1234	721.239639279972	0
1	1237	721.984536940641	1
1	1238	724.157265316753	1
1	1239	724.740040282596	0
1	1241	726.248067400461	0
1	1243	726.622778140177	1
1	1244	729.096159799892	1
1	1245	729.242434564506	0
1	1247	729.34528042176	0
1	1248	729.931447288135	0
1	1250	730.282245968083	0
1	1252	730.367169372856	1
1	1254	731.769411248446	2
1	1255	731.930921730618	2
1	1256	731.949972443955	1
1	1257	734.439233625954	0
1	1259	736.074729833894	0
1	1260	736.490027759857	0
1	1264	739.200715611547	0
1	1266	739.703050335894	1
1	1268	745.162716982484	1
1	1269	745.517738069223	0
1	1271	745.796339428068	0
1	1272	746.89758856505	0
1	1276	747.594044137057	0
1	1278	748.278520114691	1
1	1282	752.518362198375	2
1	1284	758.592057866377	3
1	1287	761.578665786834	4
1	1289	761.985456144618	5
1	1291	762.204227802396	6
1	1293	763.364083928278	7
1	1295	763.433194631949	8
1	1297	763.836202117818	9
1	1299	765.180447169277	10
1	1301	765.784417495047	11
1	1303	767.817039000994	12
1	1305	767.851752303703	13
1	1307	769.732212834407	13
1	1309	770.4501442914	13
1	1310	770.958491778057	13
1	1312	771.015611938904	13
1	1314	772.739976433253	14
1	1316	773.717165210026	15
1	1317	774.28044532945	15
1	1318	775.646206352093	14
1	1319	776.068218936897	13
1	1320	777.32206554655	12
1	1321	778.481401193758	11
1	1322	778.635674825231	10
1	1323	778.82263758415	9
1	1325	779.269869795325	9
1	1326	779.920324140488	9
1	1328	780.64486833192	9
1	1332	781.397060959762	10
1	1334	782.120555057653	11
1	1336	782.268372859712	12
1	1338	782.294626539233	13
1	1340	782.554693296388	14
1	1342	785.831752148461	14
1	1344	786.743399664121	14
1	1345	789.966238848758	14
1	1346	789.999201148544	13
1	1350	792.438048000322	12
1	1351	793.114322623859	11
1	1352	794.551287664298	10
1	1354	795.568989552742	10
1	1355	795.764209458953	10
1	1356	795.806977880928	9
1	1358	796.107613405504	9
1	1359	796.938899837555	9
1	1360	796.969382577803	8
1	1362	797.242387880923	8
1	1363	797.296479957407	8
1	1365	797.736495849685	8
1	1366	798.101335211121	8
1	1367	800.0529846977	7
1	1369	800.182907934784	7
1	1371	800.191255723218	8
1	1372	800.654415653407	8
1	1373	801.114928458164	7
1	1374	801.444459865779	6
1	1376	801.648876763988	6
1	1378	802.251170571511	7
1	1380	803.214626045954	8
1	1381	803.462362097492	8
1	1383	803.857772610348	8
1	1385	804.988716802073	9
1	1386	805.754916439234	9
1	1387	805.75525810066	8
1	1388	806.096478559747	7
1	1389	806.180335952408	6
1	1390	806.658893628623	5
1	1392	806.692634349566	5
1	1393	807.386444356533	5
1	1394	807.502274371895	4
1	1396	807.503067467318	4
1	1401	808.972700660716	5
1	1402	810.394775665828	5
1	1404	810.55450700396	5
1	1405	811.061771150438	5
1	1407	813.765695127064	5
1	1408	813.772105659546	5
1	1409	813.960458267729	4
1	1410	814.198649262506	3
1	1411	814.400896653973	2
1	1412	816.948160705338	1
1	1413	817.320962946443	0
1	1415	821.204484402746	0
1	1416	822.11811004564	0
1	1418	824.217746260477	0
1	1419	825.34076613232	0
1	1421	827.841759372518	0
1	1422	829.271303381559	0
1	1427	833.162530233756	0
1	1428	833.244935194934	0
1	1433	835.822655617544	0
1	1434	836.000986937978	0
1	1436	837.31452797109	0
1	1437	837.347799371035	0
1	1439	837.758240698744	0
1	1440	837.939983164816	0
1	1442	843.223662144773	0
1	1444	843.525975381596	1
1	1445	843.619041705198	1
1	1446	844.476992134586	0
1	1451	846.915585341053	0
1	1452	847.404343252292	0
1	1454	847.654113752328	0
1	1455	848.067032855884	0
1	1457	848.073457628486	0
1	1458	848.869673158448	0
1	1460	849.854829735514	0
1	1461	851.491927119862	0
1	1463	852.246145568974	0
1	1464	853.051188282006	0
1	1466	853.427738306703	0
1	1467	854.650912638727	0
1	1469	858.357278240222	0
1	1470	858.757945640304	0
1	1472	860.163301486005	0
1	1473	860.394450822314	0
1	1475	864.830450994504	0
1	1476	865.384969221697	0
1	1478	866.029650889753	0
1	1479	867.325787391135	0
1	1481	869.986325987543	0
1	1482	870.276486944164	0
1	1484	870.381747350533	0
1	1485	870.895367363272	0
1	1487	872.467930683152	0
1	1488	872.694373592782	0
1	1490	874.454020059546	0
1	1491	874.527693974102	0
1	1495	880.893903825962	0
1	1497	889.265092351596	1
1	1499	889.840501203587	2
1	1502	891.899494852509	3
1	1507	894.290009963311	4
1	1508	894.331065706572	4
1	1512	895.33719250018	3
1	1514	895.380294467232	3
1	1515	895.520966598852	3
1	1517	895.644232388779	3
1	1518	896.120994558559	3
1	1519	896.259632285037	2
1	1520	896.58783823777	1
1	1521	896.718542346442	0
1	1523	898.272556695917	0
1	1524	898.560487703691	0
1	1526	900.446522163862	0
1	1528	901.284046280524	1
1	1529	902.140896725001	1
1	1530	902.245473881114	0
1	1532	903.757319436568	0
1	1533	905.611954356857	0
1	1535	906.352232859114	0
1	1536	908.131727233842	0
1	1538	908.581620982067	0
1	1539	908.703534480398	0
1	1541	909.220312180138	0
1	1542	909.780359804985	0
1	1544	910.599221751332	0
1	1546	910.608691591796	1
1	1548	911.668712010122	2
1	1549	911.875699670499	2
1	1553	914.538067174958	2
1	1555	918.568061105693	3
1	1557	919.595337712715	4
1	1562	920.864146155123	5
1	1564	922.680828316558	6
1	1566	923.445756951598	7
1	1568	924.117847777121	8
1	1570	924.214416369718	9
1	1573	928.191261048975	10
1	1574	929.306544516133	10
1	1575	929.554013354069	9
1	1576	930.041824084712	8
1	1578	930.343729203702	8
1	1580	930.618141156996	9
1	1581	931.095242508623	9
1	1583	933.43577609549	9
1	1585	933.472669286054	10
1	1586	933.590260107489	10
1	1590	934.874516138298	10
1	1595	939.991764678769	11
1	1598	942.606486493536	12
1	1599	942.759144652671	12
1	1601	943.653138248914	12
1	1602	945.334663875529	12
1	1603	945.563449533073	11
1	1604	945.568413237936	10
1	1606	945.69471205703	10
1	1608	949.105938953013	11
1	1609	949.166061577458	11
1	1610	949.484318076584	10
1	1611	949.669948618599	9
1	1612	949.707151252531	8
1	1614	950.500987373977	8
1	1615	950.851424143205	8
1	1616	951.571951361513	7
1	1617	951.794085110965	6
1	1618	953.28984359067	5
1	1619	953.301114717138	4
1	1620	954.410977392313	3
1	1621	954.461112975197	2
1	1622	954.769104950732	1
1	1623	955.817050579907	0
1	1628	957.50604040359	0
1	1629	957.922575515421	0
1	1631	957.923270649807	0
1	1635	962.206559693749	1
1	1637	963.09043922365	2
1	1639	964.643291828203	3
1	1641	965.95574468706	3
1	1643	967.259902873048	3
1	1644	967.709418492994	3
1	1645	969.569950935941	2
1	1646	969.626191928376	1
1	1647	970.031602337564	0
1	1649	971.675843183991	0
1	1650	972.201859597011	0
1	1652	974.452951054075	0
1	1656	976.945818916984	1
1	1658	977.055000140387	2
1	1660	977.69144197034	3
1	1662	978.809149591378	4
1	1664	980.604839061088	4
1	1666	980.975889802406	4
1	1667	981.643469410691	4
1	1668	981.784326651896	3
1	1670	982.854345425198	3
1	1672	984.374867388465	4
1	1673	985.171518093083	4
1	1674	985.967817092077	3
1	1675	986.173459699633	2
1	1676	986.522215366932	1
1	1678	987.010500981219	1
1	1679	988.231872697272	1
1	1680	989.872559831214	0
1	1682	994.848940772948	0
1	1683	995.036204176928	0
1	1685	995.867819304922	0
1	1686	996.279820633373	0
1	1688	998.073199501055	0
1	1689	998.921137479101	0
1	1691	999.645584694439	0
1	1692	999.77458853032	0
1	1694	1001.877887225723	0
1	1695	1002.072864573589	0
1	1697	1002.829269022293	0
1	1698	1003.437335511584	0
1	1700	1004.476249894396	0
1	1701	1004.718763231222	0
1	1703	1005.307528272871	0
1	1707	1005.744303919542	1
1	1709	1005.829604596604	1
1	1711	1006.53401755819	1
1	1712	1006.604716407411	1
1	1714	1006.904684278527	1
1	1715	1007.972122706738	1
1	1716	1008.103224923255	0
1	1718	1010.34125181889	0
1	1719	1011.672755169493	0
1	1721	1017.698396342765	0
1	1723	1017.859441232741	1
1	1725	1018.327146210581	2
1	1727	1018.401233578576	3
1	1728	1018.890126909189	3
1	1729	1018.900384193405	2
1	1731	1019.908612674232	2
1	1732	1020.028228535319	2
1	1733	1020.031224989906	1
1	1734	1020.470719684946	0
1	1736	1022.219411202822	0
1	1738	1022.303200626138	1
1	1740	1023.205152556918	2
1	1741	1024.72052546095	2
1	1742	1025.845567735987	1
1	1743	1026.235467213936	0
1	1745	1028.544689834517	0
1	1746	1028.641032088644	0
1	1748	1034.183894241219	0
1	1749	1034.535409726063	0
1	1751	1035.458062994569	0
1	1752	1035.593450615107	0
1	1754	1035.83197070959	0
1	1756	1036.084484309307	1
1	1757	1036.147950941332	1
1	1759	1037.145405357616	1
1	1765	1038.89546757618	2
1	1767	1039.912353048703	3
1	1770	1043.934897050035	4
1	1772	1045.363938827792	5
1	1774	1046.013092392403	5
1	1776	1046.184702626492	5
1	1778	1046.526064055875	6
1	1780	1046.733668816201	7
1	1781	1049.063758323407	7
1	1782	1049.8145705339	6
1	1783	1051.307868149666	5
1	1784	1051.622074283945	4
1	1785	1051.927565306882	3
1	1786	1053.133120843329	2
1	1790	1054.843864042092	2
1	1792	1055.637236690431	3
1	1794	1057.640675632498	4
1	1797	1063.046366626047	5
1	1798	1064.96481732711	5
1	1799	1066.213920720185	4
1	1800	1067.332599319284	3
1	1802	1068.355447985474	3
1	1803	1068.957883856502	3
1	1805	1069.282628776193	3
1	1806	1069.757578468005	3
1	1807	1069.897051343292	2
1	1808	1071.045189100308	1
1	1810	1071.32429578173	1
1	1811	1071.42260781986	1
1	1812	1071.613808184268	0
1	1814	1072.1423590295	0
1	1818	1074.16300219891	1
1	1820	1074.915264754877	2
1	1823	1076.752847569322	3
1	1824	1076.772756266661	3
1	1825	1077.397344398728	2
1	1826	1079.937431303503	1
1	1827	1080.618568710493	0
1	1829	1087.489031054175	0
1	1831	1088.054329168133	1
1	1833	1088.364148810799	2
1	1834	1088.87565842135	2
1	1835	1088.903452392993	1
1	1837	1089.039799530467	1
1	1838	1089.058601489226	1
1	1839	1089.304806848974	0
1	1841	1090.136045745881	0
1	1843	1090.501087492962	1
1	1845	1091.883014801598	2
1	1846	1092.676800743733	2
1	1848	1094.341731478667	2
1	1850	1094.853625355097	3
1	1851	1095.385983960852	3
1	1852	1095.476295264013	2
1	1853	1096.551125454351	1
1	1854	1098.250188421989	0
1	1856	1098.73142991353	0
1	1858	1100.054326485509	1
1	1860	1100.549829042645	2
1	1861	1102.578718446174	2
1	1863	1102.682146118762	2
1	1865	1102.810334404435	3
1	1867	1102.961397428955	4
1	1869	1103.994610191319	5
1	1870	1105.097277775457	5
1	1871	1105.558224999135	4
1	1873	1106.262361855444	4
1	1874	1106.518262376343	4
1	1875	1107.955388590352	3
1	1876	1108.869723720989	2
1	1877	1109.785177699691	1
1	1878	1110.156891792453	0
1	1880	1113.008190106719	0
1	1881	1113.929725551691	0
1	1883	1114.457327977673	0
1	1884	1114.482668937793	0
1	1886	1114.769765037731	0
1	1887	1114.890022229946	0
1	1889	1116.755010989851	0
1	1890	1116.921969359518	0
1	1892	1118.376504046594	0
1	1893	1118.627790914992	0
1	1897	1120.903639998311	0
1	1899	1123.901171352329	1
1	1901	1125.192678626831	2
1	1903	1125.626279599382	3
1	1905	1127.205115239385	3
1	1906	1127.280121718771	2
1	1908	1127.820707873665	2
1	1912	1128.678402093	3
1	1914	1129.656094040684	4
1	1916	1130.159883489957	5
1	1918	1132.027416328319	6
1	1920	1133.285615446978	7
1	1922	1133.726127930948	8
1	1926	1139.197111362838	9
1	1929	1142.617057636978	10
1	1932	1144.612163223878	11
1	1933	1144.860797434027	11
1	1934	1145.491268865455	10
1	1936	1145.76283951262	10
1	1938	1145.997108667984	11
1	1939	1146.283699618889	11
1	1941	1146.533788586277	11
1	1942	1146.70697108538	11
1	1943	1146.739089353187	10
1	1944	1146.958141968479	9
1	1946	1147.373239431035	9
1	1947	1148.703882809537	9
1	1948	1149.173402026247	8
1	1949	1149.737089431942	7
1	1950	1150.484495817237	6
1	1951	1150.894360180339	5
1	1952	1152.135090087115	4
1	1956	1153.496178371766	3
1	1957	1153.527993476907	2
1	1961	1154.501594489926	2
1	1963	1156.934716593592	3
1	1966	1161.288670053955	4
1	1967	1161.712351044069	4
1	1971	1165.904811470324	3
1	1972	1166.830551478399	2
1	1976	1171.705048162296	2
1	1978	1178.881469970038	3
1	1980	1179.780308689348	4
1	1984	1180.733516324886	5
1	1986	1182.197106188803	6
1	1993	1185.899339561017	7
1	1995	1186.406107642895	8
1	1998	1193.075845977143	9
1	2000	1193.92964238306	10
1	2002	1194.394826091362	11
1	2004	1194.680072038553	12
1	2006	1195.000569336208	13
1	2008	1195.408310708759	14
1	2010	1203.180445312219	15
1	2012	1203.890687088977	16
1	2014	1204.94807370156	17
1	2016	1205.047676303315	18
1	2018	1208.45267916999	19
1	2021	1209.103582156227	20
1	2023	1210.50660897735	21
1	2025	1210.680143680488	22
1	2027	1214.709881945022	23
1	2030	1214.769042002665	24
1	2031	1214.84033632753	24
1	2032	1216.021047928325	23
1	2033	1216.488773992036	22
1	2035	1217.772672004627	22
1	2036	1218.361035939932	22
1	2037	1218.754900060743	21
1	2041	1222.254509966091	20
1	2042	1222.854967428001	19
1	2043	1224.239916700208	18
1	2045	1224.456035258227	18
1	2046	1225.035708330506	18
1	2048	1225.241134630901	18
1	2050	1226.031364003059	19
1	2052	1226.108348289642	20
1	2053	1227.551373167121	20
1	2054	1228.232141534387	19
1	2056	1228.441097130953	19
1	2057	1229.990480703679	19
1	2059	1230.96868068984	19
1	2061	1231.624898326043	20
1	2063	1232.421708194207	21
1	2064	1232.854944886654	21
1	2066	1233.582343005423	21
1	2067	1233.661770106666	21
1	2069	1233.837733243852	21
1	2070	1234.286329657617	21
1	2071	1236.028281895465	20
1	2072	1236.192868393222	19
1	2073	1236.221506635498	18
1	2074	1236.294088397183	17
1	2076	1237.259376371918	17
1	2078	1237.501406732835	18
1	2079	1237.89120825778	18
1	2080	1238.33095756936	17
1	2081	1238.553462203195	16
1	2082	1240.011312219604	15
1	2084	1240.655999414407	15
1	2085	1241.169168140044	15
1	2086	1241.588451707933	14
1	2088	1241.875718725623	14
1	2089	1242.064220715248	14
1	2091	1243.368931633948	14
1	2093	1243.672061121122	15
1	2094	1243.808274952562	15
1	2095	1244.151274549213	14
1	2096	1244.529557104095	13
1	2098	1244.545451193259	13
1	2099	1244.632090733141	13
1	2100	1245.142495458822	12
1	2101	1245.456342513233	11
1	2102	1249.696098890897	10
1	2103	1250.678964261767	9
1	2104	1250.971410580903	8
1	2105	1252.101336846507	7
1	2106	1253.509219842342	6
1	2108	1255.121407240182	6
1	2110	1255.908098465868	7
1	2111	1256.2092176193	7
1	2112	1256.730193876268	6
1	2118	1259.933441820375	6
1	2121	1262.78989374563	6
1	2123	1264.225859842412	6
1	2124	1264.412645417665	6
1	2125	1265.884567033232	5
1	2126	1266.487973385467	4
1	2128	1266.945322842049	4
1	2129	1267.085556920725	4
1	2131	1267.182788707546	4
1	2132	1267.336127496824	4
1	2133	1268.100590813606	3
1	2135	1269.04981565119	3
1	2136	1269.338761656614	3
1	2137	1269.395767283182	2
1	2138	1269.647053710045	1
1	2139	1269.794435585483	0
1	2141	1270.014980483904	0
1	2146	1274.544962691249	1
1	2148	1274.628190153793	2
1	2149	1274.759433506853	2
1	2151	1275.364711269898	2
1	2152	1275.720034505702	2
1	2153	1276.98154502147	1
1	2155	1277.375912538285	1
1	2156	1277.856581053257	1
1	2157	1278.548212032115	0
1	2159	1279.670936004155	0
1	2160	1279.727322637044	0
1	2162	1285.371798375259	0
1	2164	1286.413744617043	1
1	2165	1286.939859320829	1
1	2166	1287.119588553037	0
1	2168	1288.096577073877	0
1	2170	1288.884796358998	1
1	2172	1289.787476347646	2
1	2178	1295.156611241135	3
1	2180	1295.907172523529	4
1	2182	1297.408581279147	5
1	2185	1299.837138768705	6
1	2187	1300.474369161926	6
1	2189	1300.895038406078	6
1	2191	1301.214239557997	7
1	2192	1302.022659883107	7
1	2194	1302.508362524381	7
1	2195	1303.164543450052	7
1	2196	1303.231558738626	6
1	2197	1303.585148214511	5
1	2198	1303.761580456385	4
1	2199	1305.025073506658	3
1	2201	1305.06218748527	3
1	2203	1305.803684355838	4
1	2204	1306.089612858267	4
1	2206	1306.159432552071	4
1	2207	1307.044272339549	4
1	2212	1310.349578398736	4
1	2213	1310.596479124677	4
1	2215	1311.004816111792	4
1	2216	1311.449197747618	4
1	2218	1311.873656618246	4
1	2219	1311.967665798104	4
1	2220	1316.01325714404	3
1	2221	1316.11382639379	2
1	2222	1316.717793690862	1
1	2223	1317.143397828678	0
1	2225	1319.037593084207	0
1	2226	1319.136049251175	0
1	2228	1320.237711342364	0
1	2229	1320.92784331845	0
1	2231	1321.042144973848	0
1	2232	1321.288868936552	0
1	2234	1321.780245022168	0
1	2235	1322.902647197011	0
1	2237	1328.275551319122	0
1	2238	1329.029175923616	0
1	2240	1330.037571360836	0
1	2241	1330.707399501365	0
1	2243	1334.626856599253	0
1	2248	1335.399995007877	1
1	2249	1335.696873677753	1
1	2251	1335.818721899634	1
1	2252	1337.571215413147	1
1	2254	1338.800671591291	1
1	2255	1338.819754878181	1
1	2257	1338.872253391963	1
1	2259	1341.847302203474	2
1	2260	1342.404077982101	2
1	2261	1342.741500214052	1
1	2263	1342.78430416232	1
1	2264	1342.983977562851	1
1	2265	1343.107357035825	0
1	2267	1344.434968163674	0
1	2268	1345.045273963013	0
1	2270	1346.79486533799	0
1	2271	1347.002199045	0
1	2273	1347.064934544188	0
1	2274	1347.570055523717	0
1	2276	1353.076183628924	0
1	2277	1353.644848677801	0
1	2279	1356.920882519661	0
1	2280	1357.328359989453	0
1	2282	1357.806755111901	0
1	2283	1358.01198798579	0
1	2285	1360.732142308585	0
1	2287	1361.65184375846	1
1	2288	1361.968639870258	1
1	2289	1362.100419387722	0
1	2291	1362.820537013237	0
1	2293	1363.119066831962	1
1	2294	1365.129124661059	1
1	2295	1366.420201346796	0
1	2297	1367.473835354733	0
1	2298	1367.543898565647	0
1	2302	1370.299215215072	0
1	2308	1375.131520924388	1
1	2309	1375.233525113432	1
1	2310	1375.53094907836	0
1	2314	1376.394957523879	0
1	2316	1376.623121349583	1
1	2318	1376.809606554419	1
1	2319	1376.918831320611	0
1	2321	1377.937045801706	0
1	2322	1377.979770051065	0
1	2324	1378.172438554064	0
1	2325	1378.367280049922	0
1	2327	1378.588590014367	0
1	2328	1378.925061731357	0
1	2330	1379.652875519686	0
1	2332	1379.764793668211	1
1	2333	1382.041313754536	1
1	2335	1382.438440955182	1
1	2336	1382.907966008544	1
1	2338	1384.758559887524	1
1	2339	1384.766602989914	1
1	2340	1387.551449140402	0
1	2342	1390.813939332308	0
1	2343	1390.962858513943	0
1	2345	1392.133451519084	0
1	2346	1393.004972630461	0
1	2348	1394.260351700845	0
1	2349	1394.723616111899	0
1	2351	1397.773341609408	0
1	2352	1398.912725152607	0
1	2354	1402.101231972216	0
1	2356	1402.157570203784	1
1	2357	1402.254233121245	1
1	2358	1403.303994513116	0
1	2360	1403.695615372882	0
1	2361	1403.990555585548	0
1	2365	1407.270681644517	0
1	2367	1407.425559364975	1
1	2370	1411.083470752467	2
1	2371	1411.653109753932	2
1	2372	1413.004948079086	1
1	2373	1414.947823584622	0
1	2375	1417.924943851294	0
1	2377	1418.57449633909	1
1	2378	1418.780603564172	1
1	2379	1419.228466794152	0
1	2381	1419.520270713801	0
1	2383	1420.322486430878	1
1	2384	1420.389984562582	1
1	2386	1420.498069199291	1
1	2387	1422.116927725199	1
1	2388	1422.398634356911	0
1	2390	1423.08658689711	0
1	2391	1423.389337783213	0
1	2393	1427.231433163357	0
1	2394	1427.693819073585	0
1	2396	1429.911153973785	0
1	2398	1431.225627258379	1
1	2399	1434.182403442778	1
1	2401	1434.391796045752	1
1	2402	1434.518287188973	1
1	2403	1435.02876840711	0
1	2405	1438.65191713681	0
1	2406	1438.69941042599	0
1	2408	1438.82735647103	0
1	2409	1439.635802748739	0
1	2411	1442.59271033007	0
1	2413	1443.811121454948	1
1	2417	1444.619330009297	2
1	2419	1447.352280734093	2
1	2420	1448.108796722062	1
1	2422	1448.423980876288	1
1	2423	1448.699848979434	1
1	2425	1448.803673765259	1
1	2426	1449.076727925194	1
1	2427	1449.095612430377	0
1	2429	1457.860480221174	0
1	2430	1459.902135732122	0
1	2432	1461.216365247832	0
1	2433	1461.897753208201	0
1	2435	1463.788422989704	0
1	2437	1464.451773359335	1
1	2439	1467.754286832687	2
1	2441	1467.774211863277	3
1	2443	1468.012534122867	4
1	2444	1468.373030380995	4
1	2445	1468.94432053116	3
1	2446	1469.787148242692	2
1	2448	1469.880190657117	2
1	2449	1470.050310896544	2
1	2450	1470.302331016923	1
1	2451	1471.043016564368	0
1	2453	1477.693650495553	0
1	2455	1477.862248815799	1
1	2456	1478.030246409448	1
1	2458	1478.649587127076	1
1	2462	1481.952356740992	1
1	2464	1482.84893597097	1
1	2466	1483.241245131492	2
1	2467	1485.585911508124	2
1	2469	1486.420428945437	2
1	2470	1486.717841018396	2
1	2471	1487.541154336752	1
1	2473	1488.63906000145	1
1	2477	1489.872949099119	1
1	2479	1491.00851493958	1
1	2481	1491.021749119233	2
1	2483	1492.662651348915	3
1	2484	1492.874876413475	3
1	2485	1493.157767888757	2
1	2486	1493.319769896271	1
1	2488	1493.758243351452	1
1	2489	1494.524951404904	1
1	2490	1495.872967240091	0
1	2495	1497.767162479348	0
1	2496	1499.054680218675	0
1	2498	1500.151423892719	0
1	2499	1500.32163765127	0
1	2501	1501.143932701823	0
1	2503	1501.153051617604	1
1	2504	1501.853631896096	1
1	2505	1502.0603458952	0
1	2507	1504.108365577555	0
1	2508	1504.379686288839	0
1	2510	1504.89178642092	0
1	2512	1505.018247523998	1
1	2514	1505.326053815666	2
1	2515	1505.773951853843	2
1	2516	1506.478385620286	1
1	2517	1507.443728367795	0
1	2519	1513.316412852397	0
1	2521	1513.571088216766	1
1	2523	1514.939974514613	2
1	2524	1515.476507309919	2
1	2525	1515.686962768409	1
1	2526	1518.134694718382	0
1	2528	1520.543784777218	0
1	2529	1523.279478325844	0
1	2533	1524.585762724797	0
1	2535	1524.740554455978	1
1	2537	1525.236554060043	2
1	2539	1526.216274470681	2
1	2541	1526.523837643677	2
1	2543	1526.543748807293	3
1	2545	1527.364350379313	4
1	2546	1527.447684554101	4
1	2547	1528.189698241068	3
1	2549	1529.684179171167	3
1	2550	1529.807755670397	3
1	2551	1529.930354277289	2
1	2552	1531.447921064987	1
1	2553	1531.542454114606	0
1	2555	1535.085835391615	0
1	2557	1535.505021106585	1
1	2558	1535.826714545082	1
1	2559	1536.159116893717	0
1	2561	1537.252622423768	0
1	2563	1538.108840226498	1
1	2564	1538.251675165782	1
1	2566	1540.385915249717	1
1	2567	1541.715455052205	1
1	2568	1541.734372709918	0
1	2572	1545.366893731705	0
1	2574	1546.607911715088	1
1	2576	1547.699765276856	2
1	2580	1549.892033417297	3
1	2583	1555.839541050058	4
1	2585	1555.972401192107	5
1	2587	1557.526567667314	6
1	2589	1559.015189862148	7
1	2591	1559.04590313945	8
1	2593	1563.109502593219	9
1	2595	1563.176161005025	9
1	2596	1564.050861969132	8
1	2598	1564.051085125306	8
1	2599	1564.566811583627	8
1	2600	1565.507741100187	7
1	2602	1565.556471156342	7
1	2603	1567.492855521241	7
1	2604	1568.594861048162	6
1	2605	1568.777575039767	5
1	2606	1569.005253894144	4
1	2608	1570.274646103795	4
1	2610	1571.30115726616	5
1	2612	1571.336884764578	6
1	2614	1571.52543148778	7
1	2615	1571.827143459728	7
1	2616	1572.213973497247	6
1	2618	1572.493124073727	6
1	2619	1574.15195596191	6
1	2621	1574.608697285813	6
1	2623	1575.45131480806	7
1	2625	1577.756758984453	8
1	2626	1577.781904568488	8
1	2628	1578.987348681997	8
1	2630	1581.384584358844	9
1	2631	1581.933846917321	9
1	2633	1582.136204372116	9
1	2634	1582.25378904368	9
1	2635	1582.465340089734	8
1	2637	1582.702358627326	8
1	2638	1583.669250592694	8
1	2640	1584.78660884464	8
1	2642	1585.834343121088	9
1	2643	1586.596527976993	9
1	2644	1586.90482812785	8
1	2645	1588.484443022576	7
1	2647	1588.651396363243	7
1	2648	1589.334706004161	7
1	2649	1589.77170811381	6
1	2651	1589.94843228214	6
1	2655	1591.078463429699	7
1	2657	1591.742196173994	8
1	2659	1595.512100184494	9
1	2662	1596.50661225901	10
1	2663	1596.980732441668	10
1	2664	1598.679453383153	9
1	2665	1598.932153996228	8
1	2666	1598.961819863184	7
1	2667	1600.478964423369	6
1	2668	1601.031239068208	5
1	2669	1602.719838552953	4
1	2670	1603.136638317991	3
1	2671	1603.636870464964	2
1	2672	1603.888696887993	1
1	2674	1604.598108807078	1
1	2676	1604.71636852506	2
1	2677	1606.194543597538	2
1	2678	1607.490753553199	1
1	2679	1607.527216307692	0
1	2681	1608.64974285651	0
1	2682	1608.870492646548	0
1	2684	1610.033557391936	0
1	2685	1610.640148806553	0
1	2687	1614.810665952502	0
1	2688	1615.871814400077	0
1	2690	1615.89212156609	0
1	2692	1616.466634548442	1
1	2694	1617.496484429879	2
1	2696	1618.572986654394	3
1	2698	1619.002095031143	4
1	2700	1619.769973077032	5
1	2701	1619.873284659252	5
1	2702	1620.36817097562	4
1	2703	1620.405255323426	3
1	2705	1621.147513034664	3
1	2707	1622.103394484181	4
1	2708	1622.562376992641	4
1	2709	1623.673328516386	3
1	2711	1624.191728082342	3
1	2713	1626.194891760476	4
1	2714	1626.212680873739	4
1	2715	1627.539636361133	3
1	2717	1628.200292943742	3
1	2718	1628.28590254674	3
1	2719	1628.39670785407	2
1	2720	1629.313544556577	1
1	2721	1629.616295615384	0
1	2723	1632.166890415194	0
1	2727	1636.020266602979	1
1	2729	1637.067745491449	2
1	2731	1637.10588584046	3
1	2733	1640.4464480228	4
1	2735	1640.895615897315	5
1	2737	1642.700388769225	6
1	2739	1644.461165482193	7
1	2742	1646.086132048562	8
1	2743	1650.097787166483	8
1	2744	1650.742377717723	7
1	2746	1651.37986674778	7
1	2748	1651.384718069572	8
1	2749	1651.483956655134	8
1	2750	1651.708469995057	7
1	2751	1651.819426033958	6
1	2752	1654.517768540627	5
1	2754	1655.420644754658	5
1	2755	1655.815786948021	5
1	2756	1657.075429727709	4
1	2758	1657.616306969379	4
1	2760	1658.814235814203	5
1	2761	1660.046487356182	5
1	2762	1660.153061162511	4
1	2763	1660.362843435667	3
1	2765	1660.920149779062	3
1	2766	1662.433139035332	3
1	2767	1663.355522684788	2
1	2768	1663.695487306153	1
1	2769	1663.699620396241	0
1	2771	1670.153886101364	0
1	2772	1670.672776786097	0
1	2774	1673.474700598956	0
1	2776	1673.783081694761	1
1	2777	1674.835371470668	1
1	2779	1674.87612375819	1
1	2781	1675.62669056607	2
1	2782	1675.802043794003	2
1	2784	1675.945448615932	2
1	2786	1675.947305068116	3
1	2787	1676.048251392825	3
1	2788	1676.730947518992	2
1	2789	1676.748529123518	1
1	2791	1677.306249409098	1
1	2792	1677.515464748673	1
1	2794	1678.228275710039	1
1	2796	1678.418106968758	2
1	2797	1678.859137711092	2
1	2799	1678.948193475066	2
1	2801	1680.62493544749	3
1	2803	1681.226660867959	4
1	2804	1681.688286491719	4
1	2806	1682.900341848298	4
1	2807	1684.059853969629	4
1	2808	1684.549341953034	3
1	2809	1685.480638597442	2
1	2810	1686.217423433991	1
1	2811	1686.39273676674	0
1	2813	1689.547329397039	0
1	2814	1689.762027007524	0
1	2816	1691.424700621982	0
1	2817	1692.191822323786	0
1	2819	1692.274886681706	0
1	2820	1692.309127850244	0
1	2822	1696.487282487925	0
1	2824	1696.496955320948	1
1	2826	1699.084744259079	2
1	2827	1699.616352911102	2
1	2828	1700.351846946774	1
1	2829	1700.748208527773	0
1	2831	1701.183104869208	0
1	2832	1701.288402513617	0
1	2834	1703.702633941495	0
1	2835	1704.724649342017	0
1	2837	1709.375660464834	0
1	2838	1710.506704104117	0
1	2840	1711.073699156385	0
1	2841	1711.874994733152	0
1	2843	1712.484156112395	0
1	2845	1712.735874573822	1
1	2846	1712.748876398639	1
1	2848	1714.984741449449	1
1	2852	1717.891175565134	2
1	2856	1725.606036468904	3
1	2858	1728.803873814572	4
1	2860	1729.921551494518	5
1	2865	1737.465928355937	6
1	2869	1740.378967622489	7
1	2871	1740.993283734269	8
1	2873	1741.139340336858	9
1	2875	1741.593723153239	10
1	2877	1743.504854770616	11
1	2879	1743.656708701933	12
1	2881	1744.629840160178	13
1	2883	1744.809852470361	14
1	2887	1749.336250793573	15
1	2889	1750.130528653825	16
1	2891	1750.87170349726	17
1	2893	1753.324228398048	17
1	2894	1755.346213594699	16
1	2895	1755.475624463069	15
1	2897	1755.565455454534	15
1	2899	1756.197147187313	16
1	2901	1756.581798755286	17
1	2902	1757.165553319104	17
1	2904	1757.483902514218	17
1	2906	1757.702293138669	18
1	2908	1757.765426442705	19
1	2909	1757.825388309909	19
1	2910	1759.011006120613	18
1	2911	1759.828433956783	17
1	2913	1759.97919016083	17
1	2914	1760.385833022886	17
1	2915	1760.655646474191	16
1	2917	1760.834197759858	16
1	2918	1761.800775031391	16
1	2920	1762.050035302761	16
1	2922	1762.497491345931	17
1	2924	1762.550197072761	18
1	2925	1763.038250025176	18
1	2926	1763.425491807408	17
1	2928	1765.933458378556	17
1	2930	1766.553760006776	18
1	2932	1766.766966143646	19
1	2934	1769.183781831659	20
1	2936	1769.247786458431	21
1	2938	1770.869364803953	22
1	2939	1771.133908083571	22
1	2941	1772.280869808882	22
1	2942	1773.536764595691	22
1	2943	1776.128331356928	21
1	2945	1776.361923497534	21
1	2946	1776.499481257617	21
1	2947	1776.506036379068	20
1	2948	1777.461923184517	19
1	2949	1778.029546582258	18
1	2951	1778.224537055899	18
1	2952	1778.617453838259	18
1	2953	1778.624033943234	17
1	2954	1778.677429515819	16
1	2956	1779.102705108977	16
1	2958	1780.416562793548	17
1	2962	1781.529272112536	18
1	2964	1781.831541424408	19
1	2966	1783.136004200262	20
1	2968	1784.659994405781	21
1	2970	1785.293166120718	22
1	2972	1788.565955226697	23
1	2974	1789.151685921691	24
1	2976	1790.214158622246	24
1	2980	1792.960089011478	24
1	2982	1796.665708301505	24
1	2983	1796.889983795145	23
1	2985	1797.438459346951	23
1	2986	1797.531310930429	23
1	2987	1797.849453865574	22
1	2994	1801.864261701239	22
1	2996	1802.3538336977	22
1	3000	1803.743541038276	22
1	3002	1806.842737054364	23
1	3004	1807.413183623703	24
1	3006	1810.99143269081	24
1	3007	1811.373215474912	23
1	3008	1812.348262638059	22
1	3010	1813.178772179253	22
1	3011	1814.177265143726	22
1	3013	1814.428596640357	22
1	3014	1814.616643094928	22
1	3015	1814.952322331844	21
1	3017	1815.21784393294	21
1	3018	1815.757473099268	21
1	3019	1816.279219042826	20
1	3021	1816.881137908995	20
1	3023	1817.267149467547	21
1	3024	1817.683877053346	21
1	3025	1817.822930592676	20
1	3026	1819.410004276758	19
1	3027	1820.309314244282	18
1	3028	1822.131198182191	17
1	3029	1822.279186035695	16
1	3030	1822.295963982746	15
1	3031	1823.175869318567	14
1	3032	1824.066438223248	13
1	3033	1824.38533528682	12
1	3035	1826.466108968639	12
1	3036	1827.144761136298	12
1	3037	1828.376551358953	11
1	3039	1829.030596128261	11
1	3041	1829.419372924974	12
1	3042	1830.158608996987	12
1	3043	1830.998174508997	11
1	3045	1831.328571050586	11
1	3046	1831.532344483732	11
1	3047	1832.057155485101	10
1	3048	1832.092536181361	9
1	3049	1832.151661618334	8
1	3051	1833.275365755111	8
1	3053	1833.312359269645	9
1	3054	1833.592657929214	9
1	3056	1833.611682483916	9
1	3057	1833.846229894743	9
1	3058	1834.166235424875	8
1	3059	1835.004577008742	7
1	3060	1835.863685176716	6
1	3061	1836.81696384953	5
1	3065	1837.866053028068	5
1	3068	1840.78605675741	6
1	3069	1841.094462606005	6
1	3070	1842.136238533974	5
1	3072	1843.400042410764	5
1	3074	1843.546058016823	6
1	3075	1844.415564749354	6
1	3077	1844.494533679918	6
1	3078	1844.911044803302	6
1	3079	1845.670898776221	5
1	3080	1846.01509540746	4
1	3081	1847.015233601523	3
1	3082	1847.136470975565	2
1	3083	1847.572859292753	1
1	3085	1848.497636789784	1
1	3086	1849.291597397754	1
1	3088	1850.565525021316	1
1	3090	1852.986243775919	2
1	3092	1854.169626571744	3
1	3094	1856.258994878115	4
1	3096	1856.642643113614	5
1	3097	1857.639572802888	5
1	3098	1858.381241843573	4
1	3099	1858.667179630858	3
1	3101	1859.949240073793	3
1	3103	1861.093380057332	4
1	3105	1861.792536269458	5
1	3106	1862.031710959981	5
1	3108	1862.856475798069	5
1	3110	1864.609214526149	6
1	3112	1864.645943168143	7
1	3114	1866.343520905902	8
1	3116	1866.34587921289	9
1	3117	1866.638210070375	9
1	3118	1866.71052927347	8
1	3119	1868.30798232166	7
1	3120	1868.741965038975	6
1	3121	1869.266607689379	5
1	3123	1870.055105778488	5
1	3124	1870.625700627629	5
1	3125	1870.847107313987	4
1	3126	1871.67436707359	3
1	3127	1871.8132623585	2
1	3129	1872.836572897925	2
1	3130	1873.507849713135	2
1	3134	1874.30707250339	2
1	3136	1877.112439943156	2
1	3138	1877.24647233042	2
1	3140	1877.329893218892	3
1	3144	1879.671065337536	4
1	3146	1881.067843958452	4
1	3147	1881.508961164423	3
1	3148	1883.033574013101	2
1	3149	1884.04493138986	1
1	3151	1884.490923282361	1
1	3152	1884.525863066371	1
1	3153	1884.757874923727	0
1	3155	1884.903518418716	0
1	3156	1885.161700389638	0
1	3158	1885.685162776192	0
1	3159	1885.731905910981	0
1	3161	1887.958621293472	0
1	3162	1889.610328297257	0
1	3164	1890.387534230096	0
1	3166	1890.452234536624	1
1	3167	1890.498016862191	1
1	3168	1891.069133168867	0
1	3170	1893.935655325884	0
1	3171	1894.796530753841	0
1	3173	1898.207659219821	0
1	3177	1901.047288368037	1
1	3179	1901.101147164268	2
1	3181	1903.406666761934	3
1	3183	1905.200005298397	4
1	3185	1905.71579449669	5
1	3187	1905.789170608503	6
1	3189	1906.789429018053	7
1	3193	1908.71471892932	8
1	3195	1911.51764337888	9
1	3197	1911.5637232218	10
1	3200	1921.650201445962	11
1	3202	1923.859669699322	12
1	3204	1926.03176433498	12
1	3208	1927.889807436792	12
1	3210	1929.614542346458	13
1	3212	1930.615678481628	14
1	3214	1931.910270260984	15
1	3217	1934.412286883518	16
1	3219	1935.114519072026	17
1	3220	1935.239722135404	17
1	3222	1935.451652819101	17
1	3223	1935.843791618248	17
1	3224	1936.26187630222	16
1	3225	1936.366501138159	15
1	3227	1936.681563056088	15
1	3228	1936.824648099701	15
1	3229	1936.984332094413	14
1	3231	1937.571721677726	14
1	3232	1937.634698194937	14
1	3233	1937.929042567103	13
1	3234	1939.310527770003	12
1	3235	1939.614975911377	11
1	3236	1939.631962787412	10
1	3238	1941.021386045548	10
1	3239	1941.516227151739	10
1	3240	1941.542727345766	9
1	3241	1942.103655754392	8
1	3242	1942.330767960989	7
1	3244	1942.521170502774	7
1	3246	1943.450900183677	8
1	3247	1943.953675809535	8
1	3248	1945.245195712028	7
1	3249	1945.40546998198	6
1	3250	1946.545921900336	5
1	3251	1947.958292255066	4
1	3252	1948.079543566078	3
1	3253	1948.508322264949	2
1	3255	1949.260639519239	2
1	3257	1949.595559021651	3
1	3258	1949.88544754125	3
1	3259	1949.929483002968	2
1	3260	1950.758984899189	1
1	3262	1951.57024535829	1
1	3263	1952.04811977639	1
1	3264	1952.252291288378	0
1	3266	1953.868484266766	0
1	3267	1955.817867596189	0
1	3269	1956.482518597606	0
1	3270	1956.532892604509	0
1	3272	1958.326656384022	0
1	3274	1962.076146865515	1
1	3275	1962.101834619882	1
1	3276	1963.62512836695	0
1	3278	1963.658455236127	0
1	3280	1963.662812075595	1
1	3281	1963.823325031347	1
1	3282	1964.313901575495	0
1	3284	1965.042613628784	0
1	3286	1965.288285058409	1
1	3288	1965.740436956723	2
1	3290	1965.888178991435	3
1	3291	1965.937905952897	3
1	3293	1968.748243175979	3
1	3294	1969.246996485183	3
1	3295	1969.564916949504	2
1	3297	1970.842607842277	2
1	3299	1972.965349668999	3
1	3300	1972.972439422179	3
1	3301	1975.124795981179	2
1	3302	1976.321831475202	1
1	3303	1976.417695267803	0
1	3305	1983.447410326758	0
1	3309	1986.594604677762	0
1	3311	1987.568086450712	0
1	3312	1987.767929363496	0
1	3314	1990.738774455123	0
1	3315	1991.444525904104	0
1	3317	1992.663852215296	0
1	3318	1992.745404369798	0
1	3320	1994.255917166466	0
1	3321	1994.27353245524	0
1	3325	1996.462799914173	0
1	3327	1999.50340944663	1
1	3329	2000.441653687836	2
1	3331	2001.396317209327	3
1	3333	2002.283176531856	4
1	3335	2002.385363808984	5
1	3337	2003.538634705028	6
1	3339	2004.696831361618	7
1	3341	2006.224486692526	8
1	3343	2008.17140053702	9
1	3345	2019.859738448556	10
1	3347	2021.293343391036	11
1	3349	2021.863307870405	11
1	3351	2022.07694949548	11
1	3353	2023.397628419887	12
1	3354	2023.553726096396	12
1	3356	2023.795471169016	12
1	3358	2024.224854861403	13
1	3360	2024.517674904937	14
1	3362	2025.626132138699	15
1	3363	2026.611358711191	15
1	3364	2026.867424164769	14
1	3365	2027.324959310693	13
1	3366	2028.023271897146	12
1	3368	2028.63306480701	12
1	3370	2028.818761618093	13
1	3371	2028.846540801624	13
1	3373	2029.065176400383	13
1	3374	2029.255533541083	13
1	3375	2029.760120174212	12
1	3376	2032.062984103544	11
1	3378	2034.160360450979	11
1	3380	2034.355331704649	12
1	3381	2036.005372115004	12
1	3382	2036.403531448315	11
1	3383	2037.65998664777	10
1	3384	2039.243348730703	9
1	3385	2041.086635620241	8
1	3386	2041.35829830539	7
1	3387	2041.494654171418	6
1	3388	2041.510700770636	5
1	3390	2042.475366152032	5
1	3391	2044.272480731514	5
1	3392	2044.7001765643	4
1	3393	2045.021100112943	3
1	3394	2045.568118920679	2
1	3395	2046.731583867986	1
1	3396	2049.230273340658	0
1	3398	2053.873171268505	0
1	3399	2054.226066917787	0
1	3401	2056.172131748079	0
1	3402	2056.348121352956	0
1	3404	2060.781963288394	0
1	3405	2061.829522500187	0
1	3407	2062.682513951472	0
1	3408	2062.818472255096	0
1	3410	2065.810701103624	0
1	3411	2065.847207341819	0
1	3413	2068.568071880724	0
1	3415	2069.135804979859	1
1	3416	2069.947133879407	1
1	3417	2070.44181283599	0
1	3419	2072.331664985976	0
1	3421	2072.743075264632	1
1	3423	2072.777780876878	2
1	3424	2073.662400031344	2
1	3426	2075.043629485579	2
1	3428	2075.5680006366	3
1	3430	2075.686712879844	4
1	3431	2076.681546338399	4
1	3432	2076.91983355995	3
1	3433	2077.073803098887	2
1	3434	2078.143304229136	1
1	3435	2078.603897961831	0
1	3437	2079.340090431879	0
1	3438	2080.438528826776	0
1	3440	2080.615146532785	0
1	3442	2082.791648884974	1
1	3443	2083.301838656198	1
1	3444	2083.32078925256	0
1	3449	2087.787601899644	0
1	3450	2087.796044214006	0
1	3452	2088.281600805324	0
1	3453	2088.645212356163	0
1	3455	2090.23966014268	0
1	3457	2090.63995032272	1
1	3459	2091.505391287354	2
1	3460	2092.063283785026	2
1	3461	2092.079752351359	1
1	3463	2092.300058373604	1
1	3467	2094.966263175224	1
1	3469	2096.07236128109	1
1	3470	2096.598703340485	1
1	3472	2097.448330895495	1
1	3474	2097.666280331242	2
1	3476	2097.690097263113	3
1	3477	2098.119091037575	3
1	3478	2098.516459437496	2
1	3480	2099.725029452048	2
1	3481	2100.657766953357	2
1	3483	2101.313000144738	2
1	3484	2101.974444520043	2
1	3485	2102.452224405833	1
1	3486	2102.658218922917	0
1	3488	2103.337720686053	0
1	3489	2103.690515295692	0
1	3493	2105.491359158435	0
1	3495	2109.872449897907	1
1	3497	2112.388492138252	1
1	3498	2113.133850837154	0
1	3500	2113.810052753544	0
1	3501	2114.085312355484	0
1	3503	2118.180190714784	0
1	3504	2118.527956191035	0
1	3508	2124.680073415606	0
1	3510	2125.200507096268	1
1	3512	2126.692948359228	2
1	3514	2127.765482418307	3
1	3516	2129.917232540312	4
1	3519	2130.77383945795	5
1	3521	2131.347668875543	6
1	3522	2132.961546715769	6
1	3523	2133.24494997337	5
1	3525	2134.945016277708	5
1	3527	2135.115745535964	6
1	3529	2136.499555549846	7
1	3531	2136.601924803367	8
1	3532	2136.808064850657	8
1	3533	2136.871779516358	7
1	3535	2139.112563392294	7
1	3536	2139.147963416857	7
1	3537	2139.58395478047	6
1	3539	2139.726529637103	6
1	3541	2139.958082758444	7
1	3542	2140.545433058223	7
1	3543	2140.716102113648	6
1	3544	2140.723031257087	5
1	3545	2142.149739336396	4
1	3546	2143.038989664958	3
1	3547	2144.17327371092	2
1	3549	2144.89972596021	2
1	3551	2145.726390364178	3
1	3552	2145.755502667545	3
1	3554	2147.044423731756	3
1	3555	2147.736735312795	3
1	3556	2148.718370196799	2
1	3557	2149.368971828338	1
1	3559	2149.989066463902	1
1	3561	2150.660847536433	2
1	3563	2150.66968828241	3
1	3564	2151.944728558769	3
1	3565	2152.223483011994	2
1	3567	2152.255552001207	2
1	3568	2152.314796644553	2
1	3570	2152.996176910997	2
1	3571	2153.742967236643	2
1	3572	2153.787494068303	1
1	3573	2153.998812198922	0
1	3575	2157.347940858961	0
1	3579	2157.636943331284	1
1	3581	2157.669099068943	2
1	3584	2160.444141477364	3
1	3588	2162.461727379185	3
1	3589	2164.171870289043	2
1	3591	2164.864392824494	2
1	3593	2164.986066386564	3
1	3594	2165.146798275544	3
1	3595	2165.201886961118	2
1	3596	2165.38728917963	1
1	3598	2165.536364322882	1
1	3600	2165.840534096805	2
1	3601	2166.394620873416	2
1	3602	2166.40256580259	1
1	3606	2169.214006432723	1
1	3610	2170.646739844785	2
1	3613	2172.873852262097	3
1	3615	2175.065065763267	4
1	3617	2177.214718777533	5
1	3619	2177.819102029028	6
1	3621	2180.699710948316	7
1	3623	2183.815532181473	8
1	3625	2186.394014824343	9
1	3627	2188.30988625071	9
1	3631	2191.925995676637	9
1	3634	2195.160008904471	10
1	3635	2196.157271946473	10
1	3636	2196.967819596642	9
1	3637	2197.204601126711	8
1	3639	2198.353665444075	8
1	3643	2199.615898498073	9
1	3645	2199.8073242975	10
1	3647	2201.327495034223	10
1	3648	2201.675102991498	9
1	3649	2202.053527642811	8
1	3650	2202.479806461106	7
1	3652	2202.696935827933	7
1	3654	2205.192445406194	8
1	3656	2205.665169251684	9
1	3658	2206.499209816717	10
1	3660	2207.231738431738	11
1	3661	2207.78274391034	11
1	3662	2207.968877239602	10
1	3664	2209.398438538451	10
1	3666	2209.544853232157	11
1	3667	2210.040386065893	11
1	3668	2210.112846714821	10
1	3670	2211.00613079802	10
1	3671	2211.635220583882	10
1	3672	2212.751954302622	9
1	3673	2212.978467358107	8
1	3674	2213.345105507642	7
1	3676	2213.462712923391	7
1	3677	2213.867628519608	7
1	3678	2214.781816965088	6
1	3680	2215.830546538697	6
1	3681	2215.873955544445	6
1	3682	2215.881845667063	5
1	3684	2216.11246914546	5
1	3685	2216.189254375751	5
1	3686	2216.36554760089	4
1	3688	2216.546365313856	4
1	3690	2217.125267085794	5
1	3691	2218.481961805929	5
1	3692	2219.231905522854	4
1	3693	2219.303576296754	3
1	3695	2220.113402875843	3
1	3697	2220.276830623382	4
1	3698	2221.500430400671	4
1	3699	2223.126261439919	3
1	3701	2223.320601470618	3
1	3702	2223.59781335375	3
1	3703	2224.230386893295	2
1	3704	2224.274833807677	1
1	3705	2224.656582538349	0
1	3707	2225.495811333429	0
1	3708	2225.523472517251	0
1	3710	2230.035103798795	0
1	3711	2230.186653374515	0
1	3713	2233.959475037839	0
1	3714	2234.315887580882	0
1	3716	2241.866343898221	0
1	3717	2242.773654979286	0
1	3721	2245.634001898801	0
1	3723	2246.982441579311	1
1	3725	2247.573421856398	2
1	3727	2248.817536228379	3
1	3729	2249.006779674678	4
1	3731	2250.323369286618	5
1	3733	2250.855146124179	6
[...]
6	1349	792.233708570942	0
6	1398	807.657632949454	0
6	1399	808.709403294244	0
6	1424	830.082990056291	0
6	1425	832.002477907819	0
6	1430	834.116293496415	0
6	1431	835.25713287594	0
6	1448	845.77824134047	0
6	1449	846.370251883539	0
6	1493	880.761697232639	0
6	1500	890.737355003141	0
6	1504	892.145415789384	0
6	1505	892.583854627576	0
6	1510	894.373028441513	0
6	1511	895.215979054357	0
6	1551	913.607525755531	0
6	1558	919.844118694967	0
6	1560	920.277206925292	0
6	1571	927.731718565796	0
6	1588	934.672708179719	0
6	1592	936.028935313202	1
6	1593	939.248457522851	1
6	1596	942.548047102779	0
6	1625	957.048087016828	0
6	1626	957.334504475239	0
6	1633	958.210082287997	0
6	1640	965.856501566641	0
6	1654	976.587912042603	0
6	1663	979.855595559356	0
6	1705	1005.590137975379	0
6	1708	1005.819859390863	0
6	1761	1038.308158018523	0
6	1763	1038.545319263007	1
6	1768	1040.876276377527	1
6	1773	1045.731095539934	0
6	1788	1053.293452183994	0
6	1795	1062.712135281199	0
6	1816	1072.225530406186	0
6	1821	1075.146747553762	0
6	1895	1120.086426183102	0
6	1904	1126.412993781108	0
6	1910	1128.152243321753	0
6	1924	1135.843037619533	1
6	1927	1139.549666857467	1
6	1930	1144.156988000831	0
6	1954	1152.246671720459	0
6	1955	1152.604650160926	0
6	1959	1154.142983468966	0
6	1964	1158.162079288112	0
6	1969	1162.317380905273	0
6	1970	1165.847787044118	0
6	1974	1169.470891429442	0
6	1982	1180.063672947012	1
6	1988	1182.484086536195	2
6	1990	1184.083476601723	3
6	1991	1184.360588772837	3
6	1996	1187.48715307818	2
6	2019	1209.077091955986	1
6	2028	1214.757215699174	0
6	2039	1219.368073518	0
6	2040	1221.430930382467	0
6	2114	1257.720377731584	0
6	2116	1258.681009477602	1
6	2119	1261.039861772734	1
6	2120	1262.411221580612	0
6	2143	1270.276931261535	0
6	2144	1273.062607201889	0
6	2174	1289.96228240382	0
6	2176	1292.563411709023	1
6	2183	1297.921150424468	1
6	2186	1300.46054261871	0
6	2209	1308.426570154145	0
6	2210	1308.755594419816	0
6	2245	1334.742141683582	0
6	2246	1334.961919591121	0
6	2300	1368.959044590421	0
6	2303	1371.2266705003	0
6	2305	1371.947207617954	0
6	2306	1373.039155437399	0
6	2312	1376.38378442529	0
6	2317	1376.746760474148	0
6	2363	1405.507827071999	0
6	2368	1408.743471048028	0
6	2415	1444.385113574848	0
6	2418	1446.308778953281	0
6	2460	1480.059721281932	0
6	2461	1480.247933276875	0
6	2475	1488.726294780898	0
6	2476	1489.091205653539	0
6	2492	1496.141136259839	0
6	2493	1496.171225030095	0
6	2531	1524.242338504501	0
6	2538	1525.95664718266	0
6	2570	1542.447631622299	0
6	2578	1549.466082130356	1
6	2581	1555.322872983043	1
6	2594	1563.128519968005	0
6	2653	1590.641998253917	0
6	2660	1596.30073637253	0
6	2725	1633.714350027253	0
6	2740	1645.504855608339	0
6	2850	1715.229752380084	0
6	2854	1723.105769530319	1
6	2862	1735.705584841452	2
6	2863	1737.452153849477	2
6	2867	1739.312436688954	2
6	2884	1745.318199304125	2
6	2885	1748.489203071491	1
6	2892	1752.614815764411	0
6	2960	1781.020742921571	0
6	2975	1789.693938707666	0
6	2978	1790.989767933443	0
6	2981	1795.775570958228	0
6	2989	1798.01125817734	0
6	2990	1798.27130693887	0
6	2992	1799.973669012292	0
6	2995	1802.216708125911	0
6	2998	1802.788611750136	0
6	3005	1809.599662806948	0
6	3063	1837.207809601665	0
6	3066	1838.132337860243	0
6	3132	1874.214819834976	0
6	3135	1875.742265554427	0
6	3142	1877.492323099577	0
6	3145	1880.357964582049	0
6	3175	1899.01190856079	0
6	3191	1908.705791028292	1
6	3198	1917.903001640387	1
6	3203	1924.502264864985	0
6	3206	1926.80487591959	0
6	3215	1932.280288910031	0
6	3307	1984.546275450773	0
6	3308	1984.871035794071	0
6	3323	1996.012842413922	0
6	3348	2021.5116573698	0
6	3446	2083.855153346219	0
6	3447	2083.959907990121	0
6	3465	2092.664060113132	0
6	3466	2094.593128504016	0
6	3491	2104.851380459965	0
6	3496	2112.211688928122	0
6	3506	2122.543875262575	0
6	3517	2130.323763160283	0
6	3577	2157.532000019822	0
6	3582	2159.315031961694	0
6	3586	2160.769943346489	0
6	3587	2161.979050254107	0
6	3604	2166.560262012353	0
6	3608	2170.316721573153	1
6	3611	2172.599568340569	1
6	3626	2187.690270364113	0
6	3629	2188.511548646784	0
6	3632	2195.145410511159	0
6	3641	2198.633767710102	0
6	3646	2200.671656936302	0
6	3719	2245.259994245578	0
6	3736	2258.768195333475	0
6	3746	2265.579539773758	0
6	3751	2269.063033230473	0
6	3764	2280.874893329279	0
6	3771	2283.431759101484	0
6	3793	2290.195761337989	0
6	3802	2296.570698754376	0
6	3824	2308.037549004393	0
6	3826	2308.085742285505	1
6	3828	2308.887224526848	2
6	3833	2310.256795703552	2
6	3834	2312.582205205165	1
6	3845	2320.796320174901	0
6	3849	2324.804840986635	0
6	3852	2325.668101782374	0
6	3875	2333.642706438426	0
6	3883	2336.358455922297	1
6	3885	2338.017678787934	2
6	3887	2339.680804628958	3
6	3888	2340.872739356514	3
6	3889	2341.152563532021	2
6	3894	2346.439167812501	1
6	3896	2346.97091279548	1
6	3899	2351.699442217944	1
6	3903	2352.329510823868	1
6	3910	2360.028599382504	1
6	3911	2360.233715261817	0
6	3913	2360.360545668002	0
6	3922	2365.499658877228	0
6	3951	2381.934676952752	0
6	3952	2383.228953935216	0
6	4013	2411.664070294826	0
6	4019	2416.504309095825	1
6	4021	2417.319899226566	2
6	4031	2421.859081073032	3
6	4038	2427.448749038373	3
6	4039	2430.505771040916	2
6	4046	2432.537156391666	1
6	4048	2433.0836491068	1
6	4049	2434.210885665079	1
6	4056	2440.912762841068	0
6	4059	2442.737002327712	0
6	4074	2449.261307610896	0
6	4078	2450.301596221221	0
6	4086	2455.396158994061	1
6	4101	2465.263616171359	1
6	4102	2466.869974686522	0
6	4117	2475.635191458486	0
6	4120	2477.670254138347	0
6	4123	2478.070608996934	0
6	4126	2478.576142328212	0
6	4147	2486.574186514758	0
6	4152	2491.303196073535	0
7	671	368.958402505989	0
7	694	402.880317121656	0
7	701	406.528320463741	3.568881696064
7	712	417.74538299453	6.594325399739
7	719	425.50773619485	0
7	791	469.80224824894	0
7	866	503.294683776111	0
7	877	507.710655197798	0
7	924	526.672789580331	0
7	935	531.675691593846	4.38099941394
7	971	552.879779829314	0
7	1046	594.891439112898	0
7	1069	612.436074604198	10.641912439306
7	1106	627.791762872973	0
7	1165	677.757467272476	0
7	1195	693.3263811353	0
7	1223	718.401955800649	0
7	1232	721.220745948366	0
7	1262	736.862253510529	0
7	1274	747.539614225181	0
7	1285	760.248823915409	9.642221893504
7	1330	780.773926758294	0
7	1348	790.1209739769	0
7	1398	807.657632949454	0
7	1424	830.082990056291	0
7	1430	834.116293496415	0
7	1448	845.77824134047	0
7	1493	880.761697232639	0
7	1504	892.145415789384	0
7	1510	894.373028441513	0
7	1551	913.607525755531	0
7	1560	920.277206925292	0
7	1588	934.672708179719	0
7	1593	939.248457522851	3.219522209649
7	1625	957.048087016828	0
7	1633	958.210082287997	0
7	1654	976.587912042603	0
7	1705	1005.590137975379	0
7	1761	1038.308158018523	0
7	1768	1040.876276377527	2.33095711452
7	1788	1053.293452183994	0
7	1816	1072.225530406186	0
7	1895	1120.086426183102	0
7	1910	1128.152243321753	0
7	1927	1139.549666857467	3.706629237934
7	1954	1152.246671720459	0
7	1959	1154.142983468966	0
7	1969	1162.317380905273	0
7	1974	1169.470891429442	0
7	1991	1184.360588772837	4.296915825825
7	1996	1187.48715307818	5.003066541985
7	2019	1209.077091955986	24.993615354263
7	2039	1219.368073518	0
7	2114	1257.720377731584	0
7	2119	1261.039861772734	2.358852295132
7	2143	1270.276931261535	0
7	2174	1289.96228240382	0
7	2183	1297.921150424468	5.357738715445
7	2209	1308.426570154145	0
7	2245	1334.742141683582	0
7	2300	1368.959044590421	0
7	2305	1371.947207617954	0
7	2312	1376.38378442529	0
7	2363	1405.507827071999	0
7	2415	1444.385113574848	0
7	2460	1480.059721281932	0
7	2475	1488.726294780898	0
7	2492	1496.141136259839	0
7	2531	1524.242338504501	0
7	2570	1542.447631622299	0
7	2581	1555.322872983043	5.856790852687
7	2653	1590.641998253917	0
7	2725	1633.714350027253	0
7	2850	1715.229752380084	0
7	2863	1737.452153849477	14.346384319158
7	2884	1745.318199304125	9.612614462673
7	2885	1748.489203071491	9.176766382537
7	2960	1781.020742921571	0
7	2978	1790.989767933443	0
7	2989	1798.01125817734	0
7	2992	1799.973669012292	0
7	2998	1802.788611750136	0
7	3063	1837.207809601665	0
7	3132	1874.214819834976	0
7	3142	1877.492323099577	0
7	3175	1899.01190856079	0
7	3198	1917.903001640387	9.197210612095
7	3206	1926.80487591959	0
7	3307	1984.546275450773	0
7	3323	1996.012842413922	0
7	3446	2083.855153346219	0
7	3465	2092.664060113132	0
7	3491	2104.851380459965	0
7	3506	2122.543875262575	0
7	3577	2157.532000019822	0
7	3586	2160.769943346489	0
7	3604	2166.560262012353	0
7	3611	2172.599568340569	2.282846767416
7	3629	2188.511548646784	0
7	3641	2198.633767710102	0
7	3719	2245.259994245578	0
7	3746	2265.579539773758	0
7	3764	2280.874893329279	0
7	3793	2290.195761337989	0
7	3824	2308.037549004393	0
7	3833	2310.256795703552	2.171053418047
7	3834	2312.582205205165	3.694980678317
7	3849	2324.804840986635	0
7	3875	2333.642706438426	0
7	3888	2340.872739356514	4.514283434217
7	3889	2341.152563532021	3.134884744087
7	3894	2346.439167812501	6.758363183543
7	3899	2351.699442217944	4.728529422464
7	3910	2360.028599382504	7.699088558636
7	3913	2360.360545668002	0
7	3951	2381.934676952752	0
7	4013	2411.664070294826	0
7	4038	2427.448749038373	10.944439942548
7	4039	2430.505771040916	13.18587181435
7	4046	2432.537156391666	10.678075318634
7	4049	2434.210885665079	1.127236558279
7	4059	2442.737002327712	0
7	4078	2450.301596221221	0
7	4101	2465.263616171359	9.867457177298
7	4117	2475.635191458486	0
7	4123	2478.070608996934	0
7	4147	2486.574186514758	0
8	672	369.533975898712	23
8	701	406.528320463741	24
8	712	417.74538299453	25
8	717	425.440017354627	26
8	726	435.237685621455	27
8	798	474.231854323021	28
8	867	504.196820236916	29
8	884	514.385548595888	30
8	935	531.675691593846	31
8	940	537.257184083606	32
8	972	552.983261378745	33
8	1069	612.436074604198	34
8	1070	613.056737460383	35
8	1119	650.153318904674	36
8	1168	679.659139803207	37
8	1202	700.854095470307	38
8	1228	719.261311431025	39
8	1235	721.348100538646	40
8	1267	743.976621771449	41
8	1285	760.248823915409	42
8	1306	768.775137295551	43
8	1341	783.419827644121	44
8	1349	792.233708570942	45
8	1399	808.709403294244	46
8	1425	832.002477907819	47
8	1431	835.25713287594	48
8	1449	846.370251883539	49
8	1500	890.737355003141	50
8	1505	892.583854627576	51
8	1511	895.215979054357	52
8	1558	919.844118694967	53
8	1571	927.731718565796	54
8	1593	939.248457522851	55
8	1596	942.548047102779	56
8	1626	957.334504475239	57
8	1640	965.856501566641	58
8	1663	979.855595559356	59
8	1708	1005.819859390863	60
8	1768	1040.876276377527	61
8	1773	1045.731095539934	62
8	1795	1062.712135281199	63
8	1821	1075.146747553762	64
8	1904	1126.412993781108	65
8	1927	1139.549666857467	66
8	1930	1144.156988000831	67
8	1955	1152.604650160926	68
8	1964	1158.162079288112	69
8	1970	1165.847787044118	70
8	1991	1184.360588772837	71
8	1996	1187.48715307818	72
8	2019	1209.077091955986	73
8	2028	1214.757215699174	74
8	2040	1221.430930382467	75
8	2119	1261.039861772734	76
8	2120	1262.411221580612	77
8	2144	1273.062607201889	78
8	2183	1297.921150424468	79
8	2186	1300.46054261871	80
8	2210	1308.755594419816	81
8	2246	1334.961919591121	82
8	2303	1371.2266705003	83
8	2306	1373.039155437399	84
8	2317	1376.746760474148	85
8	2368	1408.743471048028	86
8	2418	1446.308778953281	87
8	2461	1480.247933276875	88
8	2476	1489.091205653539	89
8	2493	1496.171225030095	90
8	2538	1525.95664718266	91
8	2581	1555.322872983043	92
8	2594	1563.128519968005	93
8	2660	1596.30073637253	94
8	2740	1645.504855608339	95
8	2863	1737.452153849477	96
8	2884	1745.318199304125	97
8	2885	1748.489203071491	98
8	2892	1752.614815764411	99
8	2975	1789.693938707666	100
8	2981	1795.775570958228	101
8	2990	1798.27130693887	102
8	2995	1802.216708125911	103
8	3005	1809.599662806948	104
8	3066	1838.132337860243	105
8	3135	1875.742265554427	106
8	3145	1880.357964582049	107
8	3198	1917.903001640387	108
8	3203	1924.502264864985	109
8	3215	1932.280288910031	110
8	3308	1984.871035794071	111
8	3348	2021.5116573698	112
8	3447	2083.959907990121	113
8	3466	2094.593128504016	114
8	3496	2112.211688928122	115
8	3517	2130.323763160283	116
8	3582	2159.315031961694	117
8	3587	2161.979050254107	118
8	3611	2172.599568340569	119
8	3626	2187.690270364113	120
8	3632	2195.145410511159	121
8	3646	2200.671656936302	122
8	3736	2258.768195333475	123
8	3751	2269.063033230473	124
8	3771	2283.431759101484	125
8	3802	2296.570698754376	126
8	3833	2310.256795703552	127
8	3834	2312.582205205165	128
8	3845	2320.796320174901	129
8	3852	2325.668101782374	130
8	3888	2340.872739356514	131
8	3889	2341.152563532021	132
8	3894	2346.439167812501	133
8	3899	2351.699442217944	134
8	3910	2360.028599382504	135
8	3911	2360.233715261817	136
8	3922	2365.499658877228	137
8	3952	2383.228953935216	138
8	4038	2427.448749038373	139
8	4039	2430.505771040916	140
8	4046	2432.537156391666	141
8	4049	2434.210885665079	142
8	4056	2440.912762841068	143
8	4074	2449.261307610896	144
8	4101	2465.263616171359	145
8	4102	2466.869974686522	146
8	4120	2477.670254138347	147
8	4126	2478.576142328212	148
8	4152	2491.303196073535	149
9	672	369.533975898712	0.575573392723
9	701	406.528320463741	3.648003342085
9	712	417.74538299453	14.785944226853
9	717	425.440017354627	14.288959759836
9	726	435.237685621455	9.729949426605
9	798	474.231854323021	4.429606074081
9	867	504.196820236916	0.902136460805
9	884	514.385548595888	6.67489339809
9	935	531.675691593846	5.002902013515
9	940	537.257184083606	9.9624919037
9	972	552.983261378745	0.103481549431
9	1069	612.436074604198	17.5446354913
9	1070	613.056737460383	11.262575295491
9	1119	650.153318904674	22.361556031701
9	1168	679.659139803207	1.901672530731
9	1202	700.854095470307	7.527714335007
9	1228	719.261311431025	0.859355630376
9	1235	721.348100538646	0.12735459028
9	1267	743.976621771449	7.11436826092
9	1285	760.248823915409	12.709209690228
9	1306	768.775137295551	18.168535273646
9	1341	783.419827644121	2.645900885827
9	1349	792.233708570942	2.112734594042
9	1399	808.709403294244	1.05177034479
9	1425	832.002477907819	1.919487851528
9	1431	835.25713287594	1.140839379525
9	1449	846.370251883539	0.592010543069
9	1500	890.737355003141	9.975657770502
9	1505	892.583854627576	0.438438838192
9	1511	895.215979054357	0.842950612844
9	1558	919.844118694967	6.236592939436
9	1571	927.731718565796	7.454511640504
9	1593	939.248457522851	4.575749343132
9	1596	942.548047102779	6.519111789577
9	1626	957.334504475239	0.286417458411
9	1640	965.856501566641	7.646419278644
9	1663	979.855595559356	3.267683516753
9	1708	1005.819859390863	0.229721415484
9	1768	1040.876276377527	2.568118359004
9	1773	1045.731095539934	7.185776276927
9	1795	1062.712135281199	9.418683097205
9	1821	1075.146747553762	2.921217147576
9	1904	1126.412993781108	6.326567598006
9	1927	1139.549666857467	11.397423535714
9	1930	1144.156988000831	8.313950381298
9	1955	1152.604650160926	0.357978440467
9	1964	1158.162079288112	4.019095819146
9	1970	1165.847787044118	3.530406138845
9	1991	1184.360588772837	14.889697343395
9	1996	1187.48715307818	7.423480131168
9	2019	1209.077091955986	26.593005419791
9	2028	1214.757215699174	30.673739097451
9	2040	1221.430930382467	2.062856864467
9	2119	1261.039861772734	3.31948404115
9	2120	1262.411221580612	3.73021210301
9	2144	1273.062607201889	2.785675940354
9	2183	1297.921150424468	7.958868020648
9	2186	1300.46054261871	7.897130909687
9	2210	1308.755594419816	0.329024265671
9	2246	1334.961919591121	0.219777907539
9	2303	1371.2266705003	2.267625909879
9	2306	1373.039155437399	1.091947819445
9	2317	1376.746760474148	0.362976048858
9	2368	1408.743471048028	3.235643976029
9	2418	1446.308778953281	1.923665378433
9	2461	1480.247933276875	0.188211994943
9	2476	1489.091205653539	0.364910872641
9	2493	1496.171225030095	0.030088770256
9	2538	1525.95664718266	1.714308678159
9	2581	1555.322872983043	12.875241360744
9	2594	1563.128519968005	13.662437837649
9	2660	1596.30073637253	5.658738118613
9	2740	1645.504855608339	11.790505581086
9	2863	1737.452153849477	22.222401469393
9	2884	1745.318199304125	22.212429773806
9	2885	1748.489203071491	12.783618230039
9	2892	1752.614815764411	13.302379075457
9	2975	1789.693938707666	8.673195786095
9	2981	1795.775570958228	4.785803024785
9	2990	1798.27130693887	0.26004876153
9	2995	1802.216708125911	2.243039113619
9	3005	1809.599662806948	6.811051056812
9	3066	1838.132337860243	0.924528258578
9	3135	1875.742265554427	1.527445719451
9	3145	1880.357964582049	2.865641482472
9	3198	1917.903001640387	18.891093079597
9	3203	1924.502264864985	15.796473836693
9	3215	1932.280288910031	5.475412990441
9	3308	1984.871035794071	0.324760343298
9	3348	2021.5116573698	25.498814955878
9	3447	2083.959907990121	0.104754643902
9	3466	2094.593128504016	1.929068390884
9	3496	2112.211688928122	7.360308468157
9	3517	2130.323763160283	7.779887897708
9	3582	2159.315031961694	1.783031941872
9	3587	2161.979050254107	1.209106907618
9	3611	2172.599568340569	6.039306328216
9	3626	2187.690270364113	17.37354879096
9	3632	2195.145410511159	6.633861864375
9	3646	2200.671656936302	2.0378892262
9	3736	2258.768195333475	13.508201087897
9	3751	2269.063033230473	3.483493456715
9	3771	2283.431759101484	2.556865772205
9	3802	2296.570698754376	6.374937416387
9	3833	2310.256795703552	2.219246699159
9	3834	2312.582205205165	4.49646291966
9	3845	2320.796320174901	11.909095648053
9	3852	2325.668101782374	0.863260795739
9	3888	2340.872739356514	7.230032918088
9	3889	2341.152563532021	4.794107609724
9	3894	2346.439167812501	8.421489024567
9	3899	2351.699442217944	12.018637588986
9	3910	2360.028599382504	13.057686587024
9	3911	2360.233715261817	7.904204437949
9	3922	2365.499658877228	5.139113209226
9	3952	2383.228953935216	1.294276982464
9	4038	2427.448749038373	15.784678743547
9	4039	2430.505771040916	14.001461945091
9	4046	2432.537156391666	15.2172571651
9	4049	2434.210885665079	12.351804592047
9	4056	2440.912762841068	7.829113734268
9	4074	2449.261307610896	6.524305283184
9	4101	2465.263616171359	14.962019950138
9	4102	2466.869974686522	11.473815692461
9	4120	2477.670254138347	2.035062679861
9	4126	2478.576142328212	0.505533331278
9	4152	2491.303196073535	4.729009558777
10	694	402.880317121656	11
10	719	425.50773619485	12
10	866	503.294683776111	13
10	877	507.710655197798	14
10	924	526.672789580331	15
10	971	552.879779829314	16
10	1106	627.791762872973	17
10	1165	677.757467272476	18
10	1195	693.3263811353	19
10	1330	780.773926758294	20
10	1348	790.1209739769	21
10	1398	807.657632949454	22
10	1504	892.145415789384	23
10	1510	894.373028441513	24
10	1551	913.607525755531	25
10	1560	920.277206925292	26
10	1588	934.672708179719	27
10	1633	958.210082287997	28
10	1654	976.587912042603	29
10	1705	1005.590137975379	30
10	1761	1038.308158018523	31
10	1788	1053.293452183994	32
10	1816	1072.225530406186	33
10	1910	1128.152243321753	34
10	1954	1152.246671720459	35
10	1959	1154.142983468966	36
10	1969	1162.317380905273	37
10	1974	1169.470891429442	38
10	2039	1219.368073518	39
10	2114	1257.720377731584	40
10	2143	1270.276931261535	41
10	2174	1289.96228240382	42
10	2209	1308.426570154145	43
10	2245	1334.742141683582	44
10	2305	1371.947207617954	45
10	2415	1444.385113574848	46
10	2460	1480.059721281932	47
10	2475	1488.726294780898	48
10	2653	1590.641998253917	49
10	2725	1633.714350027253	50
10	2850	1715.229752380084	51
10	2960	1781.020742921571	52
10	2978	1790.989767933443	53
10	2989	1798.01125817734	54
10	2992	1799.973669012292	55
10	2998	1802.788611750136	56
10	3063	1837.207809601665	57
10	3132	1874.214819834976	58
10	3142	1877.492323099577	59
10	3175	1899.01190856079	60
10	3206	1926.80487591959	61
10	3307	1984.546275450773	62
10	3465	2092.664060113132	63
10	3577	2157.532000019822	64
10	3586	2160.769943346489	65
10	3604	2166.560262012353	66
10	3629	2188.511548646784	67
10	3641	2198.633767710102	68
10	3764	2280.874893329279	69
10	3793	2290.195761337989	70
10	3824	2308.037549004393	71
10	3849	2324.804840986635	72
10	3875	2333.642706438426	73
10	3913	2360.360545668002	74
10	3951	2381.934676952752	75
10	4059	2442.737002327712	76
10	4078	2450.301596221221	77
10	4117	2475.635191458486	78
10	4123	2478.070608996934	79
10	4147	2486.574186514758	80
11	4169	2500	0.49
12	4169	2500	0.0596

