version 2
run factors_calibration_bosses-87-20230303-16:36:35-8081
attr configname factors_calibration_bosses
attr datetime 20230303-16:36:35
attr experiment factors_calibration_bosses
attr inifile omnetpp.ini
attr iterationvars $0=5
attr iterationvarsf 5-
attr measurement $0=5
attr network Network
attr processid 8081
attr repetition 27
attr replication #27
attr resultdir results
attr runnumber 87
attr seedset 27
param *.minion.arrival_mean 2
param *.minion.service_mean 1
param *.boss.arrival_mean 20
param *.boss.service_mean 5
param *.player.recover_rate_x 100
param **.minion.arrival_distribution 0
param **.minion.service_distribution 0
param **.boss.arrival_distribution 0
param **.boss.service_distribution 0

vector 0 Network.player minion_defeated_stat:vector ETV
attr source signal_minion_defeated
vector 1 Network.player minion_jobs_queue_number_stat:vector ETV
attr source signal_minion_jobs_queue_number
vector 2 Network.player minion_response_time_stat:vector ETV
attr source signal_minion_response_time
vector 3 Network.player minion_waiting_time_stat:vector ETV
attr source signal_minion_waiting_time
vector 4 Network.player minion_jobs_number_stat:vector ETV
attr source signal_minion_jobs_number
vector 5 Network.player boss_jobs_number_stat:vector ETV
attr source signal_boss_jobs_number
vector 6 Network.player boss_jobs_queue_number_stat:vector ETV
attr source signal_boss_jobs_queue_number
vector 7 Network.player minion_recovered_stat:vector ETV
attr source signal_minion_recovered
vector 8 Network.player boss_waiting_time_stat:vector ETV
attr source signal_boss_waiting_time
vector 9 Network.player boss_defeated_stat:vector ETV
attr source signal_boss_defeated
vector 10 Network.player boss_response_time_stat:vector ETV
attr source signal_boss_response_time
vector 11 Network.player minion_throughput:vector ETV
attr source signal_minion_throughput
vector 12 Network.player boss_throughput:vector ETV
attr source signal_boss_throughput
0	604	350.303878463028	187
0	605	350.489431522892	188
0	608	351.724278389041	189
0	609	352.085025608205	190
0	612	353.476813138984	191
0	615	354.304812905249	192
0	620	358.644490205439	193
0	621	358.867628979313	194
0	624	360.570736648513	195
0	627	361.03618531046	196
0	634	364.508071291495	197
0	635	365.020000059875	198
0	638	365.309765849311	199
0	639	365.446735260161	200
0	646	366.149052576156	201
0	649	367.629464597629	202
0	663	374.089194985679	203
0	666	374.555897768524	204
0	671	376.484162509335	205
0	672	377.700903804318	206
0	673	378.7290121426	207
0	674	379.329968883226	208
0	675	379.555580533466	209
0	676	380.023538748533	210
0	677	380.165570899319	211
0	678	380.362331726542	212
0	681	380.868106212104	213
0	684	382.670863045871	214
0	687	384.755609125144	215
0	704	399.881769673278	216
0	707	400.313082324231	217
0	708	401.64273549572	218
0	709	401.921296139336	219
0	716	403.851083513561	220
0	717	404.034346703303	221
0	718	404.70014321804	222
0	730	408.942750820724	223
0	731	409.726896654051	224
0	734	410.39031438046	225
0	735	410.702204041764	226
0	736	411.563023731814	227
0	739	412.486682322519	228
0	740	412.622349488261	229
0	741	413.223521284751	230
0	744	415.44394825135	231
0	825	480.778687080015	232
0	830	482.252912055237	233
0	831	482.570467768069	234
0	832	483.372948239667	235
0	833	484.769941643621	236
0	834	484.798102139029	237
0	835	485.331708603376	238
0	836	485.593573315122	239
0	837	486.963890550671	240
0	840	487.834419953599	241
0	841	488.233072876661	242
0	842	489.23448673333	243
0	843	490.061519186551	244
0	844	491.561178196087	245
0	847	493.279867338211	246
0	848	494.398909341347	247
0	849	494.786441124476	248
0	852	495.187103114229	249
0	857	498.937918871077	250
0	858	499.019290070137	251
0	861	500.000246490293	252
0	862	500.262046996021	253
0	865	501.936774395987	254
0	872	506.076223552534	255
0	875	507.220841622946	256
0	878	507.861926448656	257
0	879	510.301925346811	258
0	882	511.573071370533	259
0	885	511.71106414658	260
0	890	512.900975066459	261
0	891	513.085756048872	262
0	892	513.439281615712	263
0	893	514.910983981612	264
0	896	516.632775180584	265
0	897	517.006821068651	266
0	900	518.143558897747	267
0	901	518.389915941268	268
0	904	518.644380690283	269
0	907	519.729548588701	270
0	910	521.050608937066	271
0	911	521.28642237631	272
0	914	522.079365003221	273
0	915	522.2811577193	274
0	916	522.486300119361	275
0	919	526.548877828115	276
0	924	528.888239721997	277
0	927	531.262821651163	278
0	928	531.868654021474	279
0	939	539.738984009149	280
0	942	544.821431677697	281
0	943	547.300715700696	282
0	944	547.794611222124	283
0	945	547.868576687112	284
0	948	549.112802332769	285
0	949	550.394677363164	286
0	950	550.472964753181	287
0	956	557.536393870834	288
0	957	557.969144972448	289
0	960	558.045382447465	290
0	961	558.17827631011	291
0	962	558.945282620034	292
0	977	568.558627862985	293
0	984	576.117967361034	294
0	985	577.064735273429	295
0	986	577.09852507203	296
0	991	577.605979557674	297
0	992	578.603074025536	298
0	993	578.818298689023	299
0	994	579.000058984969	300
0	998	582.366700947942	301
0	999	583.654130831516	302
0	1002	584.541834428642	303
0	1005	584.917037514393	304
0	1008	586.625346902626	305
0	1024	600.159659142164	306
0	1034	606.727749917201	307
0	1035	607.415195560111	308
0	1048	610.954726186072	309
0	1049	611.037400219574	310
0	1050	611.610873546895	311
0	1053	612.27505365123	312
0	1064	621.197162270595	313
0	1067	624.815356919874	314
0	1071	627.128164233995	315
0	1074	630.041051986974	316
0	1075	630.098509867391	317
0	1082	633.621928808129	318
0	1085	634.580875252174	319
0	1088	635.28116644438	320
0	1106	647.180335601474	321
0	1107	649.596298361091	322
0	1108	650.367752054861	323
0	1109	651.369932505629	324
0	1143	688.976664606518	325
0	1144	689.096726320077	326
0	1145	689.363874929054	327
0	1146	689.532976284955	328
0	1162	699.737575434998	329
0	1163	699.757050994423	330
0	1164	700.302207658664	331
0	1175	705.784616694468	332
0	1178	706.049200473743	333
0	1179	706.365351112414	334
0	1180	708.562958821233	335
0	1181	709.908459855395	336
0	1184	711.671570895512	337
0	1185	712.321278717709	338
0	1188	713.02221197001	339
0	1189	713.900014819704	340
0	1194	715.323310493537	341
0	1195	715.729927330321	342
0	1196	715.830621951872	343
0	1197	715.940686644198	344
0	1198	716.140335768824	345
0	1199	716.1521465881	346
0	1202	717.081792951766	347
0	1203	717.14328034574	348
0	1204	718.814622036236	349
0	1205	719.431070588164	350
0	1206	719.881402684075	351
0	1207	723.280283949115	352
0	1208	724.248687843676	353
0	1216	728.715676189909	354
0	1217	729.549283870594	355
0	1218	730.124775576745	356
0	1221	731.399176260578	357
0	1222	732.480691444415	358
0	1223	732.521968132279	359
0	1230	734.066711817633	360
0	1237	735.965521856451	361
0	1240	737.170093819419	362
0	1243	737.707096278842	363
0	1244	738.391076973254	364
0	1247	741.493050432721	365
0	1274	760.038229575062	366
0	1320	796.552938417471	367
0	1321	797.248294710169	368
0	1322	798.404796543578	369
0	1323	799.046608999304	370
0	1324	799.333940313688	371
0	1325	799.648251598412	372
0	1328	801.014639434429	373
0	1329	802.140181273096	374
0	1330	802.295629350796	375
0	1337	804.184259716951	376
0	1338	804.58774044961	377
0	1341	805.991524676226	378
0	1344	808.888225766588	379
0	1345	809.335876748516	380
0	1346	809.371456574025	381
0	1347	809.578100984213	382
0	1348	810.910033716048	383
0	1351	813.649218090086	384
0	1354	816.723392836626	385
0	1355	816.789106276349	386
0	1356	817.088040810619	387
0	1357	817.096543311201	388
0	1358	817.652849494517	389
0	1359	818.349094321185	390
0	1360	819.158107230274	391
0	1361	819.345840192498	392
0	1364	821.007510964494	393
0	1365	821.778431544543	394
0	1366	823.146183294371	395
0	1369	823.417295497039	396
0	1370	823.51375823104	397
0	1371	823.706835092115	398
0	1374	824.482760185288	399
0	1377	824.734297206042	400
0	1378	825.456154410971	401
0	1379	825.699147808442	402
0	1380	828.670296612375	403
0	1383	830.262099926367	404
0	1384	830.487930728009	405
0	1387	831.395071377193	406
0	1388	832.150559073095	407
0	1389	833.6441877917	408
0	1390	833.974034844125	409
0	1391	834.919149175285	410
0	1394	835.08321440811	411
0	1395	835.37968761955	412
0	1416	855.277335856473	413
0	1417	856.300360596108	414
0	1418	856.512009232187	415
0	1425	858.23274909038	416
0	1426	859.014452591897	417
0	1427	859.959121337463	418
0	1428	860.450977555421	419
0	1429	860.586263593249	420
0	1430	860.804666539717	421
0	1431	863.345066080481	422
0	1432	863.955186439968	423
0	1435	864.69378407888	424
0	1438	865.377012152576	425
0	1441	866.903067462816	426
0	1444	869.625662652637	427
0	1445	870.118984177713	428
0	1446	870.867081410379	429
0	1449	871.995392849805	430
0	1454	872.709273392599	431
0	1459	875.951737441397	432
0	1460	876.74614391728	433
0	1461	877.597138794843	434
0	1462	877.727936434987	435
0	1463	878.258602756214	436
0	1466	878.566106091043	437
0	1467	879.862707527332	438
0	1470	881.428059396988	439
0	1475	884.475788856045	440
0	1478	885.238183649843	441
0	1479	885.725215596646	442
0	1492	897.575268969853	443
0	1497	899.19401343347	444
0	1498	899.214940035644	445
0	1499	899.763595753509	446
0	1500	900.02520130347	447
0	1509	902.08002196599	448
0	1510	904.127531831805	449
0	1522	909.134396808422	450
0	1523	909.938827487233	451
0	1524	910.3198755894	452
0	1525	910.736602919374	453
0	1526	911.980081541238	454
0	1531	913.203006805643	455
0	1532	913.311643042194	456
0	1533	913.314036297734	457
0	1536	915.270816308332	458
0	1539	916.301705545661	459
0	1542	919.398055175279	460
0	1545	921.54813027621	461
0	1548	923.873508201647	462
0	1551	929.146122152845	463
0	1554	931.439599033092	464
0	1557	932.916740021411	465
0	1564	935.567044603862	466
0	1565	936.590690956984	467
0	1566	936.733410681998	468
0	1569	937.180142798683	469
0	1572	937.466546702886	470
0	1575	938.837681599332	471
0	1581	945.750895077662	472
0	1584	947.731412035942	473
0	1589	949.289134690764	474
0	1590	949.503143048076	475
0	1593	955.242817166934	476
0	1596	956.765354268563	477
0	1599	958.914821710851	478
0	1602	960.233355016565	479
0	1607	961.398804406173	480
0	1608	961.960523349291	481
0	1611	962.820282210785	482
0	1614	964.20254794135	483
0	1617	968.182439575611	484
0	1631	981.217310803154	485
0	1634	983.43547702383	486
0	1646	988.750274898852	487
0	1647	988.813824888381	488
0	1650	990.406228220511	489
0	1655	992.035278667139	490
0	1665	996.518811760831	491
0	1666	996.739775949078	492
0	1669	996.858401540264	493
0	1670	997.212045117268	494
0	1671	997.897185538715	495
0	1694	1016.242616061029	496
0	1697	1017.497645041563	497
0	1702	1018.816937802829	498
0	1705	1020.705987141115	499
0	1706	1021.529116598403	500
0	1709	1024.38306409341	501
0	1712	1027.076763332799	502
0	1715	1029.37391325824	503
0	1718	1030.855999079789	504
0	1728	1040.563208801577	505
0	1729	1040.670482939999	506
0	1730	1040.828766709836	507
0	1731	1041.148734409413	508
0	1732	1041.500289846691	509
0	1735	1042.977106966685	510
0	1736	1043.555144727216	511
0	1737	1045.184570593282	512
0	1738	1045.648133566635	513
0	1741	1046.696831150688	514
0	1746	1047.520937648712	515
0	1749	1048.558225618682	516
0	1756	1050.501831694245	517
0	1757	1050.543270831897	518
0	1758	1052.53917160325	519
0	1761	1053.488852470278	520
0	1764	1054.016629743405	521
0	1765	1054.704303625407	522
0	1766	1055.412783154657	523
0	1767	1055.428175464938	524
0	1770	1057.299325843172	525
0	1771	1057.673610027929	526
0	1772	1058.66016872152	527
0	1786	1073.93019281168	528
0	1787	1074.201768502185	529
0	1788	1074.516653522576	530
0	1798	1081.98699021269	531
0	1805	1085.686694726336	532
0	1806	1086.749792186686	533
0	1807	1086.812006257868	534
0	1808	1088.783954070741	535
0	1811	1088.970408234419	536
0	1816	1089.388047092603	537
0	1817	1091.66065570119	538
0	1820	1092.252396370046	539
0	1821	1092.344347484691	540
0	1822	1092.527137498509	541
0	1825	1094.041006305256	542
0	1830	1095.515738712238	543
0	1831	1096.484809910791	544
0	1832	1096.962510598235	545
0	1833	1097.86513385342	546
0	1834	1098.200658088496	547
0	1835	1098.420284620668	548
0	1836	1098.673240331269	549
0	1839	1100.108280288651	550
0	1842	1103.879043264285	551
0	1845	1105.567629572301	552
0	1848	1106.586996085283	553
0	1853	1109.670365018502	554
0	1856	1111.541766623466	555
0	1857	1111.723419480054	556
0	1860	1113.610304587074	557
0	1865	1118.498576677217	558
0	1866	1118.584246953191	559
0	1869	1119.183304323611	560
0	1874	1123.700748692049	561
0	1875	1123.8224909097	562
0	1878	1124.803367427173	563
0	1881	1126.415275685692	564
0	1884	1128.301863656208	565
0	1889	1132.659521592862	566
0	1890	1133.288520287448	567
0	1893	1137.746161107199	568
0	1898	1143.696180541508	569
0	1899	1144.140729631211	570
0	1902	1146.970497941172	571
0	1905	1148.668213825856	572
0	1908	1149.641409977464	573
0	1911	1153.446501023821	574
0	1914	1154.96856062327	575
0	1921	1159.944611856293	576
0	1922	1159.994414645311	577
0	1925	1161.462729893384	578
0	1926	1162.609012318565	579
0	1933	1164.753060375509	580
0	1934	1168.44962844682	581
0	1942	1172.341506440539	582
0	1949	1179.917076996194	583
0	1959	1186.056676037765	584
0	1966	1187.709640144423	585
0	1967	1189.524372155829	586
0	1968	1190.172281344903	587
0	1969	1191.140250211724	588
0	1972	1191.730255707001	589
0	1975	1193.386442702529	590
0	1976	1194.679846101692	591
0	1977	1195.3462761453	592
0	1982	1197.062861197284	593
0	1983	1197.232836981592	594
0	1984	1198.308950491504	595
0	1987	1199.590708202521	596
0	1990	1201.167477738532	597
0	1991	1202.100792757516	598
0	1992	1202.13810242745	599
0	1997	1204.35339662666	600
0	1998	1204.394133570832	601
0	2005	1210.064381819014	602
0	2006	1210.1272189016	603
0	2007	1210.163371220443	604
0	2010	1210.616185798592	605
0	2016	1214.32888393124	606
0	2019	1216.749319274292	607
0	2022	1221.541975758152	608
0	2025	1223.027715262099	609
0	2030	1224.135645940733	610
0	2031	1224.320047382003	611
0	2034	1227.681638291208	612
0	2039	1232.166023350594	613
0	2049	1235.869732605505	614
0	2052	1237.997885849393	615
0	2053	1238.146658848695	616
0	2054	1238.687887357828	617
0	2055	1238.968340428502	618
0	2058	1241.424407263561	619
0	2061	1242.727436457234	620
0	2064	1246.311262428566	621
0	2067	1251.957682487402	622
0	2070	1253.513885507642	623
0	2073	1254.463600780752	624
0	2076	1254.98364037181	625
0	2079	1257.404670164498	626
0	2082	1266.81482284695	627
0	2087	1268.062117581341	628
0	2088	1268.566130546114	629
0	2164	1322.705522359757	630
0	2165	1324.127211558272	631
0	2166	1325.351080420395	632
0	2169	1327.734642799838	633
0	2170	1327.898139351136	634
0	2173	1330.231307956608	635
0	2193	1339.134426093222	636
0	2194	1339.422919329778	637
0	2197	1340.216688659305	638
0	2200	1340.6464128091	639
0	2201	1341.714599833232	640
0	2210	1346.469529134228	641
0	2211	1347.130552276439	642
0	2212	1347.161522606527	643
0	2219	1349.998232458145	644
0	2222	1351.31616192562	645
0	2223	1351.433408770264	646
0	2224	1351.434603627956	647
0	2225	1351.564765244133	648
0	2226	1351.933879493604	649
0	2227	1352.143094587979	650
0	2230	1353.594464708003	651
0	2235	1355.925104781852	652
0	2236	1356.381548361516	653
0	2237	1356.940317879016	654
0	2238	1357.314709367477	655
0	2241	1358.54917165904	656
0	2245	1361.773212304169	657
0	2246	1362.91224461309	658
0	2251	1363.531133960738	659
0	2261	1366.649459596977	660
0	2262	1367.306694299026	661
0	2263	1367.396885327299	662
0	2264	1369.368111697414	663
0	2265	1369.370231315267	664
0	2266	1370.844616585595	665
0	2267	1370.963494915903	666
0	2272	1373.446641840504	667
0	2273	1373.610903517041	668
0	2274	1373.758065082685	669
0	2277	1374.522953939351	670
0	2280	1375.150178382493	671
0	2283	1376.631882948925	672
0	2284	1376.710637544239	673
0	2285	1377.251145750596	674
0	2286	1378.676551413342	675
0	2291	1380.336441006413	676
0	2296	1382.709117661657	677
0	2301	1384.906977045738	678
0	2304	1385.486861842898	679
0	2307	1386.407051919563	680
0	2308	1387.224776877964	681
0	2313	1388.420263702518	682
0	2314	1388.45509207859	683
0	2315	1389.204621400352	684
0	2318	1389.61635794497	685
0	2321	1390.260716866316	686
0	2322	1390.709137127639	687
0	2323	1391.264588679376	688
0	2324	1391.320893495232	689
0	2327	1392.579298650856	690
0	2330	1394.874279104235	691
0	2331	1395.929870124533	692
0	2332	1396.068088638452	693
0	2337	1397.634659013928	694
0	2340	1399.416332805474	695
0	2341	1399.486469525941	696
0	2342	1399.81009279347	697
0	2345	1400.302763246786	698
0	2346	1401.213216634609	699
0	2347	1401.643153222953	700
0	2348	1404.113280711192	701
0	2349	1404.419046723957	702
0	2350	1405.026980410406	703
0	2351	1405.200371922644	704
0	2352	1405.695707261608	705
0	2353	1405.888889365635	706
0	2354	1406.387718901129	707
0	2355	1406.829911970184	708
0	2358	1407.647309494147	709
0	2363	1410.201508799863	710
0	2364	1410.803989883451	711
0	2367	1414.154450393121	712
0	2370	1415.370909348574	713
0	2373	1421.067342712165	714
0	2378	1421.705117532738	715
0	2379	1421.854099694537	716
0	2382	1424.602482474224	717
0	2385	1426.005411181028	718
0	2388	1427.44866446927	719
0	2391	1438.012696543495	720
0	2396	1440.042765131858	721
0	2397	1440.348692847771	722
0	2407	1448.70879127147	723
0	2408	1449.025147527276	724
0	2442	1463.773125201588	725
0	2443	1464.24475045774	726
0	2444	1464.250019703494	727
0	2449	1466.350600148841	728
0	2454	1469.202739505175	729
0	2457	1469.306933547385	730
0	2458	1469.326541319456	731
0	2459	1469.556613231968	732
0	2460	1471.422065085737	733
0	2461	1471.795859332774	734
0	2462	1472.363138167335	735
0	2467	1473.349500298739	736
0	2470	1478.087649006611	737
0	2471	1478.342717788513	738
0	2476	1479.064477954771	739
0	2477	1480.1808567861	740
0	2478	1480.899447686303	741
0	2481	1481.132675589793	742
0	2482	1481.134943647224	743
0	2483	1481.522712572958	744
0	2486	1482.577130604249	745
0	2487	1484.473925769262	746
0	2488	1485.295431970522	747
0	2496	1492.287419206571	748
0	2499	1494.062194941774	749
0	2502	1494.270022220399	750
0	2505	1495.324843817424	751
0	2506	1495.577158516202	752
0	2507	1495.882092512348	753
0	2512	1498.987494901289	754
0	2513	1500.208631453298	755
0	2516	1501.518451258358	756
0	2517	1501.810917140586	757
0	2520	1503.848641622506	758
0	2523	1507.902607737691	759
0	2526	1510.65210309419	760
0	2532	1514.402719489643	761
0	2535	1515.82065437531	762
0	2538	1519.399724053757	763
0	2552	1529.472441919767	764
0	2553	1530.459601509649	765
0	2554	1530.974306902063	766
0	2555	1532.220985401405	767
0	2556	1532.706060977696	768
0	2559	1534.914654073671	769
0	2564	1537.754217324705	770
0	2569	1538.89399313397	771
0	2572	1541.186659441463	772
0	2573	1542.117090676645	773
0	2574	1543.854601705798	774
0	2577	1546.848599890234	775
0	2580	1548.601221666015	776
0	2583	1554.18284390402	777
0	2591	1557.127549628996	778
0	2592	1557.810042921859	779
0	2595	1562.344266140262	780
0	2600	1572.230560140317	781
0	2601	1572.858724827932	782
0	2607	1574.654382479002	783
0	2612	1578.397659462739	784
0	2617	1579.678782307057	785
0	2618	1580.019816807045	786
0	2619	1580.250926382085	787
0	2622	1582.388652362213	788
0	2625	1583.331011781323	789
0	2630	1587.836224388308	790
0	2631	1590.040000520816	791
0	2634	1593.445536392177	792
0	2637	1595.757541347383	793
0	2640	1596.426663778895	794
0	2645	1598.052299076809	795
0	2646	1598.267220652589	796
0	2649	1599.810821296807	797
0	2652	1600.805456863156	798
0	2655	1602.363592822523	799
0	2660	1608.078229403198	800
0	2661	1608.143782346727	801
0	2664	1609.729246994118	802
0	2669	1613.539529927592	803
0	2670	1613.564019171893	804
0	2675	1615.422180581665	805
0	2678	1617.322830472209	806
0	2706	1634.696805180905	807
0	2707	1635.393464192127	808
0	2712	1635.977106330976	809
0	2713	1637.716422629523	810
0	2714	1639.055396619708	811
0	2719	1641.597665267396	812
0	2720	1642.080275911478	813
0	2721	1642.15265465319	814
0	2722	1643.762701592932	815
0	2723	1643.813277081623	816
0	2724	1644.40428863325	817
0	2727	1644.737644317752	818
0	2728	1646.274601516997	819
0	2729	1646.333295428758	820
0	2730	1647.318631173515	821
0	2755	1670.308758844341	822
0	2758	1671.142786602159	823
0	2759	1671.488037795323	824
0	2760	1672.793425903986	825
0	2761	1672.946349609655	826
0	2762	1673.683487481724	827
0	2763	1676.104092947911	828
0	2764	1676.769003268675	829
0	2775	1682.392424259794	830
0	2780	1686.507234731513	831
0	2781	1686.543787255475	832
0	2782	1687.426159567759	833
0	2785	1688.009602021846	834
0	2786	1689.496530848201	835
0	2787	1689.502589811536	836
0	2788	1689.986589688496	837
0	2789	1690.17658670531	838
0	2790	1690.715735829129	839
0	2793	1691.08800344847	840
0	2794	1691.177494970234	841
0	2797	1693.791887926358	842
0	2798	1693.966644218181	843
0	2799	1694.384577711674	844
0	2802	1696.100263526735	845
0	2807	1698.578281161234	846
0	2808	1698.65293573014	847
0	2828	1711.062626300048	848
0	2829	1711.450339511164	849
0	2830	1711.480877148475	850
0	2835	1713.291429636261	851
0	2838	1714.017983237064	852
0	2841	1714.243593682346	853
0	2842	1714.448005097728	854
0	2847	1717.435236663524	855
0	2848	1717.691355452711	856
0	2851	1720.142678977025	857
0	2854	1720.606855397333	858
0	2859	1723.95778500201	859
0	2860	1726.912306013318	860
0	2863	1728.28734304846	861
0	2866	1728.862398827855	862
0	2871	1729.95347925958	863
0	2874	1731.755492967256	864
0	2880	1733.418930615311	865
0	2881	1734.668578544649	866
0	2882	1735.298531604011	867
0	2885	1738.874318714708	868
0	2909	1763.34195310526	869
0	2910	1763.535493597683	870
0	2911	1764.623622521396	871
0	2912	1765.539989912438	872
0	2913	1765.68773173762	873
0	2914	1765.838775811296	874
0	2915	1766.993913215507	875
0	2916	1767.967981966358	876
0	2921	1771.881347295981	877
0	2922	1772.385231407396	878
0	2925	1774.477387900913	879
0	2928	1779.148838852272	880
0	2931	1779.488588220604	881
0	2966	1799.467070392463	882
0	2969	1801.854523334459	883
0	2970	1802.222352985608	884
0	2973	1803.811513434533	885
0	2974	1804.350792776417	886
0	2975	1805.287393435135	887
0	2976	1805.818609934858	888
0	2979	1806.76686148346	889
0	2982	1807.613424511991	890
0	2983	1807.852802522212	891
0	2984	1809.609770595534	892
0	2985	1809.872881915188	893
0	2988	1810.401711275031	894
0	2989	1813.214235687043	895
0	2990	1814.365426129266	896
0	2991	1815.093948214511	897
0	2992	1815.345302444486	898
0	2993	1815.691370620602	899
0	2998	1817.158558911922	900
0	2999	1817.321259429267	901
0	3004	1818.47299719009	902
0	3005	1819.0476244486	903
0	3006	1819.384357302351	904
0	3009	1821.577248963894	905
0	3012	1824.078988053071	906
0	3017	1826.447904575665	907
0	3018	1827.966451334833	908
0	3021	1831.664491779073	909
0	3024	1838.297027516776	910
0	3027	1841.25218889109	911
0	3032	1843.26639132558	912
0	3033	1843.770371638024	913
0	3036	1844.025033516102	914
0	3039	1845.537705069618	915
0	3042	1846.367328094763	916
0	3045	1848.466432313804	917
0	3050	1852.703110173497	918
0	3068	1865.789657598173	919
0	3071	1867.506733023161	920
0	3072	1868.519153455023	921
0	3081	1870.463182776141	922
0	3082	1870.478458390579	923
0	3083	1871.598529021019	924
0	3084	1872.06112101106	925
0	3085	1873.308417034555	926
0	3086	1874.008601487145	927
0	3087	1874.112446434939	928
0	3088	1874.574448080884	929
0	3089	1875.016323384386	930
0	3092	1876.33212965283	931
0	3093	1877.166858013846	932
0	3096	1878.591027254484	933
0	3101	1880.39038530842	934
0	3102	1881.029947261718	935
0	3109	1882.28181377617	936
0	3110	1882.888010845374	937
0	3111	1883.403660702912	938
0	3114	1883.710167407112	939
0	3117	1885.05636498334	940
0	3120	1887.200795544918	941
0	3123	1890.370400182711	942
0	3136	1896.80305703802	943
0	3137	1897.172718020761	944
0	3140	1897.936971152125	945
0	3141	1899.180467292595	946
0	3144	1899.76716064366	947
0	3147	1900.419170816387	948
0	3150	1903.672172787391	949
0	3153	1905.270592630192	950
0	3159	1910.310883657396	951
0	3162	1912.876170735054	952
0	3171	1916.487738319672	953
0	3172	1916.708319437869	954
0	3173	1917.870425224125	955
0	3174	1920.120615704251	956
0	3177	1924.219962755893	957
0	3184	1927.433749774426	958
0	3187	1930.581095670921	959
0	3188	1930.801064564704	960
0	3193	1932.441909913699	961
0	3194	1932.616071543459	962
0	3195	1933.734658208564	963
0	3200	1936.307284288548	964
0	3201	1936.36504622786	965
0	3204	1939.264860178571	966
0	3209	1943.978388544578	967
0	3214	1944.518106969072	968
0	3215	1944.567420855884	969
0	3218	1946.540579720459	970
0	3219	1947.875899479091	971
0	3222	1948.278452813459	972
0	3225	1948.786339269506	973
0	3228	1950.340458106502	974
0	3231	1951.503731255741	975
0	3259	1971.653313695176	976
0	3275	1982.412117027384	977
0	3276	1984.076508726195	978
0	3277	1985.352986271522	979
0	3280	1986.795842666991	980
0	3283	1989.457183358514	981
0	3284	1989.686230944324	982
0	3293	1991.287746196226	983
0	3296	1992.426167174668	984
0	3297	1992.935280104877	985
0	3298	1994.069710094178	986
0	3303	1996.213526213951	987
0	3304	1997.146419653668	988
0	3305	1998.509564709658	989
0	3308	1999.536299566513	990
0	3311	2001.048484159292	991
0	3312	2001.085684329547	992
0	3315	2002.72152678651	993
0	3320	2004.897013257582	994
0	3321	2005.434522025331	995
0	3322	2005.458867958548	996
0	3323	2006.299663195016	997
0	3328	2007.351422718596	998
0	3329	2007.401105384052	999
0	3332	2008.207349845792	1000
0	3333	2008.215889241068	1001
0	3340	2010.232430023901	1002
0	3341	2010.315417859964	1003
0	3342	2010.390411258079	1004
0	3343	2010.777475442393	1005
0	3344	2010.996900848907	1006
0	3345	2011.843711001246	1007
0	3350	2014.453152988739	1008
0	3353	2015.888908874089	1009
0	3361	2019.504294112131	1010
0	3362	2019.588302146206	1011
0	3363	2020.432720408312	1012
0	3364	2020.453746444055	1013
0	3367	2021.822511231051	1014
0	3368	2022.417969892216	1015
0	3384	2030.961694805523	1016
0	3389	2033.277169254245	1017
0	3392	2036.434932027127	1018
0	3393	2036.545123615781	1019
0	3396	2037.4223220075	1020
0	3401	2038.554632237815	1021
0	3402	2039.701821644426	1022
0	3403	2039.906127857134	1023
0	3404	2040.61922525687	1024
0	3405	2040.676342501813	1025
0	3406	2041.436398042924	1026
0	3407	2042.300938444221	1027
0	3408	2042.562305445625	1028
0	3411	2042.596044760533	1029
0	3418	2044.606087379544	1030
0	3419	2046.118932522921	1031
0	3420	2046.3160416004	1032
0	3421	2047.151461847054	1033
0	3422	2047.376919825837	1034
0	3423	2047.607167638329	1035
0	3426	2048.677243930659	1036
0	3429	2052.962190754497	1037
0	3434	2058.270150223029	1038
0	3435	2058.282098714278	1039
0	3438	2060.588329860767	1040
0	3441	2061.79852940872	1041
0	3446	2064.637633652513	1042
0	3449	2066.002207059015	1043
0	3450	2066.16171594891	1044
0	3457	2068.439388680479	1045
0	3460	2071.386965883139	1046
0	3461	2072.059032648558	1047
0	3464	2072.392032098826	1048
0	3465	2073.027665497585	1049
0	3468	2074.264958023887	1050
0	3475	2081.259345152033	1051
0	3476	2081.582354227224	1052
0	3481	2084.518547950623	1053
0	3484	2085.401936676341	1054
0	3485	2085.466819426107	1055
0	3492	2089.646175035969	1056
0	3493	2089.971681567457	1057
0	3494	2091.529796557952	1058
0	3497	2091.952277476764	1059
0	3498	2092.59298946817	1060
0	3503	2094.454017685492	1061
0	3504	2094.687432243267	1062
0	3507	2097.256919091417	1063
0	3510	2100.727962354948	1064
0	3513	2103.165487127201	1065
0	3516	2104.682068402142	1066
0	3524	2115.838403262137	1067
0	3525	2116.833407026671	1068
0	3528	2117.566384311906	1069
0	3531	2118.687548907433	1070
0	3549	2125.177060917018	1071
0	3550	2125.473024137319	1072
0	3551	2125.848074986223	1073
0	3554	2127.830782464501	1074
0	3561	2129.19935374483	1075
0	3562	2129.781088421313	1076
0	3565	2130.405774609936	1077
0	3566	2130.991756861056	1078
0	3569	2133.182837834357	1079
0	3574	2134.516420965926	1080
0	3579	2135.073684853063	1081
0	3592	2139.643268891782	1082
0	3593	2140.087987795323	1083
0	3596	2141.123864078921	1084
0	3599	2142.612870225147	1085
0	3602	2145.429187982256	1086
0	3603	2145.761938175481	1087
0	3606	2146.440394812219	1088
0	3607	2146.512220486571	1089
0	3610	2148.73797472719	1090
0	3611	2148.750202539671	1091
0	3612	2148.801110131407	1092
0	3613	2149.651564152579	1093
0	3616	2153.575036920013	1094
0	3619	2154.149479424116	1095
0	3620	2155.5013717024	1096
0	3623	2155.895122357946	1097
0	3624	2156.664156522658	1098
0	3625	2156.840301664771	1099
0	3626	2157.67646702046	1100
0	3631	2158.728387283039	1101
0	3634	2159.305991021698	1102
0	3637	2159.76683759094	1103
0	3642	2160.861440746403	1104
0	3645	2161.881278781854	1105
0	3649	2162.186481715373	1106
0	3650	2162.492364506696	1107
0	3653	2163.497000600468	1108
0	3656	2164.561777092486	1109
0	3657	2165.117375637681	1110
0	3665	2171.508820205728	1111
0	3666	2171.59137995923	1112
0	3672	2173.898979688229	1113
0	3675	2175.057325578608	1114
0	3680	2184.251148275844	1115
0	3685	2186.13078944029	1116
0	3686	2186.351689296669	1117
0	3689	2186.765031982806	1118
0	3690	2186.832905310937	1119
0	3696	2191.243512492968	1120
0	3699	2197.411529811044	1121
0	3702	2197.772123686626	1122
0	3705	2198.713581104659	1123
0	3708	2203.604723426167	1124
0	3711	2206.318128370517	1125
0	3718	2208.51315510659	1126
0	3719	2209.11991215031	1127
0	3724	2210.04985915355	1128
0	3727	2210.783393586733	1129
0	3730	2212.040195150916	1130
0	3731	2212.852730756352	1131
0	3734	2213.066996825736	1132
0	3735	2214.576427644727	1133
0	3738	2216.247915484302	1134
0	3741	2219.36634496714	1135
0	3744	2225.126955828314	1136
0	3751	2227.814286546093	1137
0	3752	2228.008996428102	1138
0	3753	2228.750136784068	1139
0	3758	2233.570044308797	1140
0	3764	2234.217754318428	1141
0	3767	2235.088965893241	1142
0	3768	2236.431852188316	1143
0	3776	2241.455082597816	1144
0	3777	2243.995259890917	1145
0	3786	2245.217282952512	1146
0	3787	2246.713053708763	1147
0	3788	2248.052183461831	1148
0	3791	2249.011458626468	1149
0	3796	2250.715834356103	1150
0	3797	2251.200371947159	1151
0	3798	2251.508131350121	1152
0	3808	2259.679487904125	1153
0	3809	2260.129693725297	1154
0	3816	2261.147779243763	1155
0	3819	2261.781475301141	1156
0	3820	2263.623458805104	1157
0	3821	2264.245892505947	1158
0	3824	2265.779278884368	1159
0	3825	2265.799607309623	1160
0	3828	2266.565382528942	1161
0	3831	2267.569567574033	1162
0	3834	2269.497174165209	1163
0	3837	2270.491162133271	1164
0	3840	2272.696576267665	1165
0	3843	2274.276559992296	1166
0	3846	2274.624957041317	1167
0	3849	2278.191446339299	1168
0	3852	2282.217663393776	1169
0	3855	2284.653469244893	1170
0	3858	2285.804958808144	1171
0	3863	2293.834274565459	1172
0	3864	2294.300705115619	1173
0	3867	2295.149029746541	1174
0	3872	2296.689310904324	1175
0	3877	2303.9809254293	1176
0	3878	2304.901960061185	1177
0	3879	2306.136494874318	1178
0	3882	2311.765632612701	1179
0	3885	2312.850720350004	1180
0	3892	2314.060565991154	1181
0	3893	2315.150234678813	1182
0	3894	2315.194662175624	1183
0	3901	2317.05218737836	1184
0	3902	2318.012158710173	1185
0	3903	2318.067832353488	1186
0	3906	2322.471755379868	1187
0	3911	2325.003184177954	1188
0	3914	2326.801949791276	1189
0	3917	2328.027162424763	1190
0	3918	2328.33234462347	1191
0	3921	2331.677783478479	1192
0	3926	2337.897886028848	1193
0	3927	2338.644771986764	1194
0	3934	2340.967380301011	1195
0	3935	2341.130346106216	1196
0	3936	2341.564126051952	1197
0	3941	2343.644149804345	1198
0	3946	2344.542194991789	1199
0	3949	2345.14037148414	1200
0	3963	2354.018996967181	1201
0	3964	2354.783716465325	1202
0	3967	2355.751274493001	1203
0	3970	2357.844464073029	1204
0	3971	2357.894316976301	1205
0	3976	2358.745767732054	1206
0	3980	2359.212528712152	1207
0	3981	2359.284164611988	1208
0	3984	2360.043331450478	1209
0	3987	2362.23026517442	1210
0	3990	2362.771019115335	1211
0	3993	2363.416583641833	1212
0	3994	2367.0350985737	1213
0	3999	2369.35850859364	1214
0	4015	2384.619288687325	1215
0	4016	2384.852579912267	1216
0	4017	2385.38965366089	1217
0	4028	2390.620210332819	1218
0	4031	2393.41516379647	1219
0	4032	2394.048439705029	1220
0	4033	2395.54706337846	1221
0	4034	2395.622366314316	1222
0	4037	2395.973336127359	1223
0	4040	2396.429682262759	1224
0	4041	2397.016932700574	1225
0	4042	2397.438911851536	1226
0	4045	2398.281602279744	1227
0	4046	2398.416357597511	1228
0	4047	2399.550826594016	1229
0	4052	2400.095373073349	1230
0	4053	2400.293798502598	1231
0	4056	2400.470294233211	1232
0	4057	2401.456404619056	1233
0	4058	2402.145994654709	1234
0	4061	2403.237026736829	1235
0	4062	2403.488082088335	1236
0	4065	2406.788933618232	1237
0	4068	2414.133351690343	1238
0	4071	2415.092588382716	1239
0	4074	2415.596379427287	1240
0	4077	2416.114341627611	1241
0	4087	2421.034809778262	1242
0	4090	2422.819431778243	1243
0	4091	2423.071971514976	1244
0	4094	2423.221226839938	1245
0	4095	2423.387709490956	1246
0	4107	2429.980453561421	1247
0	4108	2430.357881140497	1248
0	4113	2430.997943888286	1249
0	4114	2431.375209755469	1250
0	4115	2431.417537154561	1251
0	4116	2431.673318594904	1252
0	4119	2434.023747463	1253
0	4122	2434.940799259982	1254
0	4129	2437.459209581458	1255
0	4130	2437.718438930132	1256
0	4131	2440.887970194231	1257
0	4134	2444.514562619778	1258
0	4137	2445.840458150871	1259
0	4142	2447.104615164739	1260
0	4145	2448.809464662309	1261
0	4148	2449.986956128347	1262
0	4149	2450.6104462375	1263
0	4152	2451.25420975939	1264
0	4158	2458.475480439506	1265
0	4168	2462.311062188676	1266
0	4169	2463.236969353185	1267
0	4170	2463.25604855798	1268
0	4177	2470.248440405636	1269
0	4180	2471.141565783219	1270
0	4183	2472.245438251341	1271
0	4184	2472.478984417293	1272
0	4185	2472.692605680479	1273
0	4188	2476.129519547582	1274
0	4198	2483.768601198696	1275
0	4201	2485.843325850138	1276
0	4202	2485.881717449367	1277
0	4203	2486.281251442933	1278
0	4206	2488.147125921924	1279
0	4211	2491.634106373144	1280
0	4212	2492.356274889831	1281
0	4215	2493.405957417136	1282
1	604	350.303878463028	2
1	605	350.489431522892	1
1	607	351.18827442185	1
1	608	351.724278389041	1
1	609	352.085025608205	0
1	611	352.733635290656	0
1	612	353.476813138984	0
1	614	354.044382022559	0
1	615	354.304812905249	0
1	617	358.022686627646	0
1	619	358.316600262757	1
1	620	358.644490205439	1
1	621	358.867628979313	0
1	623	360.236413723926	0
1	624	360.570736648513	0
1	626	360.810377999877	0
1	627	361.03618531046	0
1	629	363.398680190926	0
1	631	363.966967022522	1
1	633	364.26794752521	2
1	634	364.508071291495	2
1	635	365.020000059875	1
1	637	365.02922104887	1
1	638	365.309765849311	1
1	639	365.446735260161	0
1	641	365.708230933843	0
1	643	365.743461544567	1
1	645	365.88485287584	2
1	646	366.149052576156	2
1	648	366.833976828769	2
1	649	367.629464597629	2
1	651	367.940680726563	2
1	653	368.693796039353	3
1	657	371.143247385555	4
1	659	372.361249964628	5
1	661	373.943176905781	6
1	663	374.089194985679	6
1	665	374.275512036129	6
1	666	374.555897768524	6
1	668	374.605685820569	6
1	670	375.599420333253	7
1	671	376.484162509335	7
1	672	377.700903804318	6
1	673	378.7290121426	5
1	674	379.329968883226	4
1	675	379.555580533466	3
1	676	380.023538748533	2
1	677	380.165570899319	1
1	678	380.362331726542	0
1	680	380.769665840754	0
1	681	380.868106212104	0
1	683	382.047729331048	0
1	684	382.670863045871	0
1	686	384.686416708797	0
1	687	384.755609125144	0
1	692	392.007873181537	0
1	696	393.657791637988	1
1	698	395.065221226175	2
1	700	396.196018008815	3
1	702	396.536814199825	4
1	704	399.881769673278	4
1	706	399.949585679869	4
1	707	400.313082324231	4
1	708	401.64273549572	3
1	709	401.921296139336	2
1	711	402.026682021222	2
1	713	403.304154285918	3
1	715	403.350748697411	4
1	716	403.851083513561	4
1	717	404.034346703303	3
1	718	404.70014321804	2
1	720	405.528445517992	2
1	722	405.593305299969	3
1	724	405.753899615284	4
1	726	406.772041706562	5
1	730	408.942750820724	5
1	731	409.726896654051	4
1	733	409.897594773934	4
1	734	410.39031438046	4
1	735	410.702204041764	3
1	736	411.563023731814	2
1	738	412.019471488203	2
1	739	412.486682322519	2
1	740	412.622349488261	1
1	741	413.223521284751	0
1	743	413.831795725284	0
1	744	415.44394825135	0
1	748	426.896225959835	0
1	752	428.414801783165	1
1	754	429.356349810076	2
1	756	429.356907007644	3
1	760	429.617362889573	4
1	762	431.700086313219	5
1	766	435.426482287856	6
1	768	435.559931295771	7
1	770	438.790801223744	8
1	774	441.389175667548	9
1	776	441.688251942238	10
1	778	441.970924680503	11
1	781	447.509724764273	12
1	783	448.281584484245	13
1	785	448.351858752026	14
1	787	448.827380842043	15
1	789	451.689186599629	16
1	791	451.733012801173	17
1	795	459.535608176895	18
1	797	459.794060134659	19
1	801	460.421470779819	20
1	803	461.850103118554	21
1	805	463.843507922834	22
1	809	468.202172799685	23
1	813	468.757512029696	24
1	816	471.253827631317	25
1	819	471.484937708034	26
1	822	474.366846011899	27
1	825	480.778687080015	27
1	827	481.05203825175	27
1	829	481.974566150513	28
1	830	482.252912055237	28
1	831	482.570467768069	27
1	832	483.372948239667	26
1	833	484.769941643621	25
1	834	484.798102139029	24
1	835	485.331708603376	23
1	836	485.593573315122	22
1	837	486.963890550671	21
1	839	487.051761298054	21
1	840	487.834419953599	21
1	841	488.233072876661	20
1	842	489.23448673333	19
1	843	490.061519186551	18
1	844	491.561178196087	17
1	846	493.006050499707	17
1	847	493.279867338211	17
1	848	494.398909341347	16
1	849	494.786441124476	15
1	851	495.068067417489	15
1	852	495.187103114229	15
1	854	496.059322438208	15
1	856	497.31787541527	16
1	857	498.937918871077	16
1	858	499.019290070137	15
1	860	499.06560182804	15
1	861	500.000246490293	15
1	862	500.262046996021	14
1	864	501.837042739652	14
1	865	501.936774395987	14
1	867	503.082013800783	14
1	869	503.922680550354	15
1	871	505.458229502676	16
1	872	506.076223552534	16
1	874	507.178350403649	16
1	875	507.220841622946	16
1	877	507.404147657909	16
1	878	507.861926448656	16
1	879	510.301925346811	15
1	881	511.477739583704	15
1	882	511.573071370533	15
1	884	511.578819546566	15
1	885	511.71106414658	15
1	887	511.736052782911	15
1	889	511.860447145258	16
1	890	512.900975066459	16
1	891	513.085756048872	15
1	892	513.439281615712	14
1	893	514.910983981612	13
1	895	515.388284787736	13
1	896	516.632775180584	13
1	897	517.006821068651	12
1	899	517.327311922107	12
1	900	518.143558897747	12
1	901	518.389915941268	11
1	903	518.480553763092	11
1	904	518.644380690283	11
1	906	518.934667347217	11
1	907	519.729548588701	11
1	909	520.952412420633	11
1	910	521.050608937066	11
1	911	521.28642237631	10
1	913	521.768037373028	10
1	914	522.079365003221	10
1	915	522.2811577193	9
1	916	522.486300119361	8
1	918	524.291159098792	8
1	919	526.548877828115	8
1	921	526.551835378628	8
1	923	528.316303580698	9
1	924	528.888239721997	9
1	926	529.554967510849	9
1	927	531.262821651163	9
1	928	531.868654021474	8
1	930	532.108475434804	8
1	937	533.988458630983	9
1	939	539.738984009149	9
1	941	541.970832585778	9
1	942	544.821431677697	9
1	943	547.300715700696	8
1	944	547.794611222124	7
1	945	547.868576687112	6
1	947	548.979843985803	6
1	948	549.112802332769	6
1	949	550.394677363164	5
1	950	550.472964753181	4
1	952	551.147173182701	4
1	956	557.536393870834	4
1	957	557.969144972448	3
1	959	558.00994069343	3
1	960	558.045382447465	3
1	961	558.17827631011	2
1	962	558.945282620034	1
1	964	561.50164894096	1
1	968	565.118986505579	2
1	970	565.927481111686	3
1	974	566.232110467234	4
1	977	568.558627862985	4
1	979	569.766287534454	4
1	981	574.27608277795	5
1	983	575.069690307397	6
1	984	576.117967361034	6
1	985	577.064735273429	5
1	986	577.09852507203	4
1	988	577.149572562672	4
1	990	577.178486770149	5
1	991	577.605979557674	5
1	992	578.603074025536	4
1	993	578.818298689023	3
1	994	579.000058984969	2
1	998	582.366700947942	1
1	999	583.654130831516	0
1	1001	583.886184266799	0
1	1002	584.541834428642	0
1	1004	584.576486397604	0
1	1005	584.917037514393	0
1	1007	586.126320241037	0
1	1008	586.625346902626	0
1	1010	587.622432708227	0
1	1018	590.695460038022	1
1	1022	597.805516403282	2
1	1024	600.159659142164	2
1	1026	601.613888112929	2
1	1028	602.408704942391	3
1	1030	604.6539777193	4
1	1034	606.727749917201	4
1	1035	607.415195560111	3
1	1037	607.65677173158	3
1	1039	607.979939806294	4
1	1041	609.327493355053	5
1	1043	609.966806296965	6
1	1045	610.371851685151	7
1	1047	610.515624704787	8
1	1048	610.954726186072	8
1	1049	611.037400219574	7
1	1050	611.610873546895	6
1	1052	611.667937574194	6
1	1053	612.27505365123	6
1	1055	612.665142632465	6
1	1059	613.650310656097	7
1	1064	621.197162270595	7
1	1066	622.192690984113	7
1	1067	624.815356919874	7
1	1071	627.128164233995	6
1	1073	628.632869419037	6
1	1074	630.041051986974	6
1	1075	630.098509867391	5
1	1077	630.936861890663	5
1	1079	631.75116913315	6
1	1081	632.444047673895	7
1	1082	633.621928808129	7
1	1084	634.225483024621	7
1	1085	634.580875252174	7
1	1087	634.959253490286	7
1	1088	635.28116644438	7
1	1092	636.084860336565	7
1	1094	637.065332397631	8
1	1096	637.516131062138	9
1	1098	639.722088559211	10
1	1100	640.244048658817	11
1	1102	643.24269735798	12
1	1105	647.157235021889	13
1	1106	647.180335601474	13
1	1107	649.596298361091	12
1	1108	650.367752054861	11
1	1109	651.369932505629	10
1	1113	654.003613937248	10
1	1115	657.234247603202	11
1	1117	657.399083643547	12
1	1119	658.562637978337	13
1	1122	659.427542603635	14
1	1128	665.047625770688	15
1	1130	665.869866762931	16
1	1133	672.368690082696	17
1	1135	679.549474427017	18
1	1137	681.735235638149	19
1	1139	684.780313082936	20
1	1141	687.477355449414	21
1	1143	688.976664606518	21
1	1144	689.096726320077	20
1	1145	689.363874929054	19
1	1146	689.532976284955	18
1	1150	693.274328544271	18
1	1152	693.693055516977	19
1	1154	696.261770226418	20
1	1156	696.983391315792	21
1	1158	698.539005682892	22
1	1160	698.817445576667	23
1	1162	699.737575434998	23
1	1163	699.757050994423	22
1	1164	700.302207658664	21
1	1166	702.787733784609	21
1	1168	703.778790857953	22
1	1170	705.154318333382	23
1	1172	705.633238323436	24
1	1174	705.747975839579	25
1	1175	705.784616694468	25
1	1177	705.982949507861	25
1	1178	706.049200473743	25
1	1179	706.365351112414	24
1	1180	708.562958821233	23
1	1181	709.908459855395	22
1	1183	710.421349031551	22
1	1184	711.671570895512	22
1	1185	712.321278717709	21
1	1187	712.345694698161	21
1	1188	713.02221197001	21
1	1189	713.900014819704	20
1	1191	714.892045160384	20
1	1193	715.223447218864	21
1	1194	715.323310493537	21
1	1195	715.729927330321	20
1	1196	715.830621951872	19
1	1197	715.940686644198	18
1	1198	716.140335768824	17
1	1199	716.1521465881	16
1	1201	716.421215651081	16
1	1202	717.081792951766	16
1	1203	717.14328034574	15
1	1204	718.814622036236	14
1	1205	719.431070588164	13
1	1206	719.881402684075	12
1	1207	723.280283949115	11
1	1208	724.248687843676	10
1	1212	725.857326933809	10
1	1215	727.687721272669	11
1	1216	728.715676189909	11
1	1217	729.549283870594	10
1	1218	730.124775576745	9
1	1220	730.852887220435	9
1	1221	731.399176260578	9
1	1222	732.480691444415	8
1	1223	732.521968132279	7
1	1225	732.924908854292	7
1	1227	733.012158393347	8
1	1229	733.05325168759	9
1	1230	734.066711817633	9
1	1232	734.229744572847	9
1	1234	734.82134548419	10
1	1236	735.387474955966	11
1	1237	735.965521856451	11
1	1239	736.695009031277	11
1	1240	737.170093819419	11
1	1242	737.34845214894	11
1	1243	737.707096278842	11
1	1244	738.391076973254	10
1	1246	741.340601609539	10
1	1247	741.493050432721	10
1	1249	742.809430442221	10
1	1253	747.48672914143	11
1	1255	749.02839632446	12
1	1260	751.822510407514	13
1	1262	756.008666873676	14
1	1264	756.122958708046	15
1	1266	757.783173698587	16
1	1268	758.629257031976	17
1	1271	759.385275412754	18
1	1273	759.797229762837	19
1	1274	760.038229575062	19
1	1278	761.292188080588	19
1	1280	763.022312901226	20
1	1282	763.147461570406	21
1	1284	763.318790005719	22
1	1286	764.647331238618	23
1	1290	770.235476920831	24
1	1292	770.593928914631	25
1	1294	774.384701208244	26
1	1298	777.001602593105	27
1	1300	779.766953507684	28
1	1302	780.548852612052	29
1	1304	780.851598313829	30
1	1306	783.48194126251	31
1	1309	785.382340444748	32
1	1311	788.79172808536	33
1	1314	792.312111931561	34
1	1316	793.31357797584	35
1	1319	796.017687101501	36
1	1320	796.552938417471	36
1	1321	797.248294710169	35
1	1322	798.404796543578	34
1	1323	799.046608999304	33
1	1324	799.333940313688	32
1	1325	799.648251598412	31
1	1327	799.975087804984	31
1	1328	801.014639434429	31
1	1329	802.140181273096	30
1	1330	802.295629350796	29
1	1332	802.467052718722	29
1	1334	803.657789307721	30
1	1336	803.696490662108	31
1	1337	804.184259716951	31
1	1338	804.58774044961	30
1	1340	805.483692259343	30
1	1341	805.991524676226	30
1	1343	806.625076268998	30
1	1344	808.888225766588	30
1	1345	809.335876748516	29
1	1346	809.371456574025	28
1	1347	809.578100984213	27
1	1348	810.910033716048	26
1	1350	811.74127031829	26
1	1351	813.649218090086	26
1	1353	815.816704869015	26
1	1354	816.723392836626	26
1	1355	816.789106276349	25
1	1356	817.088040810619	24
1	1357	817.096543311201	23
1	1358	817.652849494517	22
1	1359	818.349094321185	21
1	1360	819.158107230274	20
1	1361	819.345840192498	19
1	1363	819.405347157377	19
1	1364	821.007510964494	19
1	1365	821.778431544543	18
1	1366	823.146183294371	17
1	1368	823.400215742484	17
1	1369	823.417295497039	17
1	1370	823.51375823104	16
1	1371	823.706835092115	15
1	1373	823.89153212319	15
1	1374	824.482760185288	15
1	1376	824.518782123788	15
1	1377	824.734297206042	15
1	1378	825.456154410971	14
1	1379	825.699147808442	13
1	1380	828.670296612375	12
1	1382	830.08241086081	12
1	1383	830.262099926367	12
1	1384	830.487930728009	11
1	1386	830.881274482839	11
1	1387	831.395071377193	11
1	1388	832.150559073095	10
1	1389	833.6441877917	9
1	1390	833.974034844125	8
1	1391	834.919149175285	7
1	1393	834.990624773357	7
1	1394	835.08321440811	7
1	1395	835.37968761955	6
1	1401	836.944196169353	6
1	1403	842.292491969941	7
1	1405	844.556909995492	8
1	1408	848.215304448996	9
1	1410	850.598140614882	10
1	1412	851.673089770813	11
1	1414	852.575328670567	12
1	1416	855.277335856473	12
1	1417	856.300360596108	11
1	1418	856.512009232187	10
1	1420	856.51236655556	10
1	1422	856.620257949966	11
1	1424	857.397994849373	12
1	1425	858.23274909038	12
1	1426	859.014452591897	11
1	1427	859.959121337463	10
1	1428	860.450977555421	9
1	1429	860.586263593249	8
1	1430	860.804666539717	7
1	1431	863.345066080481	6
1	1432	863.955186439968	5
1	1434	864.300148466612	5
1	1435	864.69378407888	5
1	1437	864.794543485339	5
1	1438	865.377012152576	5
1	1440	866.579922513169	5
1	1441	866.903067462816	5
1	1443	869.604539979048	5
1	1444	869.625662652637	5
1	1445	870.118984177713	4
1	1446	870.867081410379	3
1	1448	871.569194199448	3
1	1449	871.995392849805	3
1	1451	872.037306754963	3
1	1453	872.495237083955	4
1	1454	872.709273392599	4
1	1456	872.823139578118	4
1	1458	873.060131865371	5
1	1459	875.951737441397	5
1	1460	876.74614391728	4
1	1461	877.597138794843	3
1	1462	877.727936434987	2
1	1463	878.258602756214	1
1	1465	878.262384007372	1
1	1466	878.566106091043	1
1	1467	879.862707527332	0
1	1469	881.232321899575	0
1	1470	881.428059396988	0
1	1472	883.664567717302	0
1	1474	884.392584546594	1
1	1475	884.475788856045	1
1	1477	885.025524890674	1
1	1478	885.238183649843	1
1	1479	885.725215596646	0
1	1485	888.877712085979	0
1	1487	890.905482477274	1
1	1489	891.047374303461	2
1	1492	897.575268969853	2
1	1494	898.710534796756	2
1	1496	899.0008354868	3
1	1497	899.19401343347	3
1	1498	899.214940035644	2
1	1499	899.763595753509	1
1	1500	900.02520130347	0
1	1502	900.579814186965	0
1	1504	901.291375346092	1
1	1506	901.366208114737	2
1	1508	902.027652363434	3
1	1509	902.08002196599	3
1	1510	904.127531831805	2
1	1514	906.65560682669	2
1	1516	907.679997953564	3
1	1519	907.86785722513	4
1	1521	908.438702630758	5
1	1522	909.134396808422	5
1	1523	909.938827487233	4
1	1524	910.3198755894	3
1	1525	910.736602919374	2
1	1526	911.980081541238	1
1	1528	912.227517050773	1
1	1530	912.85484050722	2
1	1531	913.203006805643	2
1	1532	913.311643042194	1
1	1533	913.314036297734	0
1	1535	913.79613235875	0
1	1536	915.270816308332	0
1	1538	916.149769553281	0
1	1539	916.301705545661	0
1	1541	918.837109471858	0
1	1542	919.398055175279	0
1	1544	920.42157545882	0
1	1545	921.54813027621	0
1	1547	923.844782720022	0
1	1548	923.873508201647	0
1	1550	928.207938361408	0
1	1551	929.146122152845	0
1	1553	931.075796543288	0
1	1554	931.439599033092	0
1	1556	932.108158914868	0
1	1557	932.916740021411	0
1	1559	933.541142485251	0
1	1561	934.911757211185	1
1	1563	935.458184628624	2
1	1564	935.567044603862	2
1	1565	936.590690956984	1
1	1566	936.733410681998	0
1	1568	936.856658578311	0
1	1569	937.180142798683	0
1	1571	937.296071473662	0
1	1572	937.466546702886	0
1	1574	937.668497240021	0
1	1575	938.837681599332	0
1	1577	944.62225324742	0
1	1581	945.750895077662	0
1	1583	947.425006526444	0
1	1584	947.731412035942	0
1	1586	948.101599759418	0
1	1588	948.350563101766	1
1	1589	949.289134690764	1
1	1590	949.503143048076	0
1	1592	953.876643126638	0
1	1593	955.242817166934	0
1	1595	956.020267252374	0
1	1596	956.765354268563	0
1	1598	958.846843038354	0
1	1599	958.914821710851	0
1	1601	959.532061658192	0
1	1602	960.233355016565	0
1	1604	960.41575269419	0
1	1606	961.325572990965	1
1	1607	961.398804406173	1
1	1608	961.960523349291	0
1	1610	962.543212018407	0
1	1611	962.820282210785	0
1	1613	963.684639190432	0
1	1614	964.20254794135	0
1	1616	967.06233253162	0
1	1617	968.182439575611	0
1	1621	972.847803493394	0
1	1623	978.488579131439	1
1	1625	978.991033692788	2
1	1627	979.413194678092	3
1	1630	980.747718422909	4
1	1631	981.217310803154	4
1	1633	982.216774007694	4
1	1634	983.43547702383	4
1	1638	985.843588846675	4
1	1640	986.490617178815	5
1	1642	986.565302590198	6
1	1644	987.981971202869	7
1	1646	988.750274898852	7
1	1647	988.813824888381	6
1	1649	990.002966375385	6
1	1650	990.406228220511	6
1	1652	990.746314574004	6
1	1654	991.021719329772	7
1	1655	992.035278667139	7
1	1659	993.229323092935	7
1	1661	993.71594109097	8
1	1663	995.078151119001	9
1	1665	996.518811760831	9
1	1666	996.739775949078	8
1	1668	996.788591220206	8
1	1669	996.858401540264	8
1	1670	997.212045117268	7
1	1671	997.897185538715	6
1	1676	999.469210377745	6
1	1678	1001.475820547733	7
1	1682	1004.08007388235	8
1	1684	1004.578019018541	9
1	1686	1006.424841748012	10
1	1688	1006.98809524155	11
1	1690	1007.954280584271	12
1	1692	1010.202908449599	13
1	1694	1016.242616061029	13
1	1696	1016.340741723949	13
1	1697	1017.497645041563	13
1	1699	1017.69746849363	13
1	1701	1018.079944348278	14
1	1702	1018.816937802829	14
1	1704	1018.848183485132	14
1	1705	1020.705987141115	14
1	1706	1021.529116598403	13
1	1708	1021.940173293802	13
1	1709	1024.38306409341	13
1	1711	1025.533632418304	13
1	1712	1027.076763332799	13
1	1714	1028.008136348853	13
1	1715	1029.37391325824	13
1	1717	1029.834979317105	13
1	1718	1030.855999079789	13
1	1722	1036.946944055028	13
1	1724	1039.322295444068	14
1	1727	1039.641562536479	15
1	1728	1040.563208801577	15
1	1729	1040.670482939999	14
1	1730	1040.828766709836	13
1	1731	1041.148734409413	12
1	1732	1041.500289846691	11
1	1734	1042.371613786362	11
1	1735	1042.977106966685	11
1	1736	1043.555144727216	10
1	1737	1045.184570593282	9
1	1738	1045.648133566635	8
1	1740	1045.927971099479	8
1	1741	1046.696831150688	8
1	1743	1046.963508618453	8
1	1745	1047.338400253072	9
1	1746	1047.520937648712	9
1	1748	1047.745241435254	9
1	1749	1048.558225618682	9
1	1751	1048.781785821536	9
1	1753	1049.020396841267	10
1	1755	1049.171193047386	11
1	1756	1050.501831694245	11
1	1757	1050.543270831897	10
1	1758	1052.53917160325	9
1	1760	1053.147106452592	9
1	1761	1053.488852470278	9
1	1763	1053.502836921406	9
1	1764	1054.016629743405	9
1	1765	1054.704303625407	8
1	1766	1055.412783154657	7
1	1767	1055.428175464938	6
1	1769	1056.726802273238	6
1	1770	1057.299325843172	6
1	1771	1057.673610027929	5
1	1772	1058.66016872152	4
1	1776	1063.664091405929	4
1	1778	1066.004564918452	5
1	1780	1071.761582456644	6
1	1782	1072.008778219704	7
1	1784	1073.516791148866	8
1	1786	1073.93019281168	8
1	1787	1074.201768502185	7
1	1788	1074.516653522576	6
1	1792	1077.985680623868	6
1	1794	1080.997002103861	7
1	1797	1081.847555182043	8
1	1798	1081.98699021269	8
1	1800	1083.439946928313	8
1	1802	1084.873889251369	9
1	1804	1085.58472458455	10
1	1805	1085.686694726336	10
1	1806	1086.749792186686	9
1	1807	1086.812006257868	8
1	1808	1088.783954070741	7
1	1810	1088.927586403622	7
1	1811	1088.970408234419	7
1	1813	1089.15394779813	7
1	1815	1089.319993798128	8
1	1816	1089.388047092603	8
1	1817	1091.66065570119	7
1	1819	1092.039410126924	7
1	1820	1092.252396370046	7
1	1821	1092.344347484691	6
1	1822	1092.527137498509	5
1	1824	1093.118775492627	5
1	1825	1094.041006305256	5
1	1827	1094.150399009553	5
1	1829	1094.549711948188	6
1	1830	1095.515738712238	6
1	1831	1096.484809910791	5
1	1832	1096.962510598235	4
1	1833	1097.86513385342	3
1	1834	1098.200658088496	2
1	1835	1098.420284620668	1
1	1836	1098.673240331269	0
1	1838	1099.521936432602	0
1	1839	1100.108280288651	0
1	1841	1103.454150225918	0
1	1842	1103.879043264285	0
1	1844	1105.389082178185	0
1	1845	1105.567629572301	0
1	1847	1106.364289603643	0
1	1848	1106.586996085283	0
1	1850	1108.88696035024	0
1	1852	1109.629626401962	1
1	1853	1109.670365018502	1
1	1855	1110.732347228794	1
1	1856	1111.541766623466	1
1	1857	1111.723419480054	0
1	1859	1113.283289168648	0
1	1860	1113.610304587074	0
1	1862	1115.894995403356	0
1	1864	1118.416896987813	1
1	1865	1118.498576677217	1
1	1866	1118.584246953191	0
1	1868	1119.012538769362	0
1	1869	1119.183304323611	0
1	1871	1122.077378816087	0
1	1873	1122.639201399751	1
1	1874	1123.700748692049	1
1	1875	1123.8224909097	0
1	1877	1124.65775792801	0
1	1878	1124.803367427173	0
1	1880	1125.023100622208	0
1	1881	1126.415275685692	0
1	1883	1127.992893017367	0
1	1884	1128.301863656208	0
1	1886	1131.203121180225	0
1	1888	1132.380814675946	1
1	1889	1132.659521592862	1
1	1890	1133.288520287448	0
1	1892	1137.10805766863	0
1	1893	1137.746161107199	0
1	1895	1140.703420447661	0
1	1897	1143.638481616771	1
1	1898	1143.696180541508	1
1	1899	1144.140729631211	0
1	1901	1145.785718165793	0
1	1902	1146.970497941172	0
1	1904	1148.258355058122	0
1	1905	1148.668213825856	0
1	1907	1149.29894470302	0
1	1908	1149.641409977464	0
1	1910	1153.323469897648	0
1	1911	1153.446501023821	0
1	1913	1154.007201518128	0
1	1914	1154.96856062327	0
1	1916	1158.584758127511	0
1	1918	1158.891117039077	1
1	1920	1159.491368364417	2
1	1921	1159.944611856293	2
1	1922	1159.994414645311	1
1	1924	1160.945622576363	1
1	1925	1161.462729893384	1
1	1926	1162.609012318565	0
1	1928	1162.962336331831	0
1	1930	1163.707519584547	1
1	1932	1164.256136301936	2
1	1933	1164.753060375509	2
1	1934	1168.44962844682	1
1	1936	1170.330455964887	1
1	1940	1171.710158883564	2
1	1942	1172.341506440539	2
1	1944	1173.733092707587	2
1	1946	1174.064942805416	3
1	1948	1178.823119949257	4
1	1949	1179.917076996194	4
1	1951	1180.014858962135	4
1	1955	1181.410888490594	5
1	1957	1182.681044510719	6
1	1959	1186.056676037765	6
1	1961	1186.332466430439	6
1	1963	1187.103457594383	7
1	1965	1187.591664114066	8
1	1966	1187.709640144423	8
1	1967	1189.524372155829	7
1	1968	1190.172281344903	6
1	1969	1191.140250211724	5
1	1971	1191.715701240373	5
1	1972	1191.730255707001	5
1	1974	1193.137167686627	5
1	1975	1193.386442702529	5
1	1976	1194.679846101692	4
1	1977	1195.3462761453	3
1	1979	1195.674738414437	3
1	1981	1195.695601398068	4
1	1982	1197.062861197284	4
1	1983	1197.232836981592	3
1	1984	1198.308950491504	2
1	1986	1198.986855735349	2
1	1987	1199.590708202521	2
1	1989	1199.991279541453	2
1	1990	1201.167477738532	2
1	1991	1202.100792757516	1
1	1992	1202.13810242745	0
1	1994	1203.740754288873	0
1	1996	1203.984940974802	1
1	1997	1204.35339662666	1
1	1998	1204.394133570832	0
1	2000	1207.886985389873	0
1	2002	1208.098197112666	1
1	2004	1208.519143618878	2
1	2005	1210.064381819014	2
1	2006	1210.1272189016	1
1	2007	1210.163371220443	0
1	2009	1210.605690017072	0
1	2010	1210.616185798592	0
1	2014	1212.772988797535	0
1	2016	1214.32888393124	0
1	2018	1216.428967119804	0
1	2019	1216.749319274292	0
1	2021	1221.228339467562	0
1	2022	1221.541975758152	0
1	2024	1222.021324478452	0
1	2025	1223.027715262099	0
1	2027	1223.286423305704	0
1	2029	1223.455901972046	1
1	2030	1224.135645940733	1
1	2031	1224.320047382003	0
1	2033	1227.207640264053	0
1	2034	1227.681638291208	0
1	2036	1228.676313846205	0
1	2038	1230.795868655868	1
1	2039	1232.166023350594	1
1	2041	1232.496510404953	1
1	2045	1233.44090099745	2
1	2048	1235.518367150467	3
1	2049	1235.869732605505	3
1	2051	1236.75073561162	3
1	2052	1237.997885849393	3
1	2053	1238.146658848695	2
1	2054	1238.687887357828	1
1	2055	1238.968340428502	0
1	2057	1240.0491388465	0
1	2058	1241.424407263561	0
1	2060	1242.022001664429	0
1	2061	1242.727436457234	0
1	2063	1244.759290898886	0
1	2064	1246.311262428566	0
1	2066	1251.044702693223	0
1	2067	1251.957682487402	0
1	2069	1252.388193634372	0
1	2070	1253.513885507642	0
1	2072	1254.318935873598	0
1	2073	1254.463600780752	0
1	2075	1254.891841879494	0
1	2076	1254.98364037181	0
1	2078	1256.548926633994	0
1	2079	1257.404670164498	0
1	2081	1266.558382086633	0
1	2082	1266.81482284695	0
1	2084	1267.340278096528	0
1	2086	1267.774668886131	1
1	2087	1268.062117581341	1
1	2088	1268.566130546114	0
1	2090	1269.854128360042	0
1	2094	1270.672981662558	1
1	2096	1270.78608069087	2
1	2100	1273.760682787494	3
1	2103	1274.188100425175	4
1	2105	1274.538883561653	5
1	2107	1276.96914841144	6
1	2111	1278.109910262828	7
1	2113	1279.88100184823	8
1	2115	1281.364401314724	9
1	2117	1284.803692094913	10
1	2119	1289.599254504171	11
1	2121	1290.897945247009	12
1	2123	1291.690705777801	13
1	2125	1293.122729185377	14
1	2127	1294.890807101198	15
1	2129	1297.073739070508	16
1	2131	1298.985264710136	17
1	2135	1304.213589518827	18
1	2137	1304.550838935161	19
1	2144	1307.603338474352	20
1	2148	1309.456196150904	21
1	2150	1309.565272199701	22
1	2152	1310.413533270365	23
1	2154	1312.10808282415	24
1	2159	1316.196911567917	25
1	2161	1317.01758713607	26
1	2164	1322.705522359757	26
1	2165	1324.127211558272	25
1	2166	1325.351080420395	24
1	2168	1326.176852840771	24
1	2169	1327.734642799838	24
1	2170	1327.898139351136	23
1	2172	1329.369057605727	23
1	2173	1330.231307956608	23
1	2175	1330.755437228452	23
1	2177	1331.323905001213	24
1	2179	1331.98394102475	25
1	2183	1335.742544059637	26
1	2186	1337.151993961559	27
1	2188	1337.293531378844	28
1	2190	1338.302276777408	29
1	2192	1338.906248051696	30
1	2193	1339.134426093222	30
1	2194	1339.422919329778	29
1	2196	1339.862722583202	29
1	2197	1340.216688659305	29
1	2199	1340.315366126525	29
1	2200	1340.6464128091	29
1	2201	1341.714599833232	28
1	2203	1341.927417563932	28
1	2205	1343.040302714413	29
1	2207	1344.143537833478	30
1	2209	1345.088560088165	31
1	2210	1346.469529134228	31
1	2211	1347.130552276439	30
1	2212	1347.161522606527	29
1	2214	1347.384665723551	29
1	2216	1348.740823150769	30
1	2218	1349.4735523874	31
1	2219	1349.998232458145	31
1	2221	1350.493911365602	31
1	2222	1351.31616192562	31
1	2223	1351.433408770264	30
1	2224	1351.434603627956	29
1	2225	1351.564765244133	28
1	2226	1351.933879493604	27
1	2227	1352.143094587979	26
1	2229	1352.747514412286	26
1	2230	1353.594464708003	26
1	2232	1354.872441855701	26
1	2234	1354.8968409448	27
1	2235	1355.925104781852	27
1	2236	1356.381548361516	26
1	2237	1356.940317879016	25
1	2238	1357.314709367477	24
1	2240	1357.459390636765	24
1	2241	1358.54917165904	24
1	2245	1361.773212304169	23
1	2246	1362.91224461309	22
1	2248	1362.972567604803	22
1	2250	1363.185438783352	23
1	2251	1363.531133960738	23
1	2255	1365.061941804065	23
1	2257	1365.574614325057	24
1	2259	1365.989345394439	25
1	2261	1366.649459596977	25
1	2262	1367.306694299026	24
1	2263	1367.396885327299	23
1	2264	1369.368111697414	22
1	2265	1369.370231315267	21
1	2266	1370.844616585595	20
1	2267	1370.963494915903	19
1	2269	1371.284746370544	19
1	2271	1371.680396582573	20
1	2272	1373.446641840504	20
1	2273	1373.610903517041	19
1	2274	1373.758065082685	18
1	2276	1374.454313925636	18
1	2277	1374.522953939351	18
1	2279	1375.00444249722	18
1	2280	1375.150178382493	18
1	2282	1376.330751646039	18
1	2283	1376.631882948925	18
1	2284	1376.710637544239	17
1	2285	1377.251145750596	16
1	2286	1378.676551413342	15
1	2288	1379.007593144626	15
1	2290	1380.127189548049	16
1	2291	1380.336441006413	16
1	2293	1380.536477496657	16
1	2295	1381.586928959627	17
1	2296	1382.709117661657	17
1	2298	1384.051822418722	17
1	2300	1384.580645514508	18
1	2301	1384.906977045738	18
1	2303	1385.256733526607	18
1	2304	1385.486861842898	18
1	2306	1385.615660410747	18
1	2307	1386.407051919563	18
1	2308	1387.224776877964	17
1	2310	1387.402627490705	17
1	2312	1387.534457153876	18
1	2313	1388.420263702518	18
1	2314	1388.45509207859	17
1	2315	1389.204621400352	16
1	2317	1389.439133323342	16
1	2318	1389.61635794497	16
1	2320	1389.930980400858	16
1	2321	1390.260716866316	16
1	2322	1390.709137127639	15
1	2323	1391.264588679376	14
1	2324	1391.320893495232	13
1	2326	1391.424235456404	13
1	2327	1392.579298650856	13
1	2329	1393.0198274659	13
1	2330	1394.874279104235	13
1	2331	1395.929870124533	12
1	2332	1396.068088638452	11
1	2334	1396.752921295092	11
1	2336	1396.770989440654	12
1	2337	1397.634659013928	12
1	2339	1398.928289989745	12
1	2340	1399.416332805474	12
1	2341	1399.486469525941	11
1	2342	1399.81009279347	10
1	2344	1399.898003627888	10
1	2345	1400.302763246786	10
1	2346	1401.213216634609	9
1	2347	1401.643153222953	8
1	2348	1404.113280711192	7
1	2349	1404.419046723957	6
1	2350	1405.026980410406	5
1	2351	1405.200371922644	4
1	2352	1405.695707261608	3
1	2353	1405.888889365635	2
1	2354	1406.387718901129	1
1	2355	1406.829911970184	0
1	2357	1407.010765585643	0
1	2358	1407.647309494147	0
1	2360	1409.349479370211	0
1	2362	1409.499470276212	1
1	2363	1410.201508799863	1
1	2364	1410.803989883451	0
1	2366	1413.667075616735	0
1	2367	1414.154450393121	0
1	2369	1414.987062838973	0
1	2370	1415.370909348574	0
1	2372	1420.862442531093	0
1	2373	1421.067342712165	0
1	2375	1421.273004478833	0
1	2377	1421.515866550422	1
1	2378	1421.705117532738	1
1	2379	1421.854099694537	0
1	2381	1424.179683096426	0
1	2382	1424.602482474224	0
1	2384	1425.939886869644	0
1	2385	1426.005411181028	0
1	2387	1426.407142877043	0
1	2388	1427.44866446927	0
1	2390	1437.406942195406	0
1	2391	1438.012696543495	0
1	2393	1439.739505512869	0
1	2395	1439.821817518797	1
1	2396	1440.042765131858	1
1	2397	1440.348692847771	0
1	2401	1444.881465458286	0
1	2403	1445.482012408318	1
1	2405	1448.042213624983	2
1	2407	1448.70879127147	2
1	2408	1449.025147527276	1
1	2414	1451.824987070277	1
1	2416	1454.015636765366	2
1	2418	1456.016995719622	3
1	2421	1457.164538632743	4
1	2424	1457.41669092803	5
1	2426	1457.786268769245	6
1	2428	1459.528388159467	7
1	2430	1459.620502937577	8
1	2432	1460.165129693538	9
1	2434	1460.48603071929	10
1	2436	1460.694939286747	11
1	2441	1463.522725762518	12
1	2442	1463.773125201588	12
1	2443	1464.24475045774	11
1	2444	1464.250019703494	10
1	2446	1464.266165427678	10
1	2448	1466.036096359275	11
1	2449	1466.350600148841	11
1	2451	1467.922649900867	11
1	2453	1468.797742481372	12
1	2454	1469.202739505175	12
1	2456	1469.261333833296	12
1	2457	1469.306933547385	12
1	2458	1469.326541319456	11
1	2459	1469.556613231968	10
1	2460	1471.422065085737	9
1	2461	1471.795859332774	8
1	2462	1472.363138167335	7
1	2464	1472.805151613285	7
1	2466	1473.273970562055	8
1	2467	1473.349500298739	8
1	2469	1476.346088652368	8
1	2470	1478.087649006611	8
1	2471	1478.342717788513	7
1	2473	1478.393934477932	7
1	2475	1478.600546774278	8
1	2476	1479.064477954771	8
1	2477	1480.1808567861	7
1	2478	1480.899447686303	6
1	2480	1481.108000697301	6
1	2481	1481.132675589793	6
1	2482	1481.134943647224	5
1	2483	1481.522712572958	4
1	2485	1481.703788081878	4
1	2486	1482.577130604249	4
1	2487	1484.473925769262	3
1	2488	1485.295431970522	2
1	2492	1488.423655865245	2
1	2494	1489.50725659336	3
1	2496	1492.287419206571	3
1	2498	1493.062000645192	3
1	2499	1494.062194941774	3
1	2501	1494.242846463124	3
1	2502	1494.270022220399	3
1	2504	1494.790827301873	3
1	2505	1495.324843817424	3
1	2506	1495.577158516202	2
1	2507	1495.882092512348	1
1	2509	1497.199679696187	1
1	2511	1498.149624835636	2
1	2512	1498.987494901289	2
1	2513	1500.208631453298	1
1	2515	1500.793096419539	1
1	2516	1501.518451258358	1
1	2517	1501.810917140586	0
1	2519	1503.46740861259	0
1	2520	1503.848641622506	0
1	2522	1507.287901231441	0
1	2523	1507.902607737691	0
1	2525	1510.553816531119	0
1	2526	1510.65210309419	0
1	2530	1512.846877152229	0
1	2532	1514.402719489643	0
1	2534	1515.34757175749	0
1	2535	1515.82065437531	0
1	2537	1518.97312764053	0
1	2538	1519.399724053757	0
1	2540	1522.601946166091	0
1	2544	1523.056987271504	1
1	2546	1523.314052449445	2
1	2548	1524.786510532671	3
1	2550	1528.338462127705	4
1	2552	1529.472441919767	4
1	2553	1530.459601509649	3
1	2554	1530.974306902063	2
1	2555	1532.220985401405	1
1	2556	1532.706060977696	0
1	2558	1533.210858530912	0
1	2559	1534.914654073671	0
1	2561	1536.333525495665	0
1	2563	1536.37956325802	1
1	2564	1537.754217324705	1
1	2566	1537.930585138902	1
1	2568	1537.997935985407	2
1	2569	1538.89399313397	2
1	2571	1540.429136799234	2
1	2572	1541.186659441463	2
1	2573	1542.117090676645	1
1	2574	1543.854601705798	0
1	2576	1545.546422593598	0
1	2577	1546.848599890234	0
1	2579	1548.082861813404	0
1	2580	1548.601221666015	0
1	2582	1552.953814191906	0
1	2583	1554.18284390402	0
1	2587	1555.647718182008	0
1	2590	1556.417602467858	1
1	2591	1557.127549628996	1
1	2592	1557.810042921859	0
1	2594	1561.798337399242	0
1	2595	1562.344266140262	0
1	2597	1567.759563786067	0
1	2599	1570.328858559392	1
1	2600	1572.230560140317	1
1	2601	1572.858724827932	0
1	2606	1574.069798746128	0
1	2607	1574.654382479002	0
1	2609	1577.251038136386	0
1	2611	1577.739458089948	1
1	2612	1578.397659462739	1
1	2614	1578.488669764947	1
1	2616	1579.332088262606	2
1	2617	1579.678782307057	2
1	2618	1580.019816807045	1
1	2619	1580.250926382085	0
1	2621	1582.297567121016	0
1	2622	1582.388652362213	0
1	2624	1583.289861851428	0
1	2625	1583.331011781323	0
1	2627	1586.184797832718	0
1	2629	1586.739190626918	1
1	2630	1587.836224388308	1
1	2631	1590.040000520816	0
1	2633	1592.684270092776	0
1	2634	1593.445536392177	0
1	2636	1595.392668145617	0
1	2637	1595.757541347383	0
1	2639	1595.805604478158	0
1	2640	1596.426663778895	0
1	2642	1597.383358757859	0
1	2644	1597.696174075575	1
1	2645	1598.052299076809	1
1	2646	1598.267220652589	0
1	2648	1599.397923382677	0
1	2649	1599.810821296807	0
1	2651	1600.210093510642	0
1	2652	1600.805456863156	0
1	2654	1601.71925324504	0
1	2655	1602.363592822523	0
1	2657	1606.875461169961	0
1	2659	1608.027347375874	1
1	2660	1608.078229403198	1
1	2661	1608.143782346727	0
1	2663	1609.33512146855	0
1	2664	1609.729246994118	0
1	2666	1612.426862221556	0
1	2668	1612.538469831804	1
1	2669	1613.539529927592	1
1	2670	1613.564019171893	0
1	2672	1614.190708036284	0
1	2674	1615.41973596612	1
1	2675	1615.422180581665	1
1	2677	1616.986887652883	1
1	2678	1617.322830472209	1
1	2682	1620.025627998038	1
1	2684	1621.778374363893	2
1	2686	1622.863661188892	3
1	2688	1626.180404462915	4
1	2690	1627.25581206761	5
1	2692	1627.446471301373	6
1	2694	1628.88934190452	7
1	2696	1629.208601536148	8
1	2698	1629.254676400925	9
1	2700	1630.640306126104	10
1	2702	1631.794105118124	11
1	2704	1632.902277209465	12
1	2706	1634.696805180905	12
1	2707	1635.393464192127	11
1	2709	1635.548497087264	11
1	2711	1635.689112612323	12
1	2712	1635.977106330976	12
1	2713	1637.716422629523	11
1	2714	1639.055396619708	10
1	2716	1641.295167020244	10
1	2718	1641.4925340142	11
1	2719	1641.597665267396	11
1	2720	1642.080275911478	10
1	2721	1642.15265465319	9
1	2722	1643.762701592932	8
1	2723	1643.813277081623	7
1	2724	1644.40428863325	6
1	2726	1644.54730903909	6
1	2727	1644.737644317752	6
1	2728	1646.274601516997	5
1	2729	1646.333295428758	4
1	2730	1647.318631173515	3
1	2734	1648.122742381304	3
1	2738	1656.032189722465	4
1	2741	1660.060166279752	5
1	2743	1662.308850954007	6
1	2745	1664.764909826907	7
1	2747	1665.89853919065	8
1	2749	1668.107306909415	9
1	2751	1668.581406409794	10
1	2754	1669.969235686688	11
1	2755	1670.308758844341	11
1	2757	1670.431337922107	11
1	2758	1671.142786602159	11
1	2759	1671.488037795323	10
1	2760	1672.793425903986	9
1	2761	1672.946349609655	8
1	2762	1673.683487481724	7
1	2763	1676.104092947911	6
1	2764	1676.769003268675	5
1	2766	1678.053351751994	5
1	2768	1679.623396958014	6
1	2770	1679.868594111788	7
1	2772	1681.274422944443	8
1	2774	1682.038728223514	9
1	2775	1682.392424259794	9
1	2777	1682.507634177442	9
1	2779	1683.223713011852	10
1	2780	1686.507234731513	10
1	2781	1686.543787255475	9
1	2782	1687.426159567759	8
1	2784	1687.446753716476	8
1	2785	1688.009602021846	8
1	2786	1689.496530848201	7
1	2787	1689.502589811536	6
1	2788	1689.986589688496	5
1	2789	1690.17658670531	4
1	2790	1690.715735829129	3
1	2792	1690.880088118601	3
1	2793	1691.08800344847	3
1	2794	1691.177494970234	2
1	2796	1691.262201794996	2
1	2797	1693.791887926358	2
1	2798	1693.966644218181	1
1	2799	1694.384577711674	0
1	2801	1695.63605951574	0
1	2802	1696.100263526735	0
1	2804	1697.220339486436	0
1	2806	1698.197922525571	1
1	2807	1698.578281161234	1
1	2808	1698.65293573014	0
1	2815	1702.454562819639	0
1	2819	1704.827401556716	1
1	2821	1705.115601981909	2
1	2824	1708.905625194157	3
1	2826	1710.356854790413	4
1	2828	1711.062626300048	4
1	2829	1711.450339511164	3
1	2830	1711.480877148475	2
1	2832	1711.574238800657	2
1	2834	1713.143854886427	3
1	2835	1713.291429636261	3
1	2837	1713.351892932166	3
1	2838	1714.017983237064	3
1	2840	1714.050577223697	3
1	2841	1714.243593682346	3
1	2842	1714.448005097728	2
1	2844	1714.763296348572	2
1	2846	1716.9653472474	3
1	2847	1717.435236663524	3
1	2848	1717.691355452711	2
1	2850	1718.905691287371	2
1	2851	1720.142678977025	2
1	2853	1720.496214479812	2
1	2854	1720.606855397333	2
1	2856	1723.848176387203	2
1	2858	1723.914613484126	3
1	2859	1723.95778500201	3
1	2860	1726.912306013318	2
1	2862	1727.453676091849	2
1	2863	1728.28734304846	2
1	2865	1728.574258253243	2
1	2866	1728.862398827855	2
1	2868	1729.298105388613	2
1	2870	1729.926896309713	3
1	2871	1729.95347925958	3
1	2873	1730.572239356538	3
1	2874	1731.755492967256	3
1	2876	1732.499651161695	3
1	2880	1733.418930615311	3
1	2881	1734.668578544649	2
1	2882	1735.298531604011	1
1	2884	1737.123620728104	1
1	2885	1738.874318714708	1
1	2889	1741.179072054691	1
1	2896	1751.776659243448	2
1	2898	1752.672903274415	3
1	2900	1752.696540470799	4
1	2902	1757.578880351141	5
1	2904	1759.112707010432	6
1	2906	1761.437337188903	7
1	2909	1763.34195310526	7
1	2910	1763.535493597683	6
1	2911	1764.623622521396	5
1	2912	1765.539989912438	4
1	2913	1765.68773173762	3
1	2914	1765.838775811296	2
1	2915	1766.993913215507	1
1	2916	1767.967981966358	0
1	2918	1770.285519111471	0
1	2920	1770.811004043479	1
1	2921	1771.881347295981	1
1	2922	1772.385231407396	0
1	2924	1774.28609167628	0
1	2925	1774.477387900913	0
1	2927	1778.170532498034	0
1	2928	1779.148838852272	0
1	2930	1779.4855273047	0
1	2931	1779.488588220604	0
1	2935	1781.529259252268	0
1	2937	1783.034732019876	1
1	2939	1784.376833290301	2
1	2941	1787.38314715041	3
1	2943	1787.668665722263	4
1	2945	1787.964383921228	5
1	2947	1788.656327898607	6
1	2949	1788.795731915785	7
1	2951	1788.950693512355	8
1	2953	1793.958907598948	9
1	2959	1798.892492977798	10
1	2961	1798.99919652404	11
1	2963	1799.031565841152	12
1	2965	1799.406303273975	13
1	2966	1799.467070392463	13
1	2968	1801.277535871926	13
1	2969	1801.854523334459	13
1	2970	1802.222352985608	12
1	2972	1802.364652931052	12
1	2973	1803.811513434533	12
1	2974	1804.350792776417	11
1	2975	1805.287393435135	10
1	2976	1805.818609934858	9
1	2978	1806.351255583968	9
1	2979	1806.76686148346	9
1	2981	1806.980877741679	9
1	2982	1807.613424511991	9
1	2983	1807.852802522212	8
1	2984	1809.609770595534	7
1	2985	1809.872881915188	6
1	2987	1809.977717359256	6
1	2988	1810.401711275031	6
1	2989	1813.214235687043	5
1	2990	1814.365426129266	4
1	2991	1815.093948214511	3
1	2992	1815.345302444486	2
1	2993	1815.691370620602	1
1	2995	1816.040398980451	1
1	2997	1816.722364393219	2
1	2998	1817.158558911922	2
1	2999	1817.321259429267	1
1	3001	1817.833994274229	1
1	3003	1817.876849766729	2
1	3004	1818.47299719009	2
1	3005	1819.0476244486	1
1	3006	1819.384357302351	0
1	3008	1821.568215212516	0
1	3009	1821.577248963894	0
1	3011	1823.078489398598	0
1	3012	1824.078988053071	0
1	3014	1824.681398977641	0
1	3016	1824.84264770906	1
1	3017	1826.447904575665	1
1	3018	1827.966451334833	0
1	3020	1829.957855053684	0
1	3021	1831.664491779073	0
1	3023	1837.929116637075	0
1	3024	1838.297027516776	0
1	3026	1840.511780695719	0
1	3027	1841.25218889109	0
1	3029	1842.10392153586	0
1	3031	1842.949919796077	1
1	3032	1843.26639132558	1
1	3033	1843.770371638024	0
1	3035	1843.924771520918	0
1	3036	1844.025033516102	0
1	3038	1844.674360021675	0
1	3039	1845.537705069618	0
1	3041	1846.068804608248	0
1	3042	1846.367328094763	0
1	3044	1847.427797748838	0
1	3045	1848.466432313804	0
1	3047	1848.738585762624	0
1	3049	1852.399719892119	1
1	3050	1852.703110173497	1
1	3054	1854.682576434413	1
1	3056	1857.832407945288	2
1	3058	1858.283759959898	3
1	3060	1861.780475994684	4
1	3062	1861.99522996936	5
1	3065	1863.912262326729	6
1	3067	1865.538801758152	7
1	3068	1865.789657598173	7
1	3070	1866.154070155069	7
1	3071	1867.506733023161	7
1	3072	1868.519153455023	6
1	3074	1868.632820450445	6
1	3076	1868.798263094855	7
1	3078	1870.103566562109	8
1	3080	1870.284611116881	9
1	3081	1870.463182776141	9
1	3082	1870.478458390579	8
1	3083	1871.598529021019	7
1	3084	1872.06112101106	6
1	3085	1873.308417034555	5
1	3086	1874.008601487145	4
1	3087	1874.112446434939	3
1	3088	1874.574448080884	2
1	3089	1875.016323384386	1
1	3091	1875.314105832528	1
1	3092	1876.33212965283	1
1	3093	1877.166858013846	0
1	3095	1877.190082967807	0
1	3096	1878.591027254484	0
1	3098	1879.289521669308	0
1	3100	1879.600331332202	1
1	3101	1880.39038530842	1
1	3102	1881.029947261718	0
1	3104	1881.223850015971	0
1	3106	1881.534132219275	1
1	3108	1881.940415244524	2
1	3109	1882.28181377617	2
1	3110	1882.888010845374	1
1	3111	1883.403660702912	0
1	3113	1883.706109553849	0
1	3114	1883.710167407112	0
1	3116	1884.959784396533	0
1	3117	1885.05636498334	0
1	3119	1885.582080709446	0
1	3120	1887.200795544918	0
1	3122	1889.905714920976	0
1	3123	1890.370400182711	0
1	3129	1891.812698085511	0
1	3132	1893.791256981813	1
1	3134	1893.916518077946	2
1	3136	1896.80305703802	2
1	3137	1897.172718020761	1
1	3139	1897.309485839001	1
1	3140	1897.936971152125	1
1	3141	1899.180467292595	0
1	3143	1899.432023289536	0
1	3144	1899.76716064366	0
1	3146	1900.390188471494	0
1	3147	1900.419170816387	0
1	3149	1903.164915557873	0
1	3150	1903.672172787391	0
1	3152	1904.777078398331	0
1	3153	1905.270592630192	0
1	3158	1909.636089377431	0
1	3159	1910.310883657396	0
1	3161	1912.420479793495	0
1	3162	1912.876170735054	0
1	3164	1913.861732089214	0
1	3166	1915.470780186158	1
1	3168	1915.55196679928	2
1	3170	1915.58877553085	3
1	3171	1916.487738319672	3
1	3172	1916.708319437869	2
1	3173	1917.870425224125	1
1	3174	1920.120615704251	0
1	3176	1923.258713259501	0
1	3177	1924.219962755893	0
1	3179	1926.253352796833	0
1	3181	1926.670634718041	1
1	3183	1927.261876177111	2
1	3184	1927.433749774426	2
1	3186	1929.938360959099	2
1	3187	1930.581095670921	2
1	3188	1930.801064564704	1
1	3190	1931.063174027586	1
1	3192	1931.835110994832	2
1	3193	1932.441909913699	2
1	3194	1932.616071543459	1
1	3195	1933.734658208564	0
1	3197	1935.441552164536	0
1	3199	1936.280480905884	1
1	3200	1936.307284288548	1
1	3201	1936.36504622786	0
1	3203	1939.004044626613	0
1	3204	1939.264860178571	0
1	3206	1940.367507517914	0
1	3208	1943.272643401914	1
1	3209	1943.978388544578	1
1	3211	1944.088719789006	1
1	3213	1944.461140307476	2
1	3214	1944.518106969072	2
1	3215	1944.567420855884	1
1	3217	1945.189579182919	1
1	3218	1946.540579720459	1
1	3219	1947.875899479091	0
1	3221	1948.254314798673	0
1	3222	1948.278452813459	0
1	3224	1948.776173488606	0
1	3225	1948.786339269506	0
1	3227	1949.381402536719	0
1	3228	1950.340458106502	0
1	3230	1950.772621833648	0
1	3231	1951.503731255741	0
1	3235	1953.999547490941	0
1	3237	1955.050364469888	1
1	3239	1956.134834976881	2
1	3241	1956.809370246899	3
1	3243	1957.481916836506	4
1	3245	1957.727367172036	5
1	3247	1958.494796829236	6
1	3249	1959.397641665041	7
1	3251	1960.234681447951	8
1	3253	1961.370195099018	9
1	3255	1965.119221925062	10
1	3258	1971.517451897617	11
1	3259	1971.653313695176	11
1	3263	1973.980935318958	11
1	3265	1975.83792827165	12
1	3267	1976.221561811647	13
1	3269	1976.242562415855	14
1	3271	1978.790791621842	15
1	3273	1981.951300925306	16
1	3275	1982.412117027384	16
1	3276	1984.076508726195	15
1	3277	1985.352986271522	14
1	3279	1986.265348040026	14
1	3280	1986.795842666991	14
1	3282	1987.504341910342	14
1	3283	1989.457183358514	14
1	3284	1989.686230944324	13
1	3286	1989.728993736072	13
1	3288	1989.793807337277	14
1	3290	1990.23084564407	15
1	3292	1990.294088061554	16
1	3293	1991.287746196226	16
1	3295	1992.358505260666	16
1	3296	1992.426167174668	16
1	3297	1992.935280104877	15
1	3298	1994.069710094178	14
1	3300	1994.089537463608	14
1	3302	1996.066886091696	15
1	3303	1996.213526213951	15
1	3304	1997.146419653668	14
1	3305	1998.509564709658	13
1	3307	1998.885894915342	13
1	3308	1999.536299566513	13
1	3310	2000.031144880667	13
1	3311	2001.048484159292	13
1	3312	2001.085684329547	12
1	3314	2001.256441692821	12
1	3315	2002.72152678651	12
1	3317	2003.468682775896	12
1	3319	2004.859667586749	13
1	3320	2004.897013257582	13
1	3321	2005.434522025331	12
1	3322	2005.458867958548	11
1	3323	2006.299663195016	10
1	3325	2006.975820888396	10
1	3327	2007.128530798075	11
1	3328	2007.351422718596	11
1	3329	2007.401105384052	10
1	3331	2007.547819630665	10
1	3332	2008.207349845792	10
1	3333	2008.215889241068	9
1	3335	2008.756207954699	9
1	3337	2008.897818120595	10
1	3339	2009.397535189711	11
1	3340	2010.232430023901	11
1	3341	2010.315417859964	10
1	3342	2010.390411258079	9
1	3343	2010.777475442393	8
1	3344	2010.996900848907	7
1	3345	2011.843711001246	6
1	3347	2012.827649473585	6
1	3349	2014.342752783323	7
1	3350	2014.453152988739	7
1	3352	2015.609029912884	7
1	3353	2015.888908874089	7
1	3357	2018.967641108911	7
1	3360	2019.423424486561	8
1	3361	2019.504294112131	8
1	3362	2019.588302146206	7
1	3363	2020.432720408312	6
1	3364	2020.453746444055	5
1	3366	2021.68746131409	5
1	3367	2021.822511231051	5
1	3368	2022.417969892216	4
1	3370	2024.352543361955	4
1	3372	2024.439470166857	5
1	3374	2024.944445624956	6
1	3379	2028.964595251611	7
1	3381	2030.335132711848	8
1	3383	2030.378783289984	9
1	3384	2030.961694805523	9
1	3386	2032.428506605009	9
1	3388	2032.733107188739	10
1	3389	2033.277169254245	10
1	3391	2034.8001113348	10
1	3392	2036.434932027127	10
1	3393	2036.545123615781	9
1	3395	2036.914488497602	9
1	3396	2037.4223220075	9
1	3398	2038.052434347528	9
1	3400	2038.067912539134	10
1	3401	2038.554632237815	10
1	3402	2039.701821644426	9
1	3403	2039.906127857134	8
1	3404	2040.61922525687	7
1	3405	2040.676342501813	6
1	3406	2041.436398042924	5
1	3407	2042.300938444221	4
1	3408	2042.562305445625	3
1	3410	2042.569435774255	3
1	3411	2042.596044760533	3
1	3413	2043.005088160797	3
1	3415	2043.159228100952	4
1	3417	2044.232318832019	5
1	3418	2044.606087379544	5
1	3419	2046.118932522921	4
1	3420	2046.3160416004	3
1	3421	2047.151461847054	2
1	3422	2047.376919825837	1
1	3423	2047.607167638329	0
1	3425	2048.315787669748	0
1	3426	2048.677243930659	0
1	3428	2052.905013993051	0
1	3429	2052.962190754497	0
1	3431	2057.019249870817	0
1	3433	2057.127773871062	1
1	3434	2058.270150223029	1
1	3435	2058.282098714278	0
1	3437	2060.571890872573	0
1	3438	2060.588329860767	0
1	3440	2061.741984811734	0
1	3441	2061.79852940872	0
1	3443	2063.468168709656	0
1	3445	2063.589978612095	1
1	3446	2064.637633652513	1
1	3448	2065.040176319632	1
1	3449	2066.002207059015	1
1	3450	2066.16171594891	0
1	3452	2067.474123018813	0
1	3454	2068.350156596628	1
1	3456	2068.387410949235	2
1	3457	2068.439388680479	2
1	3459	2069.074357200448	2
1	3460	2071.386965883139	2
1	3461	2072.059032648558	1
1	3463	2072.084644996614	1
1	3464	2072.392032098826	1
1	3465	2073.027665497585	0
1	3467	2074.048933826167	0
1	3468	2074.264958023887	0
1	3470	2079.398570493021	0
1	3472	2080.410904592611	1
1	3474	2080.89541324884	2
1	3475	2081.259345152033	2
1	3476	2081.582354227224	1
1	3478	2084.024436492633	1
1	3480	2084.307467047672	2
1	3481	2084.518547950623	2
1	3483	2084.678095028072	2
1	3484	2085.401936676341	2
1	3485	2085.466819426107	1
1	3487	2086.591481042663	1
1	3489	2088.331642588571	2
1	3491	2089.141638983817	3
1	3492	2089.646175035969	3
1	3493	2089.971681567457	2
1	3494	2091.529796557952	1
[...]
5	1512	906.16981819263	1
5	1579	944.66435003739	1
5	1619	972.102428593869	1
5	1636	985.612944754038	1
5	1657	992.436786322198	1
5	1673	998.179883676915	1
5	1680	1002.472414686305	1
5	1720	1031.121101478372	1
5	1774	1059.823730250331	1
5	1790	1075.364437874632	1
5	1938	1170.367082354032	1
5	1953	1180.109766243292	1
5	2012	1212.664506770435	1
5	2043	1233.325160215043	1
5	2092	1269.88515367764	1
5	2098	1273.651998237192	2
5	2109	1278.05293541854	2
5	2133	1302.754338639653	3
5	2139	1305.574118968634	4
5	2142	1306.39506238908	4
5	2156	1314.661552737215	3
5	2181	1332.983630237907	1
5	2243	1359.150555686224	1
5	2253	1363.697256601952	1
5	2399	1444.719652389594	1
5	2410	1450.44504109149	1
5	2412	1450.821689742854	2
5	2438	1461.008519765219	1
5	2490	1486.539293398296	1
5	2528	1511.564798431682	1
5	2542	1522.912315959582	1
5	2585	1554.359213467081	1
5	2603	1573.55463600345	1
5	2680	1618.60610114374	1
5	2732	1647.732977010864	1
5	2736	1652.716300240126	2
5	2810	1699.903565993872	1
5	2812	1700.164731177748	2
5	2817	1704.09610134274	2
5	2878	1732.70694833244	1
5	2887	1739.431147144398	1
5	2891	1743.465202265492	2
5	2894	1749.865499275879	2
5	2933	1781.419902188234	1
5	2955	1794.03587162119	2
5	3052	1854.253817291772	1
5	3125	1890.882005542659	1
5	3127	1890.959832848247	2
5	3155	1906.259346134547	1
5	3233	1951.970516732074	1
5	3261	1972.812470886184	1
5	3355	2016.313752534131	1
5	3376	2026.634220104932	1
5	3518	2113.398607569763	1
5	3545	2122.859661153812	1
5	3647	2162.021322230943	1
5	3659	2165.890783281384	1
5	3670	2172.746428742143	1
5	3692	2189.245132141111	1
5	3762	2233.879336630663	1
5	3774	2239.267804364735	1
5	3800	2252.616090301519	1
5	3951	2345.378507754397	1
5	3978	2358.900332232856	1
5	4003	2370.717925181556	1
5	4079	2418.046391651931	1
5	4097	2423.759721043991	1
5	4154	2453.422693129747	1
5	4160	2458.491186840242	1
5	4192	2480.169364514395	1
6	655	368.831334544424	0
6	662	374.074220891487	0
6	689	389.110670426301	0
6	690	391.836241941712	0
6	694	392.470448185346	0
6	703	397.073228684011	0
6	728	406.857955342912	0
6	729	408.221476923144	0
6	746	426.413797271532	0
6	750	428.216150320548	1
6	758	429.56556717974	2
6	763	432.642514614858	2
6	764	434.702367156568	1
6	772	439.368663954059	1
6	779	447.358947452348	1
6	793	453.418493226684	1
6	799	460.280800586182	2
6	807	465.421436393306	3
6	811	468.331227174635	4
6	814	470.754359093368	4
6	817	471.303639372607	3
6	820	472.660888395536	2
6	823	476.414322950536	1
6	824	476.837717043851	0
6	932	532.267433263168	0
6	934	532.47057314743	1
6	935	533.922603977902	1
6	938	539.459863739483	0
6	954	551.950976185058	0
6	955	557.139334108717	0
6	966	562.599858163725	0
6	972	566.167079330092	1
6	975	567.454159364535	1
6	976	568.43452985793	0
6	996	579.735833390176	0
6	997	581.338606075594	0
6	1012	587.83685848517	0
6	1014	588.269454985046	1
6	1016	589.0392234944	2
6	1019	594.20701606962	2
6	1020	597.34588682993	1
6	1023	599.744621630087	0
6	1032	605.436577269174	0
6	1033	606.066478581042	0
6	1057	613.330361908421	0
6	1061	614.946250003507	1
6	1062	618.224339456847	1
6	1063	618.608515555663	0
6	1069	625.020069418922	0
6	1070	626.312078496365	0
6	1090	635.493773863116	0
6	1103	647.045558743044	0
6	1111	651.93908874367	0
6	1120	659.24443513654	0
6	1124	659.479702327961	0
6	1126	660.616830717591	1
6	1131	667.378189079841	1
6	1142	688.257587129019	0
6	1148	690.058304817686	0
6	1161	699.239045524075	0
6	1210	724.440579512485	0
6	1213	727.686528884745	0
6	1251	742.817448148488	0
6	1257	750.436630718249	1
6	1258	751.26005542019	1
6	1269	759.015673353289	0
6	1276	761.240283547267	0
6	1288	768.129381117159	1
6	1296	776.291255989424	2
6	1307	784.767916743596	2
6	1312	790.723947274428	1
6	1317	795.029100520974	0
6	1397	836.22542674111	0
6	1399	836.732694464763	1
6	1406	845.508576801398	1
6	1415	853.912358084028	0
6	1481	886.875913427531	0
6	1483	888.751654418823	1
6	1490	893.352734692413	1
6	1491	896.087744499174	0
6	1512	906.16981819263	0
6	1517	907.745466171163	0
6	1579	944.66435003739	0
6	1580	944.803508484355	0
6	1619	972.102428593869	0
6	1628	980.259742246515	0
6	1636	985.612944754038	0
6	1645	988.639877730806	0
6	1657	992.436786322198	0
6	1664	995.392236176893	0
6	1673	998.179883676915	0
6	1674	998.736363490942	0
6	1680	1002.472414686305	0
6	1693	1012.678366172925	0
6	1720	1031.121101478372	0
6	1725	1039.618463318722	0
6	1774	1059.823730250331	0
6	1785	1073.721280501995	0
6	1790	1075.364437874632	0
6	1795	1081.346573498003	0
6	1938	1170.367082354032	0
6	1941	1172.150548657168	0
6	1953	1180.109766243292	0
6	1958	1184.275094051529	0
6	2012	1212.664506770435	0
6	2015	1214.032654813511	0
6	2043	1233.325160215043	0
6	2046	1234.927752157936	0
6	2092	1269.88515367764	0
6	2098	1273.651998237192	1
6	2101	1273.885298240023	1
6	2109	1278.05293541854	1
6	2133	1302.754338639653	2
6	2139	1305.574118968634	3
6	2140	1306.30998670845	3
6	2142	1306.39506238908	3
6	2145	1308.430773494173	3
6	2146	1309.173517477938	2
6	2156	1314.661552737215	2
6	2157	1315.713210986225	2
6	2162	1320.49117222494	1
6	2163	1322.626118659859	0
6	2181	1332.983630237907	0
6	2184	1336.301924616866	0
6	2243	1359.150555686224	0
6	2244	1360.905858699277	0
6	2253	1363.697256601952	0
6	2260	1366.293453135062	0
6	2399	1444.719652389594	0
6	2406	1448.560882353968	0
6	2410	1450.44504109149	0
6	2412	1450.821689742854	1
6	2419	1456.952034005969	1
6	2422	1457.257621083299	0
6	2438	1461.008519765219	0
6	2439	1462.957565697901	0
6	2490	1486.539293398296	0
6	2495	1491.721371231071	0
6	2528	1511.564798431682	0
6	2531	1514.123474835962	0
6	2542	1522.912315959582	0
6	2551	1528.460805669489	0
6	2585	1554.359213467081	0
6	2588	1556.279931676298	0
6	2603	1573.55463600345	0
6	2604	1573.59313702404	0
6	2680	1618.60610114374	0
6	2705	1633.31438860978	0
6	2732	1647.732977010864	0
6	2736	1652.716300240126	1
6	2739	1657.321990791509	1
6	2752	1669.870551378885	0
6	2810	1699.903565993872	0
6	2812	1700.164731177748	1
6	2813	1700.308170220401	1
6	2817	1704.09610134274	1
6	2822	1708.714031549065	1
6	2827	1710.868207759928	0
6	2878	1732.70694833244	0
6	2879	1732.88030457902	0
6	2887	1739.431147144398	0
6	2891	1743.465202265492	1
6	2892	1747.496952327672	1
6	2894	1749.865499275879	1
6	2907	1761.853287736193	1
6	2908	1762.686386072022	0
6	2933	1781.419902188234	0
6	2955	1794.03587162119	1
6	2956	1796.442674234602	1
6	2957	1798.350264049508	0
6	3052	1854.253817291772	0
6	3063	1862.468559427348	0
6	3125	1890.882005542659	0
6	3127	1890.959832848247	1
6	3130	1892.252714505749	1
6	3135	1895.534650833068	0
6	3155	1906.259346134547	0
6	3156	1908.496849371919	0
6	3233	1951.970516732074	0
6	3256	1968.990406860246	0
6	3261	1972.812470886184	0
6	3274	1982.288759681722	0
6	3355	2016.313752534131	0
6	3358	2019.011413620207	0
6	3376	2026.634220104932	0
6	3377	2028.646198967236	0
6	3518	2113.398607569763	0
6	3523	2115.318398757496	0
6	3545	2122.859661153812	0
6	3548	2124.617202239997	0
6	3647	2162.021322230943	0
6	3648	2162.104219733097	0
6	3659	2165.890783281384	0
6	3664	2170.739025023663	0
6	3670	2172.746428742143	0
6	3671	2172.941078548433	0
6	3692	2189.245132141111	0
6	3695	2191.143393117813	0
6	3762	2233.879336630663	0
6	3763	2234.152090926886	0
6	3774	2239.267804364735	0
6	3775	2240.793917833255	0
6	3800	2252.616090301519	0
6	3801	2253.300694885826	0
6	3951	2345.378507754397	0
6	3962	2353.779919023777	0
6	3978	2358.900332232856	0
6	3979	2359.070097698605	0
6	4003	2370.717925181556	0
6	4014	2379.176983377861	0
6	4079	2418.046391651931	0
6	4082	2419.330029633229	0
6	4097	2423.759721043991	0
6	4104	2428.256196740951	0
6	4154	2453.422693129747	0
6	4155	2457.348006763948	0
6	4160	2458.491186840242	0
6	4167	2462.061830657788	0
6	4192	2480.169364514395	0
6	4197	2481.153247036408	0
7	655	368.831334544424	8
7	694	392.470448185346	9
7	728	406.857955342912	10
7	932	532.267433263168	11
7	954	551.950976185058	12
7	966	562.599858163725	13
7	996	579.735833390176	14
7	1012	587.83685848517	15
7	1032	605.436577269174	16
7	1057	613.330361908421	17
7	1069	625.020069418922	18
7	1090	635.493773863116	19
7	1111	651.93908874367	20
7	1124	659.479702327961	21
7	1148	690.058304817686	22
7	1210	724.440579512485	23
7	1251	742.817448148488	24
7	1276	761.240283547267	25
7	1397	836.22542674111	26
7	1512	906.16981819263	27
7	1579	944.66435003739	28
7	1636	985.612944754038	29
7	1657	992.436786322198	30
7	1673	998.179883676915	31
7	1680	1002.472414686305	32
7	1720	1031.121101478372	33
7	1774	1059.823730250331	34
7	1790	1075.364437874632	35
7	1938	1170.367082354032	36
7	1953	1180.109766243292	37
7	2043	1233.325160215043	38
7	2092	1269.88515367764	39
7	2181	1332.983630237907	40
7	2243	1359.150555686224	41
7	2253	1363.697256601952	42
7	2410	1450.44504109149	43
7	2438	1461.008519765219	44
7	2490	1486.539293398296	45
7	2542	1522.912315959582	46
7	2680	1618.60610114374	47
7	2732	1647.732977010864	48
7	2878	1732.70694833244	49
7	2887	1739.431147144398	50
7	3052	1854.253817291772	51
7	3261	1972.812470886184	52
7	3355	2016.313752534131	53
7	3376	2026.634220104932	54
7	3545	2122.859661153812	55
7	3647	2162.021322230943	56
7	3670	2172.746428742143	57
7	3762	2233.879336630663	58
7	3774	2239.267804364735	59
7	3951	2345.378507754397	60
7	3978	2358.900332232856	61
7	4003	2370.717925181556	62
7	4192	2480.169364514395	63
8	655	368.831334544424	0
8	689	389.110670426301	0
8	694	392.470448185346	0
8	728	406.857955342912	0
8	746	426.413797271532	0
8	763	432.642514614858	4.42636429431
8	764	434.702367156568	5.136799976828
8	779	447.358947452348	7.990283498289
8	814	470.754359093368	17.335865866684
8	817	471.303639372607	11.022838786425
8	820	472.660888395536	7.23945200223
8	823	476.414322950536	8.083095775901
8	932	532.267433263168	0
8	935	533.922603977902	1.452030830472
8	954	551.950976185058	0
8	966	562.599858163725	0
8	975	567.454159364535	1.287080034443
8	996	579.735833390176	0
8	1012	587.83685848517	0
8	1019	594.20701606962	5.937561084574
8	1020	597.34588682993	8.30666333553
8	1032	605.436577269174	0
8	1057	613.330361908421	0
8	1062	618.224339456847	3.27808945334
8	1069	625.020069418922	0
8	1090	635.493773863116	0
8	1111	651.93908874367	0
8	1124	659.479702327961	0
8	1131	667.378189079841	6.76135836225
8	1148	690.058304817686	0
8	1210	724.440579512485	0
8	1251	742.817448148488	0
8	1258	751.26005542019	0.823424701941
8	1276	761.240283547267	0
8	1307	784.767916743596	16.638535626437
8	1312	790.723947274428	14.432691285004
8	1397	836.22542674111	0
8	1406	845.508576801398	8.775882336635
8	1481	886.875913427531	0
8	1490	893.352734692413	4.60108027359
8	1512	906.16981819263	0
8	1579	944.66435003739	0
8	1619	972.102428593869	0
8	1636	985.612944754038	0
8	1657	992.436786322198	0
8	1673	998.179883676915	0
8	1680	1002.472414686305	0
8	1720	1031.121101478372	0
8	1774	1059.823730250331	0
8	1790	1075.364437874632	0
8	1938	1170.367082354032	0
8	1953	1180.109766243292	0
8	2012	1212.664506770435	0
8	2043	1233.325160215043	0
8	2092	1269.88515367764	0
8	2101	1273.885298240023	0.233300002831
8	2140	1306.30998670845	28.25705128991
8	2145	1308.430773494173	5.67643485452
8	2146	1309.173517477938	3.599398509304
8	2157	1315.713210986225	9.318148597145
8	2162	1320.49117222494	5.829619487725
8	2181	1332.983630237907	0
8	2243	1359.150555686224	0
8	2253	1363.697256601952	0
8	2399	1444.719652389594	0
8	2410	1450.44504109149	0
8	2419	1456.952034005969	6.130344263115
8	2438	1461.008519765219	0
8	2490	1486.539293398296	0
8	2528	1511.564798431682	0
8	2542	1522.912315959582	0
8	2585	1554.359213467081	0
8	2603	1573.55463600345	0
8	2680	1618.60610114374	0
8	2732	1647.732977010864	0
8	2739	1657.321990791509	4.605690551383
8	2810	1699.903565993872	0
8	2813	1700.308170220401	0.143439042653
8	2822	1708.714031549065	4.617930206325
8	2878	1732.70694833244	0
8	2887	1739.431147144398	0
8	2892	1747.496952327672	4.03175006218
8	2907	1761.853287736193	11.987788460314
8	2933	1781.419902188234	0
8	2956	1796.442674234602	2.406802613412
8	3052	1854.253817291772	0
8	3125	1890.882005542659	0
8	3130	1892.252714505749	1.292881657502
8	3155	1906.259346134547	0
8	3233	1951.970516732074	0
8	3261	1972.812470886184	0
8	3355	2016.313752534131	0
8	3376	2026.634220104932	0
8	3518	2113.398607569763	0
8	3545	2122.859661153812	0
8	3647	2162.021322230943	0
8	3659	2165.890783281384	0
8	3670	2172.746428742143	0
8	3692	2189.245132141111	0
8	3762	2233.879336630663	0
8	3774	2239.267804364735	0
8	3800	2252.616090301519	0
8	3951	2345.378507754397	0
8	3978	2358.900332232856	0
8	4003	2370.717925181556	0
8	4079	2418.046391651931	0
8	4097	2423.759721043991	0
8	4154	2453.422693129747	0
8	4160	2458.491186840242	0
8	4192	2480.169364514395	0
9	662	374.074220891487	14
9	690	391.836241941712	15
9	703	397.073228684011	16
9	729	408.221476923144	17
9	763	432.642514614858	18
9	764	434.702367156568	19
9	779	447.358947452348	20
9	814	470.754359093368	21
9	817	471.303639372607	22
9	820	472.660888395536	23
9	823	476.414322950536	24
9	824	476.837717043851	25
9	935	533.922603977902	26
9	938	539.459863739483	27
9	955	557.139334108717	28
9	975	567.454159364535	29
9	976	568.43452985793	30
9	997	581.338606075594	31
9	1019	594.20701606962	32
9	1020	597.34588682993	33
9	1023	599.744621630087	34
9	1033	606.066478581042	35
9	1062	618.224339456847	36
9	1063	618.608515555663	37
9	1070	626.312078496365	38
9	1103	647.045558743044	39
9	1120	659.24443513654	40
9	1131	667.378189079841	41
9	1142	688.257587129019	42
9	1161	699.239045524075	43
9	1213	727.686528884745	44
9	1258	751.26005542019	45
9	1269	759.015673353289	46
9	1307	784.767916743596	47
9	1312	790.723947274428	48
9	1317	795.029100520974	49
9	1406	845.508576801398	50
9	1415	853.912358084028	51
9	1490	893.352734692413	52
9	1491	896.087744499174	53
9	1517	907.745466171163	54
9	1580	944.803508484355	55
9	1628	980.259742246515	56
9	1645	988.639877730806	57
9	1664	995.392236176893	58
9	1674	998.736363490942	59
9	1693	1012.678366172925	60
9	1725	1039.618463318722	61
9	1785	1073.721280501995	62
9	1795	1081.346573498003	63
9	1941	1172.150548657168	64
9	1958	1184.275094051529	65
9	2015	1214.032654813511	66
9	2046	1234.927752157936	67
9	2101	1273.885298240023	68
9	2140	1306.30998670845	69
9	2145	1308.430773494173	70
9	2146	1309.173517477938	71
9	2157	1315.713210986225	72
9	2162	1320.49117222494	73
9	2163	1322.626118659859	74
9	2184	1336.301924616866	75
9	2244	1360.905858699277	76
9	2260	1366.293453135062	77
9	2406	1448.560882353968	78
9	2419	1456.952034005969	79
9	2422	1457.257621083299	80
9	2439	1462.957565697901	81
9	2495	1491.721371231071	82
9	2531	1514.123474835962	83
9	2551	1528.460805669489	84
9	2588	1556.279931676298	85
9	2604	1573.59313702404	86
9	2705	1633.31438860978	87
9	2739	1657.321990791509	88
9	2752	1669.870551378885	89
9	2813	1700.308170220401	90
9	2822	1708.714031549065	91
9	2827	1710.868207759928	92
9	2879	1732.88030457902	93
9	2892	1747.496952327672	94
9	2907	1761.853287736193	95
9	2908	1762.686386072022	96
9	2956	1796.442674234602	97
9	2957	1798.350264049508	98
9	3063	1862.468559427348	99
9	3130	1892.252714505749	100
9	3135	1895.534650833068	101
9	3156	1908.496849371919	102
9	3256	1968.990406860246	103
9	3274	1982.288759681722	104
9	3358	2019.011413620207	105
9	3377	2028.646198967236	106
9	3523	2115.318398757496	107
9	3548	2124.617202239997	108
9	3648	2162.104219733097	109
9	3664	2170.739025023663	110
9	3671	2172.941078548433	111
9	3695	2191.143393117813	112
9	3763	2234.152090926886	113
9	3775	2240.793917833255	114
9	3801	2253.300694885826	115
9	3962	2353.779919023777	116
9	3979	2359.070097698605	117
9	4014	2379.176983377861	118
9	4082	2419.330029633229	119
9	4104	2428.256196740951	120
9	4155	2457.348006763948	121
9	4167	2462.061830657788	122
9	4197	2481.153247036408	123
10	662	374.074220891487	5.242886347063
10	690	391.836241941712	2.725571515411
10	703	397.073228684011	4.602780498665
10	729	408.221476923144	1.363521580232
10	763	432.642514614858	6.228717343326
10	764	434.702367156568	6.48621683602
10	779	447.358947452348	17.793380272608
10	814	470.754359093368	31.385695139309
10	817	471.303639372607	17.885146145923
10	820	472.660888395536	12.380087809354
10	823	476.414322950536	10.99288655723
10	824	476.837717043851	8.506489869216
10	935	533.922603977902	1.655170714734
10	938	539.459863739483	6.989290592053
10	955	557.139334108717	5.188357923659
10	975	567.454159364535	4.85430120081
10	976	568.43452985793	2.267450527838
10	997	581.338606075594	1.602772685418
10	1019	594.20701606962	6.37015758445
10	1020	597.34588682993	9.076431844884
10	1023	599.744621630087	10.705398135687
10	1033	606.066478581042	0.629901311868
10	1062	618.224339456847	4.893977548426
10	1063	618.608515555663	3.662265552156
10	1070	626.312078496365	1.292009077443
10	1103	647.045558743044	11.551784879928
10	1120	659.24443513654	7.30534639287
10	1131	667.378189079841	7.89848675188
10	1142	688.257587129019	27.640756411428
10	1161	699.239045524075	9.180740706389
10	1213	727.686528884745	3.24594937226
10	1258	751.26005542019	8.442607271702
10	1269	759.015673353289	8.57904263504
10	1307	784.767916743596	23.527633196329
10	1312	790.723947274428	22.594566157269
10	1317	795.029100520974	18.73784453155
10	1406	845.508576801398	9.283150060288
10	1415	853.912358084028	17.179663619265
10	1490	893.352734692413	6.476821264882
10	1491	896.087744499174	7.336090080351
10	1517	907.745466171163	1.575647978533
10	1580	944.803508484355	0.139158446965
10	1628	980.259742246515	8.157313652646
10	1645	988.639877730806	3.026932976768
10	1664	995.392236176893	2.955449854695
10	1674	998.736363490942	0.556479814027
10	1693	1012.678366172925	10.20595148662
10	1725	1039.618463318722	8.49736184035
10	1785	1073.721280501995	13.897550251664
10	1795	1081.346573498003	5.982135623371
10	1941	1172.150548657168	1.783466303136
10	1958	1184.275094051529	4.165327808237
10	2015	1214.032654813511	1.368148043076
10	2046	1234.927752157936	1.602591942893
10	2101	1273.885298240023	4.000144562383
10	2140	1306.30998670845	32.657988471258
10	2145	1308.430773494173	30.377838075633
10	2146	1309.173517477938	6.419178838285
10	2157	1315.713210986225	10.139092017591
10	2162	1320.49117222494	14.09610983586
10	2163	1322.626118659859	7.964565922644
10	2184	1336.301924616866	3.318294378959
10	2244	1360.905858699277	1.755303013053
10	2260	1366.293453135062	2.59619653311
10	2406	1448.560882353968	3.841229964374
10	2419	1456.952034005969	6.506992914479
10	2422	1457.257621083299	6.435931340445
10	2439	1462.957565697901	1.949045932682
10	2495	1491.721371231071	5.182077832775
10	2531	1514.123474835962	2.55867640428
10	2551	1528.460805669489	5.548489709907
10	2588	1556.279931676298	1.920718209217
10	2604	1573.59313702404	0.03850102059
10	2705	1633.31438860978	14.70828746604
10	2739	1657.321990791509	9.589013780645
10	2752	1669.870551378885	17.154251138759
10	2813	1700.308170220401	0.404604226529
10	2822	1708.714031549065	8.549300371317
10	2827	1710.868207759928	6.772106417188
10	2879	1732.88030457902	0.17335624658
10	2892	1747.496952327672	8.065805183274
10	2907	1761.853287736193	18.388085470701
10	2908	1762.686386072022	12.820886796143
10	2956	1796.442674234602	15.022772046368
10	2957	1798.350264049508	4.314392428318
10	3063	1862.468559427348	8.214742135576
10	3130	1892.252714505749	1.37070896309
10	3135	1895.534650833068	4.574817984821
10	3156	1908.496849371919	2.237503237372
10	3256	1968.990406860246	17.019890128172
10	3274	1982.288759681722	9.476288795538
10	3358	2019.011413620207	2.697661086076
10	3377	2028.646198967236	2.011978862304
10	3523	2115.318398757496	1.919791187733
10	3548	2124.617202239997	1.757541086185
10	3648	2162.104219733097	0.082897502154
10	3664	2170.739025023663	4.848241742279
10	3671	2172.941078548433	0.19464980629
10	3695	2191.143393117813	1.898260976702
10	3763	2234.152090926886	0.272754296223
10	3775	2240.793917833255	1.52611346852
10	3801	2253.300694885826	0.684604584307
10	3962	2353.779919023777	8.40141126938
10	3979	2359.070097698605	0.169765465749
10	4014	2379.176983377861	8.459058196305
10	4082	2419.330029633229	1.283637981298
10	4104	2428.256196740951	4.49647569696
10	4155	2457.348006763948	3.925313634201
10	4167	2462.061830657788	3.570643817546
10	4197	2481.153247036408	0.983882522013
11	4220	2500	0.5128
12	4220	2500	0.0492

