version 2
run factors_calibration_bosses-257-20230303-16:36:53-8937
attr configname factors_calibration_bosses
attr datetime 20230303-16:36:53
attr experiment factors_calibration_bosses
attr inifile omnetpp.ini
attr iterationvars $0=25
attr iterationvarsf 25-
attr measurement $0=25
attr network Network
attr processid 8937
attr repetition 17
attr replication #17
attr resultdir results
attr runnumber 257
attr seedset 17
param *.minion.arrival_mean 2
param *.minion.service_mean 1
param *.boss.arrival_mean 20
param *.boss.service_mean 25
param *.player.recover_rate_x 100
param **.minion.arrival_distribution 0
param **.minion.service_distribution 0
param **.boss.arrival_distribution 0
param **.boss.service_distribution 0

vector 0 Network.player boss_jobs_number_stat:vector ETV
attr source signal_boss_jobs_number
vector 1 Network.player boss_jobs_queue_number_stat:vector ETV
attr source signal_boss_jobs_queue_number
vector 2 Network.player minion_jobs_number_stat:vector ETV
attr source signal_minion_jobs_number
vector 3 Network.player minion_jobs_queue_number_stat:vector ETV
attr source signal_minion_jobs_queue_number
vector 4 Network.player boss_defeated_stat:vector ETV
attr source signal_boss_defeated
vector 5 Network.player boss_response_time_stat:vector ETV
attr source signal_boss_response_time
vector 6 Network.player boss_waiting_time_stat:vector ETV
attr source signal_boss_waiting_time
vector 7 Network.player minion_throughput:vector ETV
attr source signal_minion_throughput
vector 8 Network.player boss_throughput:vector ETV
attr source signal_boss_throughput
0	422	350.171511211393	11
0	437	359.177002320821	11
0	450	365.26094743687	11
0	452	368.098189762035	12
0	482	385.995055935859	13
0	507	401.159380145501	13
0	518	408.580972013092	13
0	526	411.98303390355	14
0	530	412.876803304027	15
0	536	422.146072715288	16
0	564	446.775027194891	17
0	590	468.45014409572	18
0	596	472.544172029421	19
0	616	487.076176212721	20
0	626	491.308263830936	21
0	652	514.420445053881	22
0	691	540.977110483324	22
0	700	551.819681983572	22
0	708	554.511948886503	23
0	738	575.952425612315	24
0	750	583.288797401775	25
0	760	588.718100361583	26
0	831	643.125925376857	24
0	835	645.586996621865	25
0	952	730.571370209296	23
0	963	734.350173070654	23
0	1025	810.658340050417	20
0	1106	884.907727247863	18
0	1112	887.721201712711	19
0	1114	888.414522886148	20
0	1116	888.512631947575	21
0	1118	890.614748597704	22
0	1152	921.637319564409	23
0	1166	933.050810641064	24
0	1194	955.511706174683	21
0	1232	994.890497857697	22
0	1238	1003.331701847225	23
0	1258	1024.71278138575	24
0	1265	1033.063840915732	24
0	1277	1051.810539160986	25
0	1296	1065.212657206365	25
0	1300	1065.754729663329	26
0	1312	1080.816328212444	27
0	1328	1093.090213003979	28
0	1416	1190.157796246335	21
0	1420	1195.018006867426	22
0	1491	1254.157083332267	22
0	1511	1280.882010518192	23
0	1537	1313.151903889802	24
0	1547	1321.444395591257	25
0	1551	1325.585896946281	26
0	1560	1335.422098015786	26
0	1567	1338.793171785704	26
0	1575	1343.945698054676	27
0	1579	1344.605648280557	28
0	1583	1348.23718360817	29
0	1597	1354.444723385226	30
0	1604	1363.78207600242	30
0	1608	1372.897775342055	31
0	1626	1380.740144125913	32
0	1699	1449.877692855951	32
0	1716	1463.860393903988	32
0	1724	1472.968465229854	33
0	1756	1519.198196621634	34
0	1776	1532.42682870514	31
0	1797	1550.165412899953	31
0	1805	1554.583269324379	32
0	1817	1573.502541172078	33
0	1879	1622.789686438765	32
0	1889	1626.079452015312	33
0	1897	1630.884862694327	34
0	1903	1635.526245392597	35
0	1945	1672.708889509399	34
0	1963	1683.53909461402	33
0	1967	1684.610946595907	34
0	1969	1685.324302382972	35
0	1973	1690.607090687069	36
0	1975	1690.716656719464	37
0	2019	1722.801084257979	38
0	2035	1752.565669775121	39
0	2037	1757.548582860074	40
0	2070	1795.945836784854	38
0	2084	1803.075119845715	39
0	2153	1863.031907122048	39
0	2169	1873.807397067592	40
0	2171	1876.768904317585	41
0	2191	1890.39997952919	40
0	2195	1891.62937734553	41
0	2203	1895.714537944116	42
0	2210	1904.656803873486	42
0	2216	1907.741361857288	43
0	2218	1907.770545241994	44
0	2224	1910.078089205621	45
0	2254	1928.628792155236	46
0	2272	1940.266183214219	47
0	2305	1969.677378120698	47
0	2339	2005.109057834261	44
0	2371	2037.716048677079	41
0	2423	2096.363142973599	40
0	2433	2103.40630497504	41
0	2458	2118.70735399252	41
0	2468	2130.419533422778	42
0	2493	2149.699629152779	42
0	2526	2180.406746134353	42
0	2536	2189.056782590741	43
0	2563	2208.817946604845	43
0	2623	2249.007462530087	44
0	2641	2267.540485069693	43
0	2659	2284.914111308136	44
0	2671	2303.01610025261	45
0	2765	2370.815889430469	44
0	2786	2386.415765345996	44
0	2830	2426.057704019991	45
0	2832	2426.901955418237	46
0	2842	2436.157063888962	47
0	2876	2467.123966566147	46
0	2880	2473.867866227238	47
0	2897	2489.726720628059	47
1	422	350.171511211393	10
1	431	357.298228448698	10
1	437	359.177002320821	10
1	442	362.807564071273	10
1	450	365.26094743687	10
1	452	368.098189762035	11
1	482	385.995055935859	12
1	497	394.865319295656	12
1	507	401.159380145501	12
1	512	403.516738472356	12
1	518	408.580972013092	12
1	526	411.98303390355	13
1	530	412.876803304027	14
1	536	422.146072715288	15
1	564	446.775027194891	16
1	590	468.45014409572	17
1	596	472.544172029421	18
1	616	487.076176212721	19
1	626	491.308263830936	20
1	652	514.420445053881	21
1	689	539.713434162569	21
1	691	540.977110483324	21
1	698	551.362810692228	21
1	700	551.819681983572	21
1	708	554.511948886503	22
1	738	575.952425612315	23
1	750	583.288797401775	24
1	760	588.718100361583	25
1	769	598.031159898875	25
1	780	606.685456399998	24
1	791	613.340862441139	23
1	831	643.125925376857	23
1	835	645.586996621865	24
1	876	674.329845758777	24
1	883	684.060331707287	23
1	906	702.121921507794	22
1	952	730.571370209296	22
1	961	733.649261738264	22
1	963	734.350173070654	22
1	964	734.980159194163	22
1	967	737.69297400566	21
1	968	741.446514612401	20
1	983	764.359450975575	19
1	1025	810.658340050417	19
1	1048	834.491242035477	19
1	1049	838.153441755428	18
1	1092	876.942767404012	17
1	1106	884.907727247863	17
1	1112	887.721201712711	18
1	1114	888.414522886148	19
1	1116	888.512631947575	20
1	1118	890.614748597704	21
1	1152	921.637319564409	22
1	1166	933.050810641064	23
1	1169	934.321558692384	23
1	1172	936.418608962989	22
1	1175	943.477923818959	21
1	1188	954.826013064684	20
1	1194	955.511706174683	20
1	1232	994.890497857697	21
1	1238	1003.331701847225	22
1	1258	1024.71278138575	23
1	1263	1031.585607263619	23
1	1265	1033.063840915732	23
1	1277	1051.810539160986	24
1	1294	1062.370895225297	24
1	1296	1065.212657206365	24
1	1300	1065.754729663329	25
1	1312	1080.816328212444	26
1	1328	1093.090213003979	27
1	1335	1101.184405788079	27
1	1354	1128.979779147928	26
1	1371	1143.212974432282	25
1	1378	1152.960296693709	24
1	1383	1160.307011054412	23
1	1384	1162.53055973392	22
1	1397	1174.146158577926	21
1	1410	1184.692162333249	20
1	1416	1190.157796246335	20
1	1420	1195.018006867426	21
1	1441	1205.756966151717	21
1	1491	1254.157083332267	21
1	1511	1280.882010518192	22
1	1537	1313.151903889802	23
1	1547	1321.444395591257	24
1	1551	1325.585896946281	25
1	1552	1327.838146138867	25
1	1560	1335.422098015786	25
1	1563	1336.314681630114	25
1	1567	1338.793171785704	25
1	1575	1343.945698054676	26
1	1579	1344.605648280557	27
1	1583	1348.23718360817	28
1	1597	1354.444723385226	29
1	1602	1363.745561252829	29
1	1604	1363.78207600242	29
1	1608	1372.897775342055	30
1	1626	1380.740144125913	31
1	1661	1412.797021559748	31
1	1699	1449.877692855951	31
1	1708	1458.061268561874	31
1	1716	1463.860393903988	31
1	1724	1472.968465229854	32
1	1756	1519.198196621634	33
1	1759	1523.364988007729	33
1	1764	1525.238415494163	32
1	1767	1526.194009915143	31
1	1774	1532.178721904791	30
1	1776	1532.42682870514	30
1	1785	1541.970821192614	30
1	1797	1550.165412899953	30
1	1805	1554.583269324379	31
1	1817	1573.502541172078	32
1	1846	1592.011019404661	32
1	1861	1602.31728674501	31
1	1879	1622.789686438765	31
1	1889	1626.079452015312	32
1	1897	1630.884862694327	33
1	1903	1635.526245392597	34
1	1904	1636.131586293469	34
1	1931	1660.793290887735	33
1	1945	1672.708889509399	33
1	1956	1680.93042164797	33
1	1961	1682.892516833392	32
1	1963	1683.53909461402	32
1	1967	1684.610946595907	33
1	1969	1685.324302382972	34
1	1973	1690.607090687069	35
1	1975	1690.716656719464	36
1	2019	1722.801084257979	37
1	2035	1752.565669775121	38
1	2037	1757.548582860074	39
1	2048	1774.697767912994	39
1	2055	1781.119230475423	38
1	2058	1783.955613583536	37
1	2070	1795.945836784854	37
1	2084	1803.075119845715	38
1	2135	1847.319625158139	38
1	2153	1863.031907122048	38
1	2169	1873.807397067592	39
1	2171	1876.768904317585	40
1	2176	1880.133349212005	40
1	2187	1887.448258140174	39
1	2191	1890.39997952919	39
1	2195	1891.62937734553	40
1	2203	1895.714537944116	41
1	2204	1896.58994625846	41
1	2210	1904.656803873486	41
1	2216	1907.741361857288	42
1	2218	1907.770545241994	43
1	2224	1910.078089205621	44
1	2254	1928.628792155236	45
1	2272	1940.266183214219	46
1	2283	1948.965273816016	46
1	2305	1969.677378120698	46
1	2306	1970.243815688354	46
1	2319	1978.835318127751	45
1	2324	1981.068114406325	44
1	2329	1987.805180661766	43
1	2339	2005.109057834261	43
1	2346	2012.188479759615	43
1	2351	2017.300067905465	42
1	2352	2017.47640356908	41
1	2355	2021.166201264156	40
1	2371	2037.716048677079	40
1	2372	2042.751988497641	40
1	2389	2059.249369240971	39
1	2423	2096.363142973599	39
1	2433	2103.40630497504	40
1	2450	2113.500201887854	40
1	2458	2118.70735399252	40
1	2468	2130.419533422778	41
1	2487	2146.297736504668	41
1	2493	2149.699629152779	41
1	2504	2158.411818113699	41
1	2526	2180.406746134353	41
1	2536	2189.056782590741	42
1	2543	2194.96589261727	42
1	2563	2208.817946604845	42
1	2623	2249.007462530087	43
1	2624	2254.529804385573	43
1	2631	2263.798978602267	42
1	2641	2267.540485069693	42
1	2659	2284.914111308136	43
1	2671	2303.01610025261	44
1	2680	2311.268194038626	44
1	2717	2340.954068449701	43
1	2765	2370.815889430469	43
1	2768	2374.151437922521	43
1	2786	2386.415765345996	43
1	2830	2426.057704019991	44
1	2832	2426.901955418237	45
1	2842	2436.157063888962	46
1	2857	2449.019451872841	46
1	2872	2464.843196272734	45
1	2876	2467.123966566147	45
1	2880	2473.867866227238	46
1	2891	2483.706282440496	46
1	2897	2489.726720628059	46
1	2904	2498.624247691913	46
2	424	355.296214318353	114
2	426	356.379675168062	115
2	428	356.650276103253	116
2	430	356.681712941435	117
2	433	357.575256434634	118
2	435	358.513383433796	119
2	439	360.417917610024	120
2	441	362.481680939294	121
2	444	364.002805745916	122
2	446	364.119368564504	123
2	448	364.807401549355	124
2	454	368.774228222702	125
2	456	370.679367671803	126
2	458	371.695102659851	127
2	460	375.377388578774	128
2	462	377.212723882147	129
2	464	377.728887519795	130
2	466	377.770119216764	131
2	468	378.730372167913	132
2	470	380.440382040212	133
2	472	380.918970199634	134
2	474	381.437284086943	135
2	476	382.256100978033	136
2	478	383.691124274733	137
2	480	384.526147344479	138
2	484	386.201426533042	139
2	486	386.54672104427	140
2	488	387.976396921101	141
2	490	390.867495014227	142
2	492	392.280827261012	143
2	494	393.565374451548	144
2	496	394.795553929107	145
2	499	396.159760172407	146
2	501	397.72921186217	147
2	503	398.057903995779	148
2	505	399.776524806953	149
2	509	402.049402885397	150
2	511	402.121318909873	151
2	514	405.681531492959	152
2	516	406.123816981813	153
2	520	409.376907151039	154
2	522	409.986951173553	155
2	524	410.614774040968	156
2	528	412.707248074339	157
2	532	413.63587836094	158
2	534	421.248935780555	159
2	538	422.334402491899	160
2	540	424.855315383698	161
2	542	425.201257339859	162
2	544	427.545497708683	163
2	546	429.019178936291	164
2	548	430.317464258166	165
2	550	431.517578036884	166
2	552	433.5523030287	167
2	554	436.367733577653	168
2	556	436.599786155848	169
2	558	438.275830495198	170
2	560	441.503701534664	171
2	562	443.674668083529	172
2	566	452.537766783932	173
2	568	453.354255592113	174
2	570	453.628246394114	175
2	572	454.845996383627	176
2	574	459.185601982973	177
2	576	459.873520047085	178
2	578	460.100630867103	179
2	580	460.344951917416	180
2	582	460.390631413273	181
2	584	462.900478876377	182
2	586	463.136717737672	183
2	588	467.968523978277	184
2	592	468.531499461418	185
2	594	468.964773680144	186
2	598	472.821019583817	187
2	600	478.354363227957	188
2	602	478.375666205214	189
2	604	479.528947961475	190
2	606	479.795113245769	191
2	608	479.873619213734	192
2	610	480.561042895579	193
2	612	481.93475387775	194
2	614	483.487132358663	195
2	618	487.221587837087	196
2	620	487.464056338504	197
2	622	488.059996949639	198
2	624	491.140503216314	199
2	628	493.155859671457	200
2	630	493.607009638865	201
2	632	496.059252785162	202
2	634	497.226798626415	203
2	636	497.795403784971	204
2	638	501.272342469574	205
2	640	503.471901781958	206
2	642	504.681412602171	207
2	644	509.291980208602	208
2	646	511.151288184977	209
2	648	513.425506424676	210
2	650	514.04729512875	211
2	654	515.650073383753	212
2	656	517.287241560227	213
2	658	520.246298663492	214
2	660	522.991957957375	215
2	662	523.032929548053	216
2	664	524.504744621094	217
2	666	525.151620659964	218
2	668	525.670110849978	219
2	670	526.349466296529	220
2	672	527.913981279551	221
2	674	528.172680987384	222
2	676	529.294701393623	223
2	678	529.626436400072	224
2	680	531.74054824574	225
2	682	531.814620618539	226
2	684	533.027713953612	227
2	686	533.80897845109	228
2	688	538.458592773023	229
2	693	541.204119162777	230
2	695	542.670098921145	231
2	697	546.84929091904	232
2	702	552.377021735481	233
2	704	552.717561825295	234
2	706	554.047886574268	235
2	710	556.150063651521	236
2	712	556.553682559134	237
2	714	557.946790833987	238
2	716	558.329594113069	239
2	718	561.737032677819	240
2	720	562.466980681086	241
2	722	563.540442118567	242
2	724	564.085265523635	243
2	726	564.653487478749	244
2	728	565.679324238768	245
2	730	567.917221451727	246
2	732	569.736082480912	247
2	734	570.949744503918	248
2	736	571.452409262356	249
2	740	577.137493681747	250
2	742	578.814734343973	251
2	744	579.651963088752	252
2	746	581.511162029643	253
2	748	582.818741808218	254
2	752	586.647275642481	255
2	754	586.908906535698	256
2	756	587.984454371178	257
2	758	588.093090726614	258
2	762	590.260136522633	259
2	764	591.214111927426	260
2	766	594.584743292589	261
2	768	597.573458259492	262
2	771	603.634000046812	263
2	773	604.009405420861	264
2	775	605.214888716934	265
2	777	606.290329107013	266
2	779	606.58435843489	267
2	782	609.065837408125	268
2	784	609.166142412575	269
2	786	609.802210304732	270
2	788	609.836904765836	271
2	790	612.645055407063	272
2	793	617.675070007526	273
2	795	619.072460147429	274
2	797	619.635037602863	275
2	799	620.094598310106	276
2	801	620.587238768978	277
2	803	621.44705874341	278
2	805	622.386703696594	279
2	807	622.608295459904	280
2	809	623.746799299504	281
2	811	624.575860985454	282
2	813	624.991667947824	283
2	815	625.807181318859	284
2	817	626.61475366609	285
2	819	629.367998082494	286
2	821	632.244034249822	287
2	823	633.019271378527	288
2	825	636.139676294725	289
2	827	642.564462544315	290
2	829	642.963913639829	291
2	833	644.233768588275	292
2	837	650.483168247105	293
2	839	652.391738674886	294
2	841	653.762904605898	295
2	843	654.851079148401	296
2	845	654.928662688583	297
2	847	655.065205326626	298
2	849	655.123399938697	299
2	851	655.782985939752	300
2	853	655.882181380481	301
2	855	657.661629767056	302
2	857	658.355439595944	303
2	859	658.497928688166	304
2	861	658.594472953571	305
2	863	659.832840460764	306
2	865	664.735847504906	307
2	867	667.139510990492	308
2	869	668.67154060431	309
2	871	669.717136946338	310
2	873	671.189713853823	311
2	875	671.722299453806	312
2	878	675.89784398014	313
2	880	677.38326371031	314
2	882	682.143739013214	315
2	885	685.022988910027	316
2	887	686.226979199827	317
2	889	691.466328600934	318
2	891	691.619161573805	319
2	893	698.474625705697	320
2	895	698.775873067456	321
2	897	699.442020165483	322
2	899	699.690012650403	323
2	901	699.957046681939	324
2	903	700.465077930244	325
2	905	701.42705600121	326
2	908	703.094712110926	327
2	910	703.844726211998	328
2	912	705.112621996674	329
2	914	705.489448644026	330
2	916	706.137818459732	331
2	918	710.815077770817	332
2	920	710.876531251344	333
2	922	713.100277541186	334
2	924	714.923532911133	335
2	926	716.388126361847	336
2	928	717.051310018	337
2	930	717.266784645519	338
2	932	718.037147356006	339
2	934	718.088589363565	340
2	936	720.996389351918	341
2	938	721.833149483756	342
2	940	722.256588599506	343
2	942	723.66607241599	344
2	944	724.654764894975	345
2	946	725.598081329883	346
2	948	728.366408469539	347
2	950	730.550555883695	348
2	954	731.56965607403	349
2	956	732.523211418763	350
2	958	733.23298783525	351
2	960	733.347028266968	352
2	966	735.470723124976	353
2	970	745.229674195839	354
2	972	746.062973258925	355
2	974	746.852677470701	356
2	976	753.769304594504	357
2	978	755.462520022309	358
2	980	756.900294782099	359
2	982	759.912507712474	360
2	985	764.950688485683	361
2	987	768.074198809236	362
2	989	768.53037928651	363
2	991	768.539030432615	364
2	993	769.977881688628	365
2	995	770.714764967969	366
2	997	776.542000932752	367
2	999	779.982353815412	368
2	1001	783.677997219708	369
2	1003	783.822608242575	370
2	1005	788.156265041627	371
2	1007	789.033389737054	372
2	1009	789.174843246564	373
2	1011	792.227264531924	374
2	1013	792.385159626169	375
2	1015	793.821501295282	376
2	1017	794.29413413393	377
2	1019	794.437014524083	378
2	1021	796.05426974726	379
2	1023	808.136706070975	380
2	1027	811.336661077454	381
2	1029	813.107291492447	382
2	1031	813.612405172132	383
2	1033	814.37246213647	384
2	1035	817.936959786534	385
2	1037	818.375470149774	386
2	1039	819.6395620384	387
2	1041	825.007672770449	388
2	1043	826.636859970142	389
2	1045	828.503433459036	390
2	1047	831.410109644067	391
2	1051	840.799954804466	392
2	1053	844.017493101881	393
2	1055	847.299826740998	394
2	1057	848.799411422843	395
2	1059	849.720321185715	396
2	1061	851.595123134769	397
2	1063	851.767450249061	398
2	1065	852.095396302094	399
2	1067	853.942921660516	400
2	1069	858.637669570029	401
2	1071	858.658186072063	402
2	1073	859.581229900148	403
2	1075	860.288566028018	404
2	1077	862.126331816756	405
2	1079	862.935943690129	406
2	1081	863.698841277712	407
2	1083	867.460435251781	408
2	1085	868.263711056485	409
2	1087	874.06529680972	410
2	1089	874.674056359345	411
2	1091	876.281795314928	412
2	1094	879.266685979082	413
2	1096	880.670711268658	414
2	1098	881.663825569038	415
2	1100	882.549034738116	416
2	1102	882.695267368333	417
2	1104	884.762035766233	418
2	1108	886.851735838017	419
2	1110	887.663732858812	420
2	1120	892.115672494085	421
2	1122	897.715575843608	422
2	1124	903.097368379372	423
2	1126	904.97319265975	424
2	1128	905.833156389536	425
2	1130	906.29044941449	426
2	1132	906.445529735357	427
2	1134	907.263945587818	428
2	1136	907.378507929005	429
2	1138	908.378796289336	430
2	1140	912.449196136527	431
2	1142	913.045507768125	432
2	1144	916.321366988204	433
2	1146	917.677681322585	434
2	1148	920.117492050944	435
2	1150	920.974738515577	436
2	1154	922.316508567699	437
2	1156	922.51306855205	438
2	1158	923.917320839397	439
2	1160	926.337998249023	440
2	1162	927.462796755333	441
2	1164	929.459070326482	442
2	1168	933.998647781424	443
2	1171	936.298043199924	444
2	1174	942.825941979356	445
2	1177	944.497443341021	446
2	1179	947.904628010882	447
2	1181	948.315389306981	448
2	1183	948.351945197054	449
2	1185	950.088016407099	450
2	1187	950.906098857113	451
2	1190	955.33539496535	452
2	1192	955.484917314482	453
2	1196	956.001035341435	454
2	1198	956.664210253729	455
2	1200	958.37411958154	456
2	1202	959.169918365509	457
2	1204	961.606462687823	458
2	1206	965.941187769472	459
2	1208	971.413489933036	460
2	1210	975.799523176664	461
2	1212	977.265590570036	462
2	1214	979.565967157886	463
2	1216	981.840911547129	464
2	1218	984.966879183668	465
2	1220	986.497696189005	466
2	1222	986.574538025675	467
2	1224	986.696085153421	468
2	1226	987.842988105622	469
2	1228	992.526759697221	470
2	1230	994.004166117967	471
2	1234	995.124522058084	472
2	1236	998.527057621564	473
2	1240	1004.988390423779	474
2	1242	1005.206385756675	475
2	1244	1008.433867489015	476
2	1246	1011.288497664311	477
2	1248	1011.299018395371	478
2	1250	1015.175604473522	479
2	1252	1020.315700166301	480
2	1254	1022.511299702221	481
2	1256	1022.968372759728	482
2	1260	1024.988605205431	483
2	1262	1026.039791095767	484
2	1267	1034.142756207903	485
2	1269	1034.800328482819	486
2	1271	1035.621663889681	487
2	1273	1043.296195274243	488
2	1275	1047.957397298814	489
2	1279	1052.150822270057	490
2	1281	1052.402855256194	491
2	1283	1057.063444876863	492
2	1285	1057.770459857877	493
2	1287	1058.14379521976	494
2	1289	1059.477108648924	495
2	1291	1059.836815732239	496
2	1293	1060.450763761814	497
2	1298	1065.620024620417	498
2	1302	1065.823660176909	499
2	1304	1071.570681638969	500
2	1306	1072.814075128632	501
2	1308	1076.213080008305	502
2	1310	1077.946831069067	503
2	1314	1081.142304858384	504
2	1316	1082.588002449928	505
2	1318	1084.218486023989	506
2	1320	1084.456301781294	507
2	1322	1086.138479660026	508
2	1324	1089.640517751922	509
2	1326	1090.290511705562	510
2	1330	1095.040047428365	511
2	1332	1096.159906394834	512
2	1334	1098.030708426106	513
2	1337	1101.58732016555	514
2	1339	1102.400478056355	515
2	1341	1108.090078812144	516
2	1343	1108.677259812033	517
2	1345	1108.971622128858	518
2	1347	1109.909467009463	519
2	1349	1119.032696645853	520
2	1351	1121.111881678491	521
2	1353	1128.023399079782	522
2	1356	1129.738510162032	523
2	1358	1133.509673295281	524
2	1360	1137.483741052217	525
2	1362	1140.076502852949	526
2	1364	1140.71473170538	527
2	1366	1142.859402861169	528
2	1368	1142.902881544724	529
2	1370	1143.175005896751	530
2	1373	1146.332596305376	531
2	1375	1146.826999587516	532
2	1377	1147.273543482042	533
2	1380	1153.091232913341	534
2	1382	1159.667627279713	535
2	1386	1163.820979297662	536
2	1388	1167.700530188812	537
2	1390	1171.124629792685	538
2	1392	1171.300136194164	539
2	1394	1171.34238480689	540
2	1396	1171.446983808277	541
2	1399	1174.560948738553	542
2	1401	1178.280358849261	543
2	1403	1179.278553949514	544
2	1405	1179.829709794329	545
2	1407	1182.238204278433	546
2	1409	1184.54275935476	547
2	1412	1185.007399574223	548
2	1414	1189.305853515041	549
2	1418	1193.162743198496	550
2	1422	1195.828680406324	551
2	1424	1197.3112678262	552
2	1426	1199.282665439254	553
2	1428	1199.292916931585	554
2	1430	1199.518802979467	555
2	1432	1200.006614876596	556
2	1434	1200.144591189419	557
2	1436	1201.734942943779	558
2	1438	1201.803370855892	559
2	1440	1202.363236402536	560
2	1443	1206.780958061208	561
2	1445	1208.850489775467	562
2	1447	1211.548731350392	563
2	1449	1212.439407999021	564
2	1451	1213.816592233967	565
2	1453	1214.135145751292	566
2	1455	1214.573242140887	567
2	1457	1215.556201174643	568
2	1459	1216.455144404315	569
2	1461	1222.393764733435	570
2	1463	1226.841240491805	571
2	1465	1227.351466647393	572
2	1467	1228.452375825643	573
2	1469	1231.156516826838	574
2	1471	1231.241503385158	575
2	1473	1231.382187660001	576
2	1475	1232.0303133959	577
2	1477	1235.613143747314	578
2	1479	1235.638844146415	579
2	1481	1237.916328080842	580
2	1483	1239.679737440708	581
2	1485	1242.034352322476	582
2	1487	1245.960595270329	583
2	1489	1247.634573432475	584
2	1493	1255.939260140462	585
2	1495	1259.095895275137	586
2	1497	1263.37295106654	587
2	1499	1266.261708326694	588
2	1501	1267.133666099679	589
2	1503	1268.163905595567	590
2	1505	1274.268892366903	591
2	1507	1275.674850590844	592
2	1509	1276.781580726938	593
2	1513	1286.041520929093	594
2	1515	1288.593852420674	595
2	1517	1288.909915761255	596
2	1519	1289.352066070378	597
2	1521	1289.721417894158	598
2	1523	1290.309668682753	599
2	1525	1294.329821798951	600
2	1527	1294.628327112436	601
2	1529	1302.894019558171	602
2	1531	1304.48442644159	603
2	1533	1307.922043955699	604
2	1535	1308.801862710434	605
2	1539	1313.931644404839	606
2	1541	1314.584843891139	607
2	1543	1318.307519926731	608
2	1545	1318.416994500977	609
2	1549	1322.176517251373	610
2	1554	1328.321535263722	611
2	1556	1329.570302532218	612
2	1558	1332.248500466682	613
2	1562	1335.672211463501	614
2	1565	1337.400243921417	615
2	1569	1339.493745426331	616
2	1571	1341.141390654834	617
2	1573	1341.884536405599	618
2	1577	1344.164073631787	619
2	1581	1346.178738596674	620
2	1585	1349.353512945025	621
2	1587	1349.649693519315	622
2	1589	1350.398552209956	623
2	1591	1350.506253511678	624
2	1593	1351.977037013623	625
2	1595	1352.210979123384	626
2	1599	1356.967675892714	627
2	1601	1357.898194699075	628
2	1606	1366.393515048891	629
2	1610	1373.120836549127	630
2	1612	1373.649748969406	631
2	1614	1374.236593219985	632
2	1616	1375.099631645783	633
2	1618	1375.880586832934	634
2	1620	1377.433130192768	635
2	1622	1377.741687983464	636
2	1624	1379.893969985793	637
2	1628	1382.374251055705	638
2	1630	1385.728465299819	639
2	1632	1388.818831573698	640
2	1634	1391.196779409142	641
2	1636	1392.218945434326	642
2	1638	1392.671045466846	643
2	1640	1393.943913998058	644
2	1642	1396.563692181837	645
2	1644	1397.207318729935	646
2	1646	1399.472028839006	647
2	1648	1400.795159165073	648
2	1650	1404.852146815575	649
2	1652	1406.456627000303	650
2	1654	1406.741587517281	651
2	1656	1407.056679264278	652
2	1658	1411.271686839541	653
2	1660	1411.757938468155	654
2	1663	1412.919887994106	655
2	1665	1413.769284561685	656
2	1667	1416.695672137092	657
2	1669	1418.133377515342	658
2	1671	1422.015651725303	659
2	1673	1425.208445235262	660
2	1675	1425.238308239296	661
2	1677	1425.72185525482	662
2	1679	1425.98676873641	663
2	1681	1427.640996781276	664
2	1683	1431.710539535685	665
2	1685	1431.833434497772	666
2	1687	1433.301198930111	667
2	1689	1440.823895778067	668
2	1691	1441.926497110129	669
2	1693	1445.597725795973	670
2	1695	1445.689839543275	671
2	1697	1447.473378133928	672
2	1701	1450.73853301048	673
2	1703	1451.269036208303	674
2	1705	1453.092277022245	675
2	1707	1453.407401265149	676
2	1710	1459.140874332462	677
2	1712	1461.824987135582	678
2	1714	1462.013279391878	679
2	1718	1465.75210026563	680
2	1720	1467.354670930045	681
2	1722	1472.52250266688	682
2	1726	1474.64657088582	683
2	1728	1476.385988967306	684
2	1730	1479.212370238621	685
2	1732	1480.08502927435	686
2	1734	1486.606485399604	687
2	1736	1489.90106182957	688
2	1738	1491.953001636088	689
2	1740	1495.776834957667	690
2	1742	1496.816517873596	691
2	1744	1507.440080611111	692
2	1746	1508.243470591229	693
2	1748	1508.805090876827	694
2	1750	1511.596100563272	695
2	1752	1516.964056898415	696
2	1754	1518.409753781922	697
2	1758	1523.086061264991	698
2	1761	1524.921663074734	699
2	1763	1524.989248040579	700
2	1766	1525.308234606385	701
2	1769	1526.881460163967	702
2	1771	1527.379252704215	703
2	1773	1531.537821476004	704
2	1778	1534.480716349688	705
2	1780	1539.137853193462	706
2	1782	1540.66116181498	707
2	1784	1541.369123716318	708
2	1787	1543.833452435907	709
2	1789	1544.385793504152	710
2	1791	1546.267926789967	711
2	1793	1546.348589332211	712
2	1795	1546.682272629094	713
2	1799	1550.917049919399	714
2	1801	1553.62150607275	715
2	1803	1554.223351103737	716
2	1807	1556.348993557925	717
2	1809	1556.706993577921	718
2	1811	1558.557113336534	719
2	1813	1564.093792438666	720
2	1815	1564.246474294389	721
2	1819	1573.839065427087	722
2	1821	1575.197492532714	723
2	1823	1577.101430650566	724
2	1825	1577.966211250627	725
2	1827	1578.186453117503	726
2	1829	1578.616469552249	727
2	1831	1578.808755588533	728
2	1833	1580.500255872686	729
2	1835	1584.105431811342	730
2	1837	1584.989017261428	731
2	1839	1586.781323419512	732
2	1841	1587.737269106434	733
2	1843	1588.371993285596	734
2	1845	1589.889955219219	735
2	1848	1592.533506420713	736
2	1850	1594.263101413063	737
2	1852	1597.107691255679	738
2	1854	1597.414869289706	739
2	1856	1599.257753485045	740
2	1858	1599.826595154879	741
2	1860	1601.738150079697	742
2	1863	1608.278426462778	743
2	1865	1608.295854836192	744
2	1867	1608.682584107901	745
2	1869	1612.407667636975	746
2	1871	1614.409418347689	747
2	1873	1618.15859608345	748
2	1875	1619.255487547094	749
2	1877	1621.132638151381	750
2	1881	1623.466323972533	751
2	1883	1623.636463837936	752
2	1885	1624.098045401782	753
2	1887	1625.849653338455	754
2	1891	1626.1551915044	755
2	1893	1628.143170273479	756
2	1895	1629.733774873676	757
2	1899	1630.897940188291	758
2	1901	1634.086702288088	759
2	1906	1636.243600470749	760
2	1908	1636.645089314771	761
2	1910	1641.357435851671	762
2	1912	1645.606650093077	763
2	1914	1645.635099150638	764
2	1916	1647.790434183541	765
2	1918	1648.852534033921	766
2	1920	1651.598512946181	767
2	1922	1652.262221641273	768
2	1924	1652.772392431193	769
2	1926	1656.469332686853	770
2	1928	1657.902807101692	771
2	1930	1660.615392569966	772
2	1933	1661.013458863277	773
2	1935	1661.791012661488	774
2	1937	1663.043857714416	775
2	1939	1669.164761583837	776
2	1941	1671.577862103333	777
2	1943	1672.314369364799	778
2	1947	1673.381307572794	779
2	1949	1675.167244660967	780
2	1951	1676.437133777745	781
2	1953	1677.519867187918	782
2	1955	1680.001077264425	783
2	1958	1681.111303273252	784
2	1960	1681.712696911662	785
2	1965	1683.899024021596	786
2	1971	1689.608422676085	787
2	1977	1692.198859855113	788
2	1979	1693.534951619701	789
2	1981	1696.062665382529	790
2	1983	1698.247836841901	791
2	1985	1698.311555278707	792
2	1987	1700.429066528445	793
2	1989	1701.893175386541	794
2	1991	1702.038000022081	795
2	1993	1706.816436165886	796
2	1995	1711.287080838749	797
2	1997	1711.75122257597	798
2	1999	1712.42716706865	799
2	2001	1712.550471074573	800
2	2003	1714.516406682456	801
2	2005	1717.232103124183	802
2	2007	1718.205036297554	803
2	2009	1718.837829065813	804
2	2011	1719.19886430119	805
2	2013	1719.427477643683	806
2	2015	1721.151944113304	807
2	2017	1722.458871274277	808
2	2021	1723.809276938238	809
2	2023	1729.652784303935	810
2	2025	1734.235319495062	811
2	2027	1741.341053685086	812
2	2029	1746.385727228371	813
2	2031	1747.916018828859	814
2	2033	1749.693842305064	815
2	2039	1763.000909974502	816
2	2041	1765.496341658863	817
2	2043	1766.297390465369	818
2	2045	1769.71026748607	819
2	2047	1770.338207807408	820
2	2050	1776.179004078359	821
2	2052	1777.73464872401	822
2	2054	1778.609284438312	823
2	2057	1781.434395626791	824
2	2060	1786.248147202521	825
2	2062	1786.697591592269	826
2	2064	1787.476039002266	827
2	2066	1789.097654286157	828
2	2068	1792.089971461594	829
2	2072	1797.092573729508	830
2	2074	1797.578793406446	831
2	2076	1799.753263009142	832
2	2078	1800.077199907259	833
2	2080	1800.515083713886	834
2	2082	1801.150233379833	835
2	2086	1803.718790935765	836
2	2088	1804.127868669484	837
2	2090	1804.347368578834	838
2	2092	1804.394997019439	839
2	2094	1805.339470248638	840
2	2096	1806.592939563066	841
2	2098	1815.975206003632	842
2	2100	1820.676220528449	843
2	2102	1822.041653049482	844
2	2104	1825.336840874283	845
2	2106	1828.71521048125	846
2	2108	1828.936803707423	847
2	2110	1829.273574174306	848
2	2112	1830.196823738455	849
2	2114	1832.243041580309	850
2	2116	1835.141591742599	851
2	2118	1836.334219816964	852
2	2120	1836.735696819727	853
2	2122	1836.855102323198	854
2	2124	1838.540679426455	855
2	2126	1840.960194014066	856
2	2128	1843.509791902047	857
2	2130	1843.8863272069	858
2	2132	1845.425437711053	859
2	2134	1847.108077194906	860
2	2137	1847.827461519779	861
2	2139	1849.050154549986	862
2	2141	1849.698483728089	863
2	2143	1856.054864240207	864
2	2145	1856.653444869714	865
2	2147	1857.545902683729	866
2	2149	1857.709298713707	867
2	2151	1861.632178897907	868
2	2155	1863.265608711271	869
2	2157	1864.507089190487	870
2	2159	1864.601609024688	871
2	2161	1866.666134245903	872
2	2163	1867.64077087932	873
2	2165	1868.688812170529	874
2	2167	1870.182106127002	875
2	2173	1877.180629892335	876
2	2175	1878.480428017882	877
2	2178	1882.525210408784	878
2	2180	1883.25631822033	879
2	2182	1884.674621779333	880
2	2184	1885.948480295257	881
2	2186	1886.096226395522	882
2	2189	1890.241230373826	883
2	2193	1890.677652444839	884
2	2197	1891.960650206877	885
2	2199	1892.184228227495	886
2	2201	1892.617261840941	887
2	2206	1898.918352051468	888
2	2208	1899.264683461581	889
2	2212	1905.320754160948	890
2	2214	1906.967163657736	891
2	2220	1908.554288029521	892
2	2222	1909.976344496284	893
2	2226	1911.25593079285	894
2	2228	1911.516755420705	895
2	2230	1913.049837872387	896
2	2232	1916.246953191357	897
2	2234	1917.065462602279	898
2	2236	1920.715746200087	899
2	2238	1921.54210504538	900
2	2240	1921.902530442654	901
2	2242	1922.039661743304	902
2	2244	1923.486605057497	903
2	2246	1924.135564774257	904
2	2248	1926.625714450502	905
2	2250	1927.287763387877	906
2	2252	1927.451935857142	907
2	2256	1929.818876931467	908
2	2258	1930.743746294995	909
2	2260	1932.363251955756	910
2	2262	1934.072742609123	911
2	2264	1934.581903596433	912
2	2266	1939.197762348998	913
2	2268	1939.248673172814	914
2	2270	1939.992257967628	915
2	2274	1942.275718582434	916
2	2276	1942.557529461758	917
2	2278	1944.310454396319	918
2	2280	1944.506408279855	919
2	2282	1948.087975167319	920
2	2285	1949.731289497679	921
2	2287	1950.988907991534	922
2	2289	1953.495175030247	923
2	2291	1953.74772677342	924
2	2293	1956.564048659474	925
2	2295	1956.753361303753	926
2	2297	1958.089782093952	927
2	2299	1959.140182467427	928
2	2301	1960.962034094552	929
2	2303	1962.11484777277	930
2	2308	1972.193338251603	931
2	2310	1973.137442056236	932
2	2312	1974.281353700923	933
2	2314	1974.832030673244	934
2	2316	1974.859167569817	935
2	2318	1977.753332062268	936
2	2321	1979.098747877322	937
2	2323	1979.195098400251	938
2	2326	1983.223589833663	939
2	2328	1985.501459340081	940
2	2331	1992.944682318921	941
2	2333	1996.201629786064	942
2	2335	1999.267824385459	943
2	2337	2003.843439204132	944
2	2341	2006.420878315438	945
2	2343	2007.197257901416	946
2	2345	2011.425108254844	947
2	2348	2015.850362943971	948
2	2350	2016.133407370052	949
2	2354	2019.475010670468	950
2	2357	2021.225964146479	951
2	2359	2024.207746705701	952
2	2361	2027.494710850664	953
2	2363	2028.429945968728	954
2	2365	2029.219334859953	955
2	2367	2033.10294019712	956
2	2369	2034.541886365661	957
2	2374	2043.561163255412	958
2	2376	2043.581282116703	959
2	2378	2044.983964946625	960
2	2380	2046.146275372263	961
2	2382	2050.18345507616	962
2	2384	2051.828700191388	963
2	2386	2052.708064549572	964
2	2388	2055.058805174031	965
2	2391	2062.748611207652	966
2	2393	2063.322465554532	967
2	2395	2064.189429849828	968
2	2397	2066.163656521455	969
2	2399	2068.207562248228	970
2	2401	2069.263710843741	971
2	2403	2071.520076633223	972
2	2405	2079.358762466987	973
2	2407	2080.922186925306	974
2	2409	2086.530494051099	975
2	2411	2088.768900858531	976
2	2413	2091.589539144041	977
2	2415	2093.200961768502	978
2	2417	2093.317507056709	979
2	2419	2095.367218930272	980
2	2421	2095.408588428188	981
2	2425	2098.703946139296	982
2	2427	2099.190586303649	983
2	2429	2099.39166314246	984
2	2431	2101.70098030208	985
2	2435	2104.359959729051	986
2	2437	2107.261640539822	987
2	2439	2107.274764638715	988
2	2441	2107.999875758947	989
2	2443	2109.023032185349	990
2	2445	2110.236353620399	991
2	2447	2110.324832839623	992
2	2449	2110.751187651656	993
2	2452	2113.563995849157	994
2	2454	2114.142002308953	995
2	2456	2117.695245059754	996
2	2460	2119.638780485575	997
2	2462	2122.67941003998	998
2	2464	2124.603752279296	999
2	2466	2125.94081008274	1000
2	2470	2131.093391971965	1001
2	2472	2134.122793463975	1002
2	2474	2134.77667469309	1003
2	2476	2138.325523110182	1004
2	2478	2138.562698490748	1005
2	2480	2140.493058867081	1006
2	2482	2141.361891823918	1007
2	2484	2144.878544676123	1008
2	2486	2145.586449852095	1009
2	2489	2147.607880129669	1010
2	2491	2147.845554946327	1011
2	2495	2151.924530352633	1012
2	2497	2153.222175934273	1013
2	2499	2153.693313540626	1014
2	2501	2155.196195113066	1015
2	2503	2157.282981126629	1016
2	2506	2158.520717373999	1017
2	2508	2159.632833511406	1018
2	2510	2160.734209669483	1019
2	2512	2164.247084116095	1020
2	2514	2164.458240098752	1021
2	2516	2165.591667129563	1022
2	2518	2169.416322797743	1023
2	2520	2170.088509835484	1024
2	2522	2175.575884575802	1025
2	2524	2178.323073836567	1026
2	2528	2181.158957705953	1027
2	2530	2182.644922294288	1028
2	2532	2183.195298511606	1029
2	2534	2188.585978223259	1030
2	2538	2192.174994349504	1031
2	2540	2193.024429236753	1032
2	2542	2194.497593155228	1033
2	2545	2196.341997703186	1034
2	2547	2197.348091116849	1035
2	2549	2200.892479235228	1036
2	2551	2201.544782137819	1037
2	2553	2201.930477623762	1038
2	2555	2201.990701007919	1039
2	2557	2202.297679425948	1040
2	2559	2204.783831977438	1041
2	2561	2206.733961132218	1042
2	2565	2210.167727556231	1043
2	2567	2211.996213931911	1044
2	2569	2212.165231285014	1045
2	2571	2214.357728569113	1046
2	2573	2215.82676063665	1047
2	2575	2216.587610464148	1048
2	2577	2217.181455714663	1049
2	2579	2217.857231385135	1050
2	2581	2222.775073001977	1051
2	2583	2224.059910502771	1052
2	2585	2226.176874893353	1053
2	2587	2226.322904494944	1054
2	2589	2229.650380090571	1055
2	2591	2229.69076947183	1056
2	2593	2232.746097758902	1057
2	2595	2233.813097796524	1058
2	2597	2236.683680800797	1059
2	2599	2236.773934861422	1060
2	2601	2237.467193233053	1061
2	2603	2237.753626378419	1062
2	2605	2238.883023675525	1063
2	2607	2239.917257221745	1064
2	2609	2242.094635137736	1065
2	2611	2242.46363884101	1066
2	2613	2242.640796826381	1067
2	2615	2243.301674173147	1068
2	2617	2243.518868442387	1069
2	2619	2245.700457972744	1070
2	2621	2247.679251798238	1071
2	2626	2255.942725092786	1072
2	2628	2258.747822928792	1073
2	2630	2263.399297393438	1074
2	2633	2265.747406998417	1075
2	2635	2265.94744552164	1076
2	2637	2266.830512814078	1077
2	2639	2266.997244968702	1078
2	2643	2271.565355290694	1079
2	2645	2272.302682575293	1080
2	2647	2274.843341394666	1081
2	2649	2275.514952862452	1082
2	2651	2277.093169681126	1083
2	2653	2277.166849627227	1084
2	2655	2278.424315937739	1085
2	2657	2284.263786272209	1086
2	2661	2285.524772674115	1087
2	2663	2287.220332151353	1088
2	2665	2292.133190051587	1089
2	2667	2294.936774829788	1090
2	2669	2297.078253460551	1091
2	2673	2304.069682881674	1092
2	2675	2304.769010953559	1093
2	2677	2308.297206514958	1094
2	2679	2310.994806144296	1095
2	2682	2311.984476974876	1096
2	2684	2314.915514984312	1097
2	2686	2315.991382520041	1098
2	2688	2316.936029140008	1099
2	2690	2317.611388533098	1100
2	2692	2317.719897289028	1101
2	2694	2318.811621322129	1102
2	2696	2319.860543343418	1103
2	2698	2320.328594320125	1104
2	2700	2320.780813503825	1105
2	2702	2321.447819357083	1106
2	2704	2324.034411391295	1107
2	2706	2327.10498138475	1108
2	2708	2330.059508995263	1109
2	2710	2332.441199315507	1110
2	2712	2332.45238929053	1111
2	2714	2340.690445959074	1112
2	2716	2340.834043980947	1113
2	2719	2344.680671248785	1114
2	2721	2344.926360198525	1115
2	2723	2345.964954625259	1116
2	2725	2346.476392819894	1117
2	2727	2347.713121559268	1118
2	2729	2347.874663310134	1119
2	2731	2349.308320106152	1120
2	2733	2350.192342207935	1121
2	2735	2351.844534676003	1122
2	2737	2353.001941897408	1123
2	2739	2356.164091266042	1124
2	2741	2356.173056439424	1125
2	2743	2358.125308453035	1126
2	2745	2358.979824772874	1127
2	2747	2360.605567033307	1128
2	2749	2360.923888591938	1129
2	2751	2364.538305826597	1130
2	2753	2366.031851204233	1131
2	2755	2366.524583193543	1132
2	2757	2369.373442171916	1133
2	2759	2370.085300753049	1134
2	2761	2370.508217916098	1135
2	2763	2370.574964241694	1136
2	2767	2373.308466376224	1137
2	2770	2374.655347179088	1138
2	2772	2379.618941594878	1139
2	2774	2380.101653778408	1140
2	2776	2380.491568965492	1141
2	2778	2382.531430299363	1142
2	2780	2382.81950722823	1143
2	2782	2385.934192536052	1144
2	2784	2386.016766902869	1145
2	2788	2388.051389749844	1146
2	2790	2398.291653991213	1147
2	2792	2400.182839880973	1148
2	2794	2403.234029531461	1149
2	2796	2405.509399043755	1150
2	2798	2408.008066686037	1151
2	2800	2410.699920609808	1152
2	2802	2411.195859114224	1153
2	2804	2412.610210910834	1154
2	2806	2412.964209139843	1155
2	2808	2415.481319528683	1156
2	2810	2418.794662937716	1157
2	2812	2421.116002939402	1158
2	2814	2422.614825293376	1159
2	2816	2422.905779582143	1160
2	2818	2423.799149054456	1161
2	2820	2424.267104674695	1162
2	2822	2424.465455347508	1163
2	2824	2424.947470578336	1164
2	2826	2425.552779753921	1165
2	2828	2425.943768779783	1166
2	2834	2427.007760853127	1167
2	2836	2429.342065192623	1168
2	2838	2432.533490306851	1169
2	2840	2433.426072583664	1170
2	2844	2436.24686672887	1171
2	2846	2436.282168958877	1172
2	2848	2436.365550339614	1173
2	2850	2441.513625771415	1174
2	2852	2447.148947977651	1175
2	2854	2447.277186702834	1176
2	2856	2448.172143108666	1177
2	2859	2450.672701216021	1178
2	2861	2451.246807722783	1179
2	2863	2459.220382820573	1180
2	2865	2460.433402349721	1181
2	2867	2461.106237093078	1182
2	2869	2461.553650326734	1183
2	2871	2462.927800378623	1184
2	2874	2465.743764562537	1185
2	2878	2470.638635672896	1186
2	2882	2474.289887427161	1187
2	2884	2474.940766372255	1188
2	2886	2475.58074589725	1189
2	2888	2480.228673595658	1190
2	2890	2482.693035249894	1191
2	2893	2488.868915082357	1192
2	2895	2489.383387824864	1193
2	2899	2492.240332893893	1194
2	2901	2495.346955664732	1195
2	2903	2497.174682383487	1196
2	2906	2499.701030845476	1197
3	424	355.296214318353	113
3	426	356.379675168062	114
3	428	356.650276103253	115
3	430	356.681712941435	116
3	433	357.575256434634	117
3	435	358.513383433796	118
3	439	360.417917610024	119
3	441	362.481680939294	120
3	444	364.002805745916	121
3	446	364.119368564504	122
3	448	364.807401549355	123
3	454	368.774228222702	124
3	456	370.679367671803	125
3	458	371.695102659851	126
3	460	375.377388578774	127
3	462	377.212723882147	128
3	464	377.728887519795	129
3	466	377.770119216764	130
3	468	378.730372167913	131
3	470	380.440382040212	132
3	472	380.918970199634	133
3	474	381.437284086943	134
3	476	382.256100978033	135
3	478	383.691124274733	136
3	480	384.526147344479	137
3	484	386.201426533042	138
3	486	386.54672104427	139
3	488	387.976396921101	140
3	490	390.867495014227	141
3	492	392.280827261012	142
3	494	393.565374451548	143
3	496	394.795553929107	144
3	499	396.159760172407	145
3	501	397.72921186217	146
3	503	398.057903995779	147
3	505	399.776524806953	148
3	509	402.049402885397	149
3	511	402.121318909873	150
3	514	405.681531492959	151
3	516	406.123816981813	152
3	520	409.376907151039	153
3	522	409.986951173553	154
3	524	410.614774040968	155
3	528	412.707248074339	156
3	532	413.63587836094	157
3	534	421.248935780555	158
3	538	422.334402491899	159
3	540	424.855315383698	160
3	542	425.201257339859	161
3	544	427.545497708683	162
3	546	429.019178936291	163
3	548	430.317464258166	164
3	550	431.517578036884	165
3	552	433.5523030287	166
3	554	436.367733577653	167
3	556	436.599786155848	168
3	558	438.275830495198	169
3	560	441.503701534664	170
3	562	443.674668083529	171
3	566	452.537766783932	172
3	568	453.354255592113	173
3	570	453.628246394114	174
3	572	454.845996383627	175
3	574	459.185601982973	176
3	576	459.873520047085	177
3	578	460.100630867103	178
3	580	460.344951917416	179
3	582	460.390631413273	180
3	584	462.900478876377	181
3	586	463.136717737672	182
3	588	467.968523978277	183
3	592	468.531499461418	184
3	594	468.964773680144	185
3	598	472.821019583817	186
3	600	478.354363227957	187
3	602	478.375666205214	188
3	604	479.528947961475	189
3	606	479.795113245769	190
3	608	479.873619213734	191
3	610	480.561042895579	192
3	612	481.93475387775	193
3	614	483.487132358663	194
3	618	487.221587837087	195
3	620	487.464056338504	196
3	622	488.059996949639	197
3	624	491.140503216314	198
3	628	493.155859671457	199
3	630	493.607009638865	200
3	632	496.059252785162	201
3	634	497.226798626415	202
3	636	497.795403784971	203
3	638	501.272342469574	204
3	640	503.471901781958	205
3	642	504.681412602171	206
3	644	509.291980208602	207
3	646	511.151288184977	208
3	648	513.425506424676	209
3	650	514.04729512875	210
3	654	515.650073383753	211
3	656	517.287241560227	212
3	658	520.246298663492	213
3	660	522.991957957375	214
3	662	523.032929548053	215
3	664	524.504744621094	216
3	666	525.151620659964	217
3	668	525.670110849978	218
3	670	526.349466296529	219
3	672	527.913981279551	220
3	674	528.172680987384	221
3	676	529.294701393623	222
3	678	529.626436400072	223
3	680	531.74054824574	224
3	682	531.814620618539	225
3	684	533.027713953612	226
3	686	533.80897845109	227
3	688	538.458592773023	228
3	693	541.204119162777	229
3	695	542.670098921145	230
3	697	546.84929091904	231
3	702	552.377021735481	232
3	704	552.717561825295	233
3	706	554.047886574268	234
3	710	556.150063651521	235
3	712	556.553682559134	236
3	714	557.946790833987	237
3	716	558.329594113069	238
3	718	561.737032677819	239
3	720	562.466980681086	240
3	722	563.540442118567	241
3	724	564.085265523635	242
3	726	564.653487478749	243
3	728	565.679324238768	244
3	730	567.917221451727	245
3	732	569.736082480912	246
3	734	570.949744503918	247
3	736	571.452409262356	248
3	740	577.137493681747	249
3	742	578.814734343973	250
3	744	579.651963088752	251
3	746	581.511162029643	252
3	748	582.818741808218	253
3	752	586.647275642481	254
3	754	586.908906535698	255
3	756	587.984454371178	256
3	758	588.093090726614	257
3	762	590.260136522633	258
3	764	591.214111927426	259
3	766	594.584743292589	260
3	768	597.573458259492	261
3	771	603.634000046812	262
3	773	604.009405420861	263
3	775	605.214888716934	264
3	777	606.290329107013	265
3	779	606.58435843489	266
3	782	609.065837408125	267
3	784	609.166142412575	268
3	786	609.802210304732	269
3	788	609.836904765836	270
3	790	612.645055407063	271
3	793	617.675070007526	272
3	795	619.072460147429	273
3	797	619.635037602863	274
3	799	620.094598310106	275
3	801	620.587238768978	276
3	803	621.44705874341	277
3	805	622.386703696594	278
3	807	622.608295459904	279
3	809	623.746799299504	280
3	811	624.575860985454	281
3	813	624.991667947824	282
3	815	625.807181318859	283
3	817	626.61475366609	284
3	819	629.367998082494	285
3	821	632.244034249822	286
3	823	633.019271378527	287
3	825	636.139676294725	288
3	827	642.564462544315	289
3	829	642.963913639829	290
3	833	644.233768588275	291
3	837	650.483168247105	292
3	839	652.391738674886	293
3	841	653.762904605898	294
3	843	654.851079148401	295
3	845	654.928662688583	296
3	847	655.065205326626	297
3	849	655.123399938697	298
3	851	655.782985939752	299
3	853	655.882181380481	300
3	855	657.661629767056	301
3	857	658.355439595944	302
3	859	658.497928688166	303
3	861	658.594472953571	304
3	863	659.832840460764	305
3	865	664.735847504906	306
3	867	667.139510990492	307
3	869	668.67154060431	308
3	871	669.717136946338	309
3	873	671.189713853823	310
3	875	671.722299453806	311
3	878	675.89784398014	312
3	880	677.38326371031	313
3	882	682.143739013214	314
3	885	685.022988910027	315
3	887	686.226979199827	316
3	889	691.466328600934	317
3	891	691.619161573805	318
3	893	698.474625705697	319
3	895	698.775873067456	320
3	897	699.442020165483	321
3	899	699.690012650403	322
3	901	699.957046681939	323
3	903	700.465077930244	324
3	905	701.42705600121	325
3	908	703.094712110926	326
3	910	703.844726211998	327
3	912	705.112621996674	328
3	914	705.489448644026	329
3	916	706.137818459732	330
3	918	710.815077770817	331
3	920	710.876531251344	332
3	922	713.100277541186	333
3	924	714.923532911133	334
3	926	716.388126361847	335
3	928	717.051310018	336
3	930	717.266784645519	337
3	932	718.037147356006	338
3	934	718.088589363565	339
3	936	720.996389351918	340
3	938	721.833149483756	341
3	940	722.256588599506	342
3	942	723.66607241599	343
3	944	724.654764894975	344
3	946	725.598081329883	345
3	948	728.366408469539	346
3	950	730.550555883695	347
3	954	731.56965607403	348
3	956	732.523211418763	349
3	958	733.23298783525	350
3	960	733.347028266968	351
3	966	735.470723124976	352
3	970	745.229674195839	353
3	972	746.062973258925	354
3	974	746.852677470701	355
3	976	753.769304594504	356
3	978	755.462520022309	357
3	980	756.900294782099	358
3	982	759.912507712474	359
3	985	764.950688485683	360
3	987	768.074198809236	361
3	989	768.53037928651	362
3	991	768.539030432615	363
3	993	769.977881688628	364
3	995	770.714764967969	365
3	997	776.542000932752	366
3	999	779.982353815412	367
3	1001	783.677997219708	368
3	1003	783.822608242575	369
3	1005	788.156265041627	370
3	1007	789.033389737054	371
3	1009	789.174843246564	372
3	1011	792.227264531924	373
3	1013	792.385159626169	374
3	1015	793.821501295282	375
3	1017	794.29413413393	376
3	1019	794.437014524083	377
3	1021	796.05426974726	378
3	1023	808.136706070975	379
3	1027	811.336661077454	380
3	1029	813.107291492447	381
3	1031	813.612405172132	382
3	1033	814.37246213647	383
3	1035	817.936959786534	384
3	1037	818.375470149774	385
3	1039	819.6395620384	386
3	1041	825.007672770449	387
3	1043	826.636859970142	388
3	1045	828.503433459036	389
3	1047	831.410109644067	390
3	1051	840.799954804466	391
3	1053	844.017493101881	392
3	1055	847.299826740998	393
3	1057	848.799411422843	394
3	1059	849.720321185715	395
3	1061	851.595123134769	396
3	1063	851.767450249061	397
3	1065	852.095396302094	398
3	1067	853.942921660516	399
3	1069	858.637669570029	400
3	1071	858.658186072063	401
3	1073	859.581229900148	402
3	1075	860.288566028018	403
3	1077	862.126331816756	404
3	1079	862.935943690129	405
3	1081	863.698841277712	406
3	1083	867.460435251781	407
3	1085	868.263711056485	408
3	1087	874.06529680972	409
3	1089	874.674056359345	410
3	1091	876.281795314928	411
3	1094	879.266685979082	412
3	1096	880.670711268658	413
3	1098	881.663825569038	414
3	1100	882.549034738116	415
3	1102	882.695267368333	416
3	1104	884.762035766233	417
3	1108	886.851735838017	418
3	1110	887.663732858812	419
3	1120	892.115672494085	420
3	1122	897.715575843608	421
3	1124	903.097368379372	422
3	1126	904.97319265975	423
3	1128	905.833156389536	424
3	1130	906.29044941449	425
3	1132	906.445529735357	426
3	1134	907.263945587818	427
3	1136	907.378507929005	428
3	1138	908.378796289336	429
3	1140	912.449196136527	430
3	1142	913.045507768125	431
3	1144	916.321366988204	432
3	1146	917.677681322585	433
3	1148	920.117492050944	434
3	1150	920.974738515577	435
3	1154	922.316508567699	436
3	1156	922.51306855205	437
3	1158	923.917320839397	438
3	1160	926.337998249023	439
3	1162	927.462796755333	440
3	1164	929.459070326482	441
3	1168	933.998647781424	442
3	1171	936.298043199924	443
3	1174	942.825941979356	444
3	1177	944.497443341021	445
3	1179	947.904628010882	446
3	1181	948.315389306981	447
3	1183	948.351945197054	448
3	1185	950.088016407099	449
3	1187	950.906098857113	450
3	1190	955.33539496535	451
3	1192	955.484917314482	452
3	1196	956.001035341435	453
3	1198	956.664210253729	454
3	1200	958.37411958154	455
3	1202	959.169918365509	456
3	1204	961.606462687823	457
3	1206	965.941187769472	458
3	1208	971.413489933036	459
3	1210	975.799523176664	460
3	1212	977.265590570036	461
3	1214	979.565967157886	462
3	1216	981.840911547129	463
3	1218	984.966879183668	464
3	1220	986.497696189005	465
3	1222	986.574538025675	466
3	1224	986.696085153421	467
3	1226	987.842988105622	468
3	1228	992.526759697221	469
3	1230	994.004166117967	470
3	1234	995.124522058084	471
3	1236	998.527057621564	472
3	1240	1004.988390423779	473
3	1242	1005.206385756675	474
3	1244	1008.433867489015	475
3	1246	1011.288497664311	476
3	1248	1011.299018395371	477
3	1250	1015.175604473522	478
3	1252	1020.315700166301	479
3	1254	1022.511299702221	480
3	1256	1022.968372759728	481
3	1260	1024.988605205431	482
3	1262	1026.039791095767	483
3	1267	1034.142756207903	484
3	1269	1034.800328482819	485
3	1271	1035.621663889681	486
3	1273	1043.296195274243	487
3	1275	1047.957397298814	488
3	1279	1052.150822270057	489
3	1281	1052.402855256194	490
3	1283	1057.063444876863	491
3	1285	1057.770459857877	492
3	1287	1058.14379521976	493
3	1289	1059.477108648924	494
3	1291	1059.836815732239	495
3	1293	1060.450763761814	496
3	1298	1065.620024620417	497
3	1302	1065.823660176909	498
3	1304	1071.570681638969	499
3	1306	1072.814075128632	500
3	1308	1076.213080008305	501
3	1310	1077.946831069067	502
3	1314	1081.142304858384	503
3	1316	1082.588002449928	504
3	1318	1084.218486023989	505
3	1320	1084.456301781294	506
3	1322	1086.138479660026	507
3	1324	1089.640517751922	508
3	1326	1090.290511705562	509
3	1330	1095.040047428365	510
3	1332	1096.159906394834	511
3	1334	1098.030708426106	512
3	1337	1101.58732016555	513
3	1339	1102.400478056355	514
3	1341	1108.090078812144	515
3	1343	1108.677259812033	516
3	1345	1108.971622128858	517
3	1347	1109.909467009463	518
3	1349	1119.032696645853	519
3	1351	1121.111881678491	520
3	1353	1128.023399079782	521
3	1356	1129.738510162032	522
3	1358	1133.509673295281	523
3	1360	1137.483741052217	524
3	1362	1140.076502852949	525
3	1364	1140.71473170538	526
3	1366	1142.859402861169	527
3	1368	1142.902881544724	528
3	1370	1143.175005896751	529
3	1373	1146.332596305376	530
3	1375	1146.826999587516	531
3	1377	1147.273543482042	532
3	1380	1153.091232913341	533
3	1382	1159.667627279713	534
3	1386	1163.820979297662	535
3	1388	1167.700530188812	536
3	1390	1171.124629792685	537
3	1392	1171.300136194164	538
3	1394	1171.34238480689	539
3	1396	1171.446983808277	540
3	1399	1174.560948738553	541
3	1401	1178.280358849261	542
3	1403	1179.278553949514	543
3	1405	1179.829709794329	544
3	1407	1182.238204278433	545
3	1409	1184.54275935476	546
3	1412	1185.007399574223	547
3	1414	1189.305853515041	548
3	1418	1193.162743198496	549
3	1422	1195.828680406324	550
3	1424	1197.3112678262	551
3	1426	1199.282665439254	552
3	1428	1199.292916931585	553
3	1430	1199.518802979467	554
3	1432	1200.006614876596	555
3	1434	1200.144591189419	556
3	1436	1201.734942943779	557
3	1438	1201.803370855892	558
3	1440	1202.363236402536	559
3	1443	1206.780958061208	560
3	1445	1208.850489775467	561
3	1447	1211.548731350392	562
3	1449	1212.439407999021	563
3	1451	1213.816592233967	564
3	1453	1214.135145751292	565
3	1455	1214.573242140887	566
3	1457	1215.556201174643	567
3	1459	1216.455144404315	568
3	1461	1222.393764733435	569
3	1463	1226.841240491805	570
3	1465	1227.351466647393	571
3	1467	1228.452375825643	572
3	1469	1231.156516826838	573
3	1471	1231.241503385158	574
3	1473	1231.382187660001	575
3	1475	1232.0303133959	576
3	1477	1235.613143747314	577
3	1479	1235.638844146415	578
3	1481	1237.916328080842	579
3	1483	1239.679737440708	580
3	1485	1242.034352322476	581
3	1487	1245.960595270329	582
3	1489	1247.634573432475	583
3	1493	1255.939260140462	584
3	1495	1259.095895275137	585
3	1497	1263.37295106654	586
3	1499	1266.261708326694	587
3	1501	1267.133666099679	588
3	1503	1268.163905595567	589
3	1505	1274.268892366903	590
3	1507	1275.674850590844	591
3	1509	1276.781580726938	592
3	1513	1286.041520929093	593
3	1515	1288.593852420674	594
3	1517	1288.909915761255	595
3	1519	1289.352066070378	596
3	1521	1289.721417894158	597
3	1523	1290.309668682753	598
3	1525	1294.329821798951	599
3	1527	1294.628327112436	600
3	1529	1302.894019558171	601
3	1531	1304.48442644159	602
3	1533	1307.922043955699	603
3	1535	1308.801862710434	604
3	1539	1313.931644404839	605
3	1541	1314.584843891139	606
3	1543	1318.307519926731	607
3	1545	1318.416994500977	608
3	1549	1322.176517251373	609
3	1554	1328.321535263722	610
3	1556	1329.570302532218	611
3	1558	1332.248500466682	612
3	1562	1335.672211463501	613
3	1565	1337.400243921417	614
3	1569	1339.493745426331	615
3	1571	1341.141390654834	616
3	1573	1341.884536405599	617
3	1577	1344.164073631787	618
3	1581	1346.178738596674	619
3	1585	1349.353512945025	620
3	1587	1349.649693519315	621
3	1589	1350.398552209956	622
3	1591	1350.506253511678	623
3	1593	1351.977037013623	624
3	1595	1352.210979123384	625
3	1599	1356.967675892714	626
3	1601	1357.898194699075	627
3	1606	1366.393515048891	628
3	1610	1373.120836549127	629
3	1612	1373.649748969406	630
3	1614	1374.236593219985	631
3	1616	1375.099631645783	632
3	1618	1375.880586832934	633
3	1620	1377.433130192768	634
3	1622	1377.741687983464	635
3	1624	1379.893969985793	636
3	1628	1382.374251055705	637
3	1630	1385.728465299819	638
3	1632	1388.818831573698	639
3	1634	1391.196779409142	640
3	1636	1392.218945434326	641
3	1638	1392.671045466846	642
3	1640	1393.943913998058	643
3	1642	1396.563692181837	644
3	1644	1397.207318729935	645
3	1646	1399.472028839006	646
3	1648	1400.795159165073	647
3	1650	1404.852146815575	648
3	1652	1406.456627000303	649
3	1654	1406.741587517281	650
3	1656	1407.056679264278	651
3	1658	1411.271686839541	652
3	1660	1411.757938468155	653
3	1663	1412.919887994106	654
3	1665	1413.769284561685	655
3	1667	1416.695672137092	656
3	1669	1418.133377515342	657
3	1671	1422.015651725303	658
3	1673	1425.208445235262	659
3	1675	1425.238308239296	660
3	1677	1425.72185525482	661
3	1679	1425.98676873641	662
3	1681	1427.640996781276	663
3	1683	1431.710539535685	664
3	1685	1431.833434497772	665
3	1687	1433.301198930111	666
3	1689	1440.823895778067	667
3	1691	1441.926497110129	668
3	1693	1445.597725795973	669
3	1695	1445.689839543275	670
3	1697	1447.473378133928	671
3	1701	1450.73853301048	672
3	1703	1451.269036208303	673
3	1705	1453.092277022245	674
3	1707	1453.407401265149	675
3	1710	1459.140874332462	676
3	1712	1461.824987135582	677
3	1714	1462.013279391878	678
3	1718	1465.75210026563	679
3	1720	1467.354670930045	680
3	1722	1472.52250266688	681
3	1726	1474.64657088582	682
3	1728	1476.385988967306	683
3	1730	1479.212370238621	684
3	1732	1480.08502927435	685
3	1734	1486.606485399604	686
3	1736	1489.90106182957	687
3	1738	1491.953001636088	688
3	1740	1495.776834957667	689
3	1742	1496.816517873596	690
3	1744	1507.440080611111	691
3	1746	1508.243470591229	692
3	1748	1508.805090876827	693
3	1750	1511.596100563272	694
3	1752	1516.964056898415	695
3	1754	1518.409753781922	696
3	1758	1523.086061264991	697
3	1761	1524.921663074734	698
3	1763	1524.989248040579	699
3	1766	1525.308234606385	700
3	1769	1526.881460163967	701
3	1771	1527.379252704215	702
3	1773	1531.537821476004	703
3	1778	1534.480716349688	704
3	1780	1539.137853193462	705
3	1782	1540.66116181498	706
3	1784	1541.369123716318	707
3	1787	1543.833452435907	708
3	1789	1544.385793504152	709
3	1791	1546.267926789967	710
3	1793	1546.348589332211	711
3	1795	1546.682272629094	712
3	1799	1550.917049919399	713
3	1801	1553.62150607275	714
3	1803	1554.223351103737	715
3	1807	1556.348993557925	716
3	1809	1556.706993577921	717
3	1811	1558.557113336534	718
3	1813	1564.093792438666	719
3	1815	1564.246474294389	720
3	1819	1573.839065427087	721
3	1821	1575.197492532714	722
3	1823	1577.101430650566	723
3	1825	1577.966211250627	724
3	1827	1578.186453117503	725
3	1829	1578.616469552249	726
3	1831	1578.808755588533	727
3	1833	1580.500255872686	728
3	1835	1584.105431811342	729
3	1837	1584.989017261428	730
3	1839	1586.781323419512	731
3	1841	1587.737269106434	732
3	1843	1588.371993285596	733
3	1845	1589.889955219219	734
3	1848	1592.533506420713	735
3	1850	1594.263101413063	736
3	1852	1597.107691255679	737
3	1854	1597.414869289706	738
3	1856	1599.257753485045	739
3	1858	1599.826595154879	740
3	1860	1601.738150079697	741
3	1863	1608.278426462778	742
3	1865	1608.295854836192	743
3	1867	1608.682584107901	744
3	1869	1612.407667636975	745
3	1871	1614.409418347689	746
3	1873	1618.15859608345	747
3	1875	1619.255487547094	748
3	1877	1621.132638151381	749
3	1881	1623.466323972533	750
3	1883	1623.636463837936	751
3	1885	1624.098045401782	752
3	1887	1625.849653338455	753
3	1891	1626.1551915044	754
3	1893	1628.143170273479	755
3	1895	1629.733774873676	756
3	1899	1630.897940188291	757
3	1901	1634.086702288088	758
3	1906	1636.243600470749	759
3	1908	1636.645089314771	760
3	1910	1641.357435851671	761
3	1912	1645.606650093077	762
3	1914	1645.635099150638	763
3	1916	1647.790434183541	764
3	1918	1648.852534033921	765
3	1920	1651.598512946181	766
3	1922	1652.262221641273	767
3	1924	1652.772392431193	768
3	1926	1656.469332686853	769
3	1928	1657.902807101692	770
3	1930	1660.615392569966	771
3	1933	1661.013458863277	772
3	1935	1661.791012661488	773
3	1937	1663.043857714416	774
3	1939	1669.164761583837	775
3	1941	1671.577862103333	776
3	1943	1672.314369364799	777
3	1947	1673.381307572794	778
3	1949	1675.167244660967	779
3	1951	1676.437133777745	780
3	1953	1677.519867187918	781
3	1955	1680.001077264425	782
3	1958	1681.111303273252	783
3	1960	1681.712696911662	784
3	1965	1683.899024021596	785
3	1971	1689.608422676085	786
3	1977	1692.198859855113	787
3	1979	1693.534951619701	788
3	1981	1696.062665382529	789
3	1983	1698.247836841901	790
3	1985	1698.311555278707	791
3	1987	1700.429066528445	792
3	1989	1701.893175386541	793
3	1991	1702.038000022081	794
3	1993	1706.816436165886	795
3	1995	1711.287080838749	796
3	1997	1711.75122257597	797
3	1999	1712.42716706865	798
3	2001	1712.550471074573	799
3	2003	1714.516406682456	800
3	2005	1717.232103124183	801
3	2007	1718.205036297554	802
3	2009	1718.837829065813	803
3	2011	1719.19886430119	804
3	2013	1719.427477643683	805
3	2015	1721.151944113304	806
3	2017	1722.458871274277	807
3	2021	1723.809276938238	808
3	2023	1729.652784303935	809
3	2025	1734.235319495062	810
3	2027	1741.341053685086	811
3	2029	1746.385727228371	812
3	2031	1747.916018828859	813
3	2033	1749.693842305064	814
3	2039	1763.000909974502	815
3	2041	1765.496341658863	816
3	2043	1766.297390465369	817
3	2045	1769.71026748607	818
3	2047	1770.338207807408	819
3	2050	1776.179004078359	820
3	2052	1777.73464872401	821
3	2054	1778.609284438312	822
3	2057	1781.434395626791	823
3	2060	1786.248147202521	824
3	2062	1786.697591592269	825
3	2064	1787.476039002266	826
3	2066	1789.097654286157	827
3	2068	1792.089971461594	828
3	2072	1797.092573729508	829
3	2074	1797.578793406446	830
3	2076	1799.753263009142	831
3	2078	1800.077199907259	832
3	2080	1800.515083713886	833
3	2082	1801.150233379833	834
3	2086	1803.718790935765	835
3	2088	1804.127868669484	836
3	2090	1804.347368578834	837
3	2092	1804.394997019439	838
3	2094	1805.339470248638	839
3	2096	1806.592939563066	840
3	2098	1815.975206003632	841
3	2100	1820.676220528449	842
3	2102	1822.041653049482	843
3	2104	1825.336840874283	844
3	2106	1828.71521048125	845
3	2108	1828.936803707423	846
3	2110	1829.273574174306	847
3	2112	1830.196823738455	848
3	2114	1832.243041580309	849
3	2116	1835.141591742599	850
3	2118	1836.334219816964	851
3	2120	1836.735696819727	852
3	2122	1836.855102323198	853
3	2124	1838.540679426455	854
3	2126	1840.960194014066	855
3	2128	1843.509791902047	856
3	2130	1843.8863272069	857
3	2132	1845.425437711053	858
3	2134	1847.108077194906	859
3	2137	1847.827461519779	860
3	2139	1849.050154549986	861
3	2141	1849.698483728089	862
3	2143	1856.054864240207	863
3	2145	1856.653444869714	864
3	2147	1857.545902683729	865
3	2149	1857.709298713707	866
3	2151	1861.632178897907	867
3	2155	1863.265608711271	868
3	2157	1864.507089190487	869
3	2159	1864.601609024688	870
3	2161	1866.666134245903	871
3	2163	1867.64077087932	872
3	2165	1868.688812170529	873
3	2167	1870.182106127002	874
3	2173	1877.180629892335	875
3	2175	1878.480428017882	876
3	2178	1882.525210408784	877
3	2180	1883.25631822033	878
3	2182	1884.674621779333	879
3	2184	1885.948480295257	880
3	2186	1886.096226395522	881
3	2189	1890.241230373826	882
3	2193	1890.677652444839	883
3	2197	1891.960650206877	884
3	2199	1892.184228227495	885
3	2201	1892.617261840941	886
3	2206	1898.918352051468	887
3	2208	1899.264683461581	888
3	2212	1905.320754160948	889
3	2214	1906.967163657736	890
3	2220	1908.554288029521	891
3	2222	1909.976344496284	892
3	2226	1911.25593079285	893
3	2228	1911.516755420705	894
3	2230	1913.049837872387	895
3	2232	1916.246953191357	896
3	2234	1917.065462602279	897
3	2236	1920.715746200087	898
3	2238	1921.54210504538	899
3	2240	1921.902530442654	900
3	2242	1922.039661743304	901
3	2244	1923.486605057497	902
3	2246	1924.135564774257	903
3	2248	1926.625714450502	904
3	2250	1927.287763387877	905
3	2252	1927.451935857142	906
3	2256	1929.818876931467	907
3	2258	1930.743746294995	908
3	2260	1932.363251955756	909
3	2262	1934.072742609123	910
3	2264	1934.581903596433	911
3	2266	1939.197762348998	912
3	2268	1939.248673172814	913
3	2270	1939.992257967628	914
3	2274	1942.275718582434	915
3	2276	1942.557529461758	916
3	2278	1944.310454396319	917
3	2280	1944.506408279855	918
3	2282	1948.087975167319	919
3	2285	1949.731289497679	920
3	2287	1950.988907991534	921
3	2289	1953.495175030247	922
3	2291	1953.74772677342	923
3	2293	1956.564048659474	924
3	2295	1956.753361303753	925
3	2297	1958.089782093952	926
3	2299	1959.140182467427	927
3	2301	1960.962034094552	928
3	2303	1962.11484777277	929
3	2308	1972.193338251603	930
3	2310	1973.137442056236	931
3	2312	1974.281353700923	932
3	2314	1974.832030673244	933
3	2316	1974.859167569817	934
3	2318	1977.753332062268	935
3	2321	1979.098747877322	936
3	2323	1979.195098400251	937
3	2326	1983.223589833663	938
3	2328	1985.501459340081	939
3	2331	1992.944682318921	940
3	2333	1996.201629786064	941
3	2335	1999.267824385459	942
3	2337	2003.843439204132	943
3	2341	2006.420878315438	944
3	2343	2007.197257901416	945
3	2345	2011.425108254844	946
3	2348	2015.850362943971	947
3	2350	2016.133407370052	948
3	2354	2019.475010670468	949
3	2357	2021.225964146479	950
3	2359	2024.207746705701	951
3	2361	2027.494710850664	952
3	2363	2028.429945968728	953
3	2365	2029.219334859953	954
3	2367	2033.10294019712	955
3	2369	2034.541886365661	956
3	2374	2043.561163255412	957
3	2376	2043.581282116703	958
3	2378	2044.983964946625	959
3	2380	2046.146275372263	960
3	2382	2050.18345507616	961
3	2384	2051.828700191388	962
3	2386	2052.708064549572	963
3	2388	2055.058805174031	964
3	2391	2062.748611207652	965
3	2393	2063.322465554532	966
3	2395	2064.189429849828	967
3	2397	2066.163656521455	968
3	2399	2068.207562248228	969
3	2401	2069.263710843741	970
3	2403	2071.520076633223	971
3	2405	2079.358762466987	972
3	2407	2080.922186925306	973
3	2409	2086.530494051099	974
3	2411	2088.768900858531	975
3	2413	2091.589539144041	976
3	2415	2093.200961768502	977
3	2417	2093.317507056709	978
3	2419	2095.367218930272	979
3	2421	2095.408588428188	980
3	2425	2098.703946139296	981
3	2427	2099.190586303649	982
3	2429	2099.39166314246	983
3	2431	2101.70098030208	984
3	2435	2104.359959729051	985
3	2437	2107.261640539822	986
3	2439	2107.274764638715	987
3	2441	2107.999875758947	988
3	2443	2109.023032185349	989
3	2445	2110.236353620399	990
3	2447	2110.324832839623	991
3	2449	2110.751187651656	992
3	2452	2113.563995849157	993
3	2454	2114.142002308953	994
3	2456	2117.695245059754	995
3	2460	2119.638780485575	996
3	2462	2122.67941003998	997
3	2464	2124.603752279296	998
3	2466	2125.94081008274	999
3	2470	2131.093391971965	1000
3	2472	2134.122793463975	1001
3	2474	2134.77667469309	1002
3	2476	2138.325523110182	1003
3	2478	2138.562698490748	1004
3	2480	2140.493058867081	1005
3	2482	2141.361891823918	1006
3	2484	2144.878544676123	1007
3	2486	2145.586449852095	1008
3	2489	2147.607880129669	1009
3	2491	2147.845554946327	1010
3	2495	2151.924530352633	1011
3	2497	2153.222175934273	1012
3	2499	2153.693313540626	1013
3	2501	2155.196195113066	1014
3	2503	2157.282981126629	1015
3	2506	2158.520717373999	1016
3	2508	2159.632833511406	1017
3	2510	2160.734209669483	1018
3	2512	2164.247084116095	1019
3	2514	2164.458240098752	1020
3	2516	2165.591667129563	1021
3	2518	2169.416322797743	1022
3	2520	2170.088509835484	1023
3	2522	2175.575884575802	1024
3	2524	2178.323073836567	1025
3	2528	2181.158957705953	1026
3	2530	2182.644922294288	1027
3	2532	2183.195298511606	1028
3	2534	2188.585978223259	1029
3	2538	2192.174994349504	1030
3	2540	2193.024429236753	1031
3	2542	2194.497593155228	1032
3	2545	2196.341997703186	1033
3	2547	2197.348091116849	1034
3	2549	2200.892479235228	1035
3	2551	2201.544782137819	1036
3	2553	2201.930477623762	1037
3	2555	2201.990701007919	1038
3	2557	2202.297679425948	1039
3	2559	2204.783831977438	1040
3	2561	2206.733961132218	1041
3	2565	2210.167727556231	1042
3	2567	2211.996213931911	1043
3	2569	2212.165231285014	1044
3	2571	2214.357728569113	1045
3	2573	2215.82676063665	1046
3	2575	2216.587610464148	1047
3	2577	2217.181455714663	1048
3	2579	2217.857231385135	1049
3	2581	2222.775073001977	1050
3	2583	2224.059910502771	1051
3	2585	2226.176874893353	1052
3	2587	2226.322904494944	1053
3	2589	2229.650380090571	1054
3	2591	2229.69076947183	1055
3	2593	2232.746097758902	1056
3	2595	2233.813097796524	1057
3	2597	2236.683680800797	1058
3	2599	2236.773934861422	1059
3	2601	2237.467193233053	1060
3	2603	2237.753626378419	1061
3	2605	2238.883023675525	1062
3	2607	2239.917257221745	1063
3	2609	2242.094635137736	1064
3	2611	2242.46363884101	1065
3	2613	2242.640796826381	1066
3	2615	2243.301674173147	1067
3	2617	2243.518868442387	1068
3	2619	2245.700457972744	1069
3	2621	2247.679251798238	1070
3	2626	2255.942725092786	1071
3	2628	2258.747822928792	1072
3	2630	2263.399297393438	1073
3	2633	2265.747406998417	1074
3	2635	2265.94744552164	1075
3	2637	2266.830512814078	1076
3	2639	2266.997244968702	1077
3	2643	2271.565355290694	1078
3	2645	2272.302682575293	1079
3	2647	2274.843341394666	1080
3	2649	2275.514952862452	1081
3	2651	2277.093169681126	1082
3	2653	2277.166849627227	1083
3	2655	2278.424315937739	1084
3	2657	2284.263786272209	1085
3	2661	2285.524772674115	1086
3	2663	2287.220332151353	1087
3	2665	2292.133190051587	1088
3	2667	2294.936774829788	1089
3	2669	2297.078253460551	1090
3	2673	2304.069682881674	1091
3	2675	2304.769010953559	1092
3	2677	2308.297206514958	1093
3	2679	2310.994806144296	1094
3	2682	2311.984476974876	1095
3	2684	2314.915514984312	1096
3	2686	2315.991382520041	1097
3	2688	2316.936029140008	1098
3	2690	2317.611388533098	1099
3	2692	2317.719897289028	1100
3	2694	2318.811621322129	1101
3	2696	2319.860543343418	1102
3	2698	2320.328594320125	1103
3	2700	2320.780813503825	1104
3	2702	2321.447819357083	1105
3	2704	2324.034411391295	1106
3	2706	2327.10498138475	1107
3	2708	2330.059508995263	1108
3	2710	2332.441199315507	1109
3	2712	2332.45238929053	1110
3	2714	2340.690445959074	1111
3	2716	2340.834043980947	1112
3	2719	2344.680671248785	1113
3	2721	2344.926360198525	1114
3	2723	2345.964954625259	1115
3	2725	2346.476392819894	1116
3	2727	2347.713121559268	1117
3	2729	2347.874663310134	1118
3	2731	2349.308320106152	1119
3	2733	2350.192342207935	1120
3	2735	2351.844534676003	1121
3	2737	2353.001941897408	1122
3	2739	2356.164091266042	1123
3	2741	2356.173056439424	1124
3	2743	2358.125308453035	1125
3	2745	2358.979824772874	1126
3	2747	2360.605567033307	1127
3	2749	2360.923888591938	1128
3	2751	2364.538305826597	1129
3	2753	2366.031851204233	1130
3	2755	2366.524583193543	1131
3	2757	2369.373442171916	1132
3	2759	2370.085300753049	1133
3	2761	2370.508217916098	1134
3	2763	2370.574964241694	1135
3	2767	2373.308466376224	1136
3	2770	2374.655347179088	1137
3	2772	2379.618941594878	1138
3	2774	2380.101653778408	1139
3	2776	2380.491568965492	1140
3	2778	2382.531430299363	1141
3	2780	2382.81950722823	1142
3	2782	2385.934192536052	1143
3	2784	2386.016766902869	1144
3	2788	2388.051389749844	1145
3	2790	2398.291653991213	1146
3	2792	2400.182839880973	1147
3	2794	2403.234029531461	1148
3	2796	2405.509399043755	1149
3	2798	2408.008066686037	1150
3	2800	2410.699920609808	1151
3	2802	2411.195859114224	1152
3	2804	2412.610210910834	1153
3	2806	2412.964209139843	1154
3	2808	2415.481319528683	1155
3	2810	2418.794662937716	1156
3	2812	2421.116002939402	1157
3	2814	2422.614825293376	1158
3	2816	2422.905779582143	1159
3	2818	2423.799149054456	1160
3	2820	2424.267104674695	1161
3	2822	2424.465455347508	1162
3	2824	2424.947470578336	1163
3	2826	2425.552779753921	1164
3	2828	2425.943768779783	1165
3	2834	2427.007760853127	1166
3	2836	2429.342065192623	1167
3	2838	2432.533490306851	1168
3	2840	2433.426072583664	1169
3	2844	2436.24686672887	1170
3	2846	2436.282168958877	1171
3	2848	2436.365550339614	1172
3	2850	2441.513625771415	1173
3	2852	2447.148947977651	1174
3	2854	2447.277186702834	1175
3	2856	2448.172143108666	1176
3	2859	2450.672701216021	1177
3	2861	2451.246807722783	1178
3	2863	2459.220382820573	1179
3	2865	2460.433402349721	1180
3	2867	2461.106237093078	1181
3	2869	2461.553650326734	1182
3	2871	2462.927800378623	1183
3	2874	2465.743764562537	1184
3	2878	2470.638635672896	1185
3	2882	2474.289887427161	1186
3	2884	2474.940766372255	1187
3	2886	2475.58074589725	1188
3	2888	2480.228673595658	1189
3	2890	2482.693035249894	1190
3	2893	2488.868915082357	1191
3	2895	2489.383387824864	1192
3	2899	2492.240332893893	1193
3	2901	2495.346955664732	1194
3	2903	2497.174682383487	1195
3	2906	2499.701030845476	1196
4	431	357.298228448698	11
4	442	362.807564071273	12
4	497	394.865319295656	13
4	512	403.516738472356	14
4	689	539.713434162569	15
4	698	551.362810692228	16
4	769	598.031159898875	17
4	780	606.685456399998	18
4	791	613.340862441139	19
4	876	674.329845758777	20
4	883	684.060331707287	21
4	906	702.121921507794	22
4	961	733.649261738264	23
4	964	734.980159194163	24
4	967	737.69297400566	25
4	968	741.446514612401	26
4	983	764.359450975575	27
4	1048	834.491242035477	28
4	1049	838.153441755428	29
4	1092	876.942767404012	30
4	1169	934.321558692384	31
4	1172	936.418608962989	32
4	1175	943.477923818959	33
4	1188	954.826013064684	34
4	1263	1031.585607263619	35
4	1294	1062.370895225297	36
4	1335	1101.184405788079	37
4	1354	1128.979779147928	38
4	1371	1143.212974432282	39
4	1378	1152.960296693709	40
4	1383	1160.307011054412	41
4	1384	1162.53055973392	42
4	1397	1174.146158577926	43
4	1410	1184.692162333249	44
4	1441	1205.756966151717	45
4	1552	1327.838146138867	46
4	1563	1336.314681630114	47
4	1602	1363.745561252829	48
4	1661	1412.797021559748	49
4	1708	1458.061268561874	50
4	1759	1523.364988007729	51
4	1764	1525.238415494163	52
4	1767	1526.194009915143	53
4	1774	1532.178721904791	54
4	1785	1541.970821192614	55
4	1846	1592.011019404661	56
4	1861	1602.31728674501	57
4	1904	1636.131586293469	58
4	1931	1660.793290887735	59
4	1956	1680.93042164797	60
4	1961	1682.892516833392	61
4	2048	1774.697767912994	62
4	2055	1781.119230475423	63
4	2058	1783.955613583536	64
4	2135	1847.319625158139	65
4	2176	1880.133349212005	66
4	2187	1887.448258140174	67
4	2204	1896.58994625846	68
4	2283	1948.965273816016	69
4	2306	1970.243815688354	70
4	2319	1978.835318127751	71
4	2324	1981.068114406325	72
4	2329	1987.805180661766	73
4	2346	2012.188479759615	74
4	2351	2017.300067905465	75
4	2352	2017.47640356908	76
4	2355	2021.166201264156	77
4	2372	2042.751988497641	78
4	2389	2059.249369240971	79
4	2450	2113.500201887854	80
4	2487	2146.297736504668	81
4	2504	2158.411818113699	82
4	2543	2194.96589261727	83
4	2624	2254.529804385573	84
4	2631	2263.798978602267	85
4	2680	2311.268194038626	86
4	2717	2340.954068449701	87
4	2768	2374.151437922521	88
4	2857	2449.019451872841	89
4	2872	2464.843196272734	90
4	2891	2483.706282440496	91
4	2904	2498.624247691913	92
5	431	357.298228448698	118.97902375627
5	442	362.807564071273	123.82983061111
5	497	394.865319295656	116.63177472961
5	512	403.516738472356	116.92425184023
5	689	539.713434162569	241.74828730696
5	698	551.362810692228	243.55289524751
5	769	598.031159898875	276.61580394331
5	780	606.685456399998	282.55296753792
5	791	613.340862441139	277.15819030911
5	876	674.329845758777	333.18290400332
5	883	684.060331707287	333.88882049589
5	906	702.121921507794	342.94491918697
5	961	733.649261738264	368.38831430139
5	964	734.980159194163	366.88196943213
5	967	737.69297400566	351.6979180698
5	968	741.446514612401	340.2871344669
5	983	764.359450975575	355.77847896248
5	1048	834.491242035477	422.50820813193
5	1049	838.153441755428	425.2766384514
5	1092	876.942767404012	454.79669468872
5	1169	934.321558692384	487.54653149749
5	1172	936.418608962989	467.96846486727
5	1175	943.477923818959	470.93375178954
5	1188	954.826013064684	467.74983685196
5	1263	1031.585607263619	540.27734343268
5	1294	1062.370895225297	547.95045017142
5	1335	1101.184405788079	560.20729530476
5	1354	1128.979779147928	577.16009716436
5	1371	1143.212974432282	588.70102554578
5	1378	1152.960296693709	577.00787108139
5	1383	1160.307011054412	577.01821365264
5	1384	1162.53055973392	573.81245937234
5	1397	1174.146158577926	531.02023320107
5	1410	1184.692162333249	539.10516571138
5	1441	1205.756966151717	475.18559594242
5	1552	1327.838146138867	593.48797306821
5	1563	1336.314681630114	525.6563415797
5	1602	1363.745561252829	478.83783400497
5	1661	1412.797021559748	525.07581984704
5	1708	1458.061268561874	569.64674567573
5	1759	1523.364988007729	634.85235606015
5	1764	1525.238415494163	634.62366689646
5	1767	1526.194009915143	604.55669035073
5	1774	1532.178721904791	599.12791126373
5	1785	1541.970821192614	586.45911501793
5	1846	1592.011019404661	597.12052154696
5	1861	1602.31728674501	598.98558489778
5	1904	1636.131586293469	611.41880490772
5	1931	1660.793290887735	627.729449972
5	1956	1680.93042164797	629.11988248698
5	1961	1682.892516833392	617.67985962703
5	2048	1774.697767912994	708.94303824966
5	2055	1781.119230475423	700.30290226298
5	2058	1783.955613583536	690.86540057956
5	2135	1847.319625158139	657.1618289118
5	2176	1880.133349212005	685.11534234458
5	2187	1887.448258140174	633.29117480791
5	2204	1896.58994625846	615.70793574027
5	2283	1948.965273816016	635.81336992621
5	2306	1970.243815688354	648.7994200971
5	2319	1978.835318127751	653.24942118147
5	2324	1981.068114406325	645.64601639054
5	2329	1987.805180661766	649.01200887606
5	2346	2012.188479759615	668.24278170494
5	2351	2017.300067905465	672.69441962491
5	2352	2017.47640356908	669.23921996091
5	2355	2021.166201264156	666.72147787893
5	2372	2042.751988497641	678.96991249522
5	2389	2059.249369240971	686.35159389892
5	2450	2113.500201887854	732.76005776194
5	2487	2146.297736504668	696.42004364872
5	2504	2158.411818113699	694.55142420971
5	2543	2194.96589261727	721.99742738742
5	2624	2254.529804385573	735.33160776394
5	2631	2263.798978602267	731.37214989713
5	2680	2311.268194038626	761.10278113867
5	2717	2340.954068449701	786.37079912532
5	2768	2374.151437922521	800.64889675044
5	2857	2449.019451872841	826.22976543408
5	2872	2464.843196272734	838.76374425742
5	2891	2483.706282440496	852.82141974617
5	2904	2498.624247691913	863.09800229932
6	431	357.298228448698	118.32049498853
6	442	362.807564071273	84.57401950523
6	497	394.865319295656	108.27283266353
6	512	403.516738472356	105.55159161674
6	689	539.713434162569	231.90351871786
6	698	551.362810692228	229.94745473666
6	769	598.031159898875	273.8986710368
6	780	606.685456399998	270.50278426797
6	791	613.340862441139	272.19392068568
6	876	674.329845758777	324.15833454738
6	883	684.060331707287	324.88332938647
6	906	702.121921507794	336.86097407092
6	961	733.649261738264	365.55107197623
6	964	734.980159194163	348.9851032583
6	967	737.69297400566	336.53359386016
6	968	741.446514612401	332.86554259931
6	983	764.359450975575	352.37641707202
6	1048	834.491242035477	421.61443873145
6	1049	838.153441755428	416.00736904014
6	1092	876.942767404012	430.16774020912
6	1169	934.321558692384	465.87141459666
6	1172	936.418608962989	463.87443693357
6	1175	943.477923818959	456.40174760624
6	1188	954.826013064684	463.51774923375
6	1263	1031.585607263619	517.16516220974
6	1294	1062.370895225297	521.39378474197
6	1335	1101.184405788079	549.36472380451
6	1354	1128.979779147928	574.46783026142
6	1371	1143.212974432282	567.26054881997
6	1378	1152.960296693709	569.67149929193
6	1383	1160.307011054412	571.58891069283
6	1384	1162.53055973392	519.40463435706
6	1397	1174.146158577926	528.55916195606
6	1410	1184.692162333249	454.12079212395
6	1441	1205.756966151717	471.40679308106
6	1552	1327.838146138867	517.17980608845
6	1563	1336.314681630114	451.40695438225
6	1602	1363.745561252829	476.02435954012
6	1661	1412.797021559748	524.3824986736
6	1708	1458.061268561874	569.5486366143
6	1759	1523.364988007729	632.75023941002
6	1764	1525.238415494163	603.60109592975
6	1767	1526.194009915143	593.14319927408
6	1774	1532.178721904791	576.66701573011
6	1785	1541.970821192614	547.08032333492
6	1846	1592.011019404661	588.67931755744
6	1861	1602.31728674501	577.60450535926
6	1904	1636.131586293469	603.06774537774
6	1931	1660.793290887735	608.98275172675
6	1956	1680.93042164797	615.71776444161
6	1961	1682.892516833392	617.13778717006
6	2048	1774.697767912994	693.88143970055
6	2055	1781.119230475423	688.02901747144
6	2058	1783.955613583536	593.7978173372
6	2135	1847.319625158139	652.30161829071
6	2176	1880.133349212005	625.97626587974
6	2187	1887.448258140174	606.56624762198
6	2204	1896.58994625846	583.43804236866
6	2283	1948.965273816016	627.52087822476
6	2306	1970.243815688354	644.65791874207
6	2319	1978.835318127751	643.41322011196
6	2324	1981.068114406325	642.27494262062
6	2329	1987.805180661766	643.85948260709
6	2346	2012.188479759615	667.58283147906
6	2351	2017.300067905465	669.06288429729
6	2352	2017.47640356908	663.03168018385
6	2355	2021.166201264156	657.38412526174
6	2372	2042.751988497641	669.85421315559
6	2389	2059.249369240971	678.50922511506
6	2450	2113.500201887854	663.6225090319
6	2487	2146.297736504668	682.43734260068
6	2504	2158.411818113699	685.44335288385
6	2543	2194.96589261727	675.76769599564
6	2624	2254.529804385573	722.10297568043
6	2631	2263.798978602267	713.63356570231
6	2680	2311.268194038626	756.68492471425
6	2717	2340.954068449701	767.45152727762
6	2768	2374.151437922521	751.36175148376
6	2857	2449.019451872841	822.93999985753
6	2872	2464.843196272734	833.95833357841
6	2891	2483.706282440496	848.1800370479
6	2904	2498.624247691913	825.91535818251
7	2907	2500	0.0192
8	2907	2500	0.0368

