file 128338 1677919300                                          
version 2
run factors_calibration_recover_rate-137-20230304-09:41:40-10722
attr configname factors_calibration_recover_rate
attr datetime 20230304-09:41:40
attr experiment factors_calibration_recover_rate
attr inifile omnetpp.ini
attr iterationvars $0=50
attr iterationvarsf 50-
attr measurement $0=50
attr network Network
attr processid 10722
attr repetition 37
attr replication #37
attr resultdir results
attr runnumber 137
attr seedset 37
param *.minion.arrival_mean 5
param *.minion.service_mean 2
param *.boss.arrival_mean 10
param *.boss.service_mean 3
param *.player.recover_rate_x 50
param **.minion.arrival_distribution 0
param **.minion.service_distribution 0
param **.boss.arrival_distribution 0
param **.boss.service_distribution 0

vector 0 Network.player minion_defeated_stat:vector ETV
attr source signal_minion_defeated
vector 1 Network.player minion_jobs_queue_number_stat:vector ETV
attr source signal_minion_jobs_queue_number
vector 2 Network.player minion_response_time_stat:vector ETV
attr source signal_minion_response_time
vector 3 Network.player minion_jobs_number_stat:vector ETV
attr source signal_minion_jobs_number
vector 4 Network.player minion_waiting_time_stat:vector ETV
attr source signal_minion_waiting_time
vector 5 Network.player boss_jobs_number_stat:vector ETV
attr source signal_boss_jobs_number
vector 6 Network.player boss_jobs_queue_number_stat:vector ETV
attr source signal_boss_jobs_queue_number
vector 7 Network.player minion_recovered_stat:vector ETV
attr source signal_minion_recovered
vector 8 Network.player boss_waiting_time_stat:vector ETV
attr source signal_boss_waiting_time
vector 9 Network.player boss_defeated_stat:vector ETV
attr source signal_boss_defeated
vector 10 Network.player boss_response_time_stat:vector ETV
attr source signal_boss_response_time
vector 11 Network.player minion_throughput:vector ETV
attr source signal_minion_throughput
vector 12 Network.player boss_throughput:vector ETV
attr source signal_boss_throughput
0	1991 12612 309 2286 351.527386401513 2486.739311364688 447 76 522 133653 47405095
1	14603 23501 309 2294 351.527386401513 2499.826696075922 894 0 16 2164 12308
2	38104 17675 309 2286 351.527386401513 2486.739311364688 447 0.000105141166 63.449430105372 4592.1432189839 99567.590595754
3	55779 11757 311 2294 356.466997485054 2499.826696075922 447 1 17 1529 8765
4	67536 20113 311 2294 356.466997485054 2499.826696075922 547 0 60.659172513517 4521.4395433513 96682.87123071
5	87649 5635 316 2291 359.668928794319 2493.036985708645 215 1 5 294 512
6	93284 11273 316 2292 359.668928794319 2495.155136784665 430 0 4 158 278
7	104557 2730 316 2269 359.668928794319 2473.268545491059 100 14 113 6350 486550
8	107287 6366 316 2291 359.668928794319 2493.036985708645 215 0 21.085724984208 275.01686063958 2568.1003601891
9	113653 5996 323 2292 364.804105339815 2495.155136784665 215 28 242 29025 4746555
10	119649 8648 323 2292 364.804105339815 2495.155136784665 215 0.02764874666 22.773116562243 967.38823194533 8747.0010399721
11	128297 20 2295 2295 2500 2500 1 0.2088 0.2088 0.2088 0.04359744
12	128317 20 2295 2295 2500 2500 1 0.0968 0.0968 0.0968 0.00937024

