file 43002 1671551090                                           
version 2
run warm_up_time-13-20221220-16:44:50-17895
attr configname warm_up_time
attr datetime 20221220-16:44:50
attr experiment warm_up_time
attr inifile omnetpp.ini
attr iterationvars ""
attr iterationvarsf ""
attr measurement ""
attr network Network
attr processid 17895
attr repetition 13
attr replication #13
attr resultdir results
attr runnumber 13
attr seedset 13
param **.minion.arrival_distribution 0
param **.minion.service_distribution 0
param **.boss.arrival_distribution 0
param **.boss.service_distribution 0
param *.minion.arrival_mean 0
param *.minion.service_mean 0
param *.boss.arrival_mean 10
param *.boss.service_mean 3

vector 0 Network.player minion_jobs_number_stat:vector ETV
attr source signal_minion_jobs_number
vector 1 Network.player minion_jobs_queue_number_stat:vector ETV
attr source signal_minion_jobs_queue_number
vector 2 Network.player minion_recovered_stat:vector ETV
attr source signal_minion_recovered
vector 3 Network.player minion_defeated_stat:vector ETV
attr source signal_minion_defeated
vector 4 Network.player boss_jobs_number_stat:vector ETV
attr source signal_boss_jobs_number
vector 5 Network.player boss_jobs_queue_number_stat:vector ETV
attr source signal_boss_jobs_queue_number
vector 6 Network.player boss_defeated_stat:vector ETV
attr source signal_boss_defeated
vector 7 Network.player boss_waiting_time_stat:vector ETV
attr source signal_boss_waiting_time
vector 8 Network.player boss_response_time_stat:vector ETV
attr source signal_boss_response_time
vector 9 Network.player minion_throughput:vector ETV
attr source signal_minion_throughput
vector 10 Network.player boss_throughput:vector ETV
attr source signal_boss_throughput
0	1687 8 0 0 0 0 1 0 0 0 0
1	1695 8 0 0 0 0 1 0 0 0 0
2	1703 8 0 0 0 0 1 0 0 0 0
3	1711 8 0 0 0 0 1 0 0 0 0
4	1719 6125 0 725 0 2464.863010436506 243 0 4 339 587
5	7844 12253 0 726 0 2466.416963671767 485 0 3 194 302
6	20097 6512 0 726 0 2466.416963671767 243 0 242 29403 4753485
7	26609 7088 2 725 5.450426893287 2464.863010436506 242 0 20.178954508915 298.10462481293 2521.6904295006
8	33697 9272 3 726 5.74362356396 2466.416963671767 242 0.042485740891 22.223113222247 1057.7290464323 9021.5518193499
9	42969 13 727 727 2500 2500 1 0 0 0 0
10	42982 19 727 727 2500 2500 1 0.0968 0.0968 0.0968 0.00937024

