version 2
run warm_up_time-9-20221220-16:44:49-17875
attr configname warm_up_time
attr datetime 20221220-16:44:49
attr experiment warm_up_time
attr inifile omnetpp.ini
attr iterationvars ""
attr iterationvarsf ""
attr measurement ""
attr network Network
attr processid 17875
attr repetition 9
attr replication #9
attr resultdir results
attr runnumber 9
attr seedset 9
param **.minion.arrival_distribution 0
param **.minion.service_distribution 0
param **.boss.arrival_distribution 0
param **.boss.service_distribution 0
param *.minion.arrival_mean 0
param *.minion.service_mean 0
param *.boss.arrival_mean 10
param *.boss.service_mean 3

vector 0 Network.player minion_jobs_number_stat:vector ETV
attr source signal_minion_jobs_number
vector 1 Network.player minion_jobs_queue_number_stat:vector ETV
attr source signal_minion_jobs_queue_number
vector 2 Network.player minion_recovered_stat:vector ETV
attr source signal_minion_recovered
vector 3 Network.player minion_defeated_stat:vector ETV
attr source signal_minion_defeated
vector 4 Network.player boss_jobs_number_stat:vector ETV
attr source signal_boss_jobs_number
vector 5 Network.player boss_jobs_queue_number_stat:vector ETV
attr source signal_boss_jobs_queue_number
vector 6 Network.player boss_defeated_stat:vector ETV
attr source signal_boss_defeated
vector 7 Network.player boss_waiting_time_stat:vector ETV
attr source signal_boss_waiting_time
vector 8 Network.player boss_response_time_stat:vector ETV
attr source signal_boss_response_time
vector 9 Network.player minion_throughput:vector ETV
attr source signal_minion_throughput
vector 10 Network.player boss_throughput:vector ETV
attr source signal_boss_throughput
0	0	0	0
1	0	0	0
2	0	0	0
3	0	0	0
4	0	0	0
4	2	4.857641573672	1
4	5	27.588856701871	1
4	8	47.229138772124	1
4	11	71.66664452699	1
4	14	100.526393326958	1
4	17	123.208168782133	1
4	20	135.342505998081	1
4	23	140.488731336125	1
4	26	150.529958402892	1
4	29	174.140309179453	1
4	32	183.453370300209	1
4	35	190.892416506587	1
4	38	193.125437753565	1
4	40	194.874561284922	2
4	44	199.774794399709	1
4	46	201.252185507674	2
4	49	204.249504845054	2
4	53	221.908616278829	1
4	55	222.683986931039	2
4	59	239.001735845675	1
4	61	242.300076610198	2
4	65	258.751070732488	1
4	68	264.521333152873	1
4	71	274.861703969629	1
4	74	281.463646224931	1
4	77	293.135257830378	1
4	80	313.421942268447	1
4	83	323.676897651675	1
4	85	331.219241148688	2
4	88	340.45981519993	2
4	92	348.721188480276	1
4	95	362.88152011366	1
4	98	369.250234971682	1
4	100	369.588832737491	2
4	104	381.263377645637	1
4	107	382.656843592876	1
4	110	389.685356913075	1
4	113	395.537727749097	1
4	116	412.863717918173	1
4	119	420.834119396637	1
4	122	453.115090315655	1
4	125	459.16472681742	1
4	128	478.69417208708	1
4	130	478.861910120556	2
4	132	482.560618239548	3
4	135	485.312835650891	3
4	138	493.291716054883	3
4	140	493.6966450298	4
4	146	504.329435703403	1
4	149	535.077589863942	1
4	152	565.208150139792	1
4	154	566.024148619196	2
4	158	602.821223317114	1
4	161	608.308465942409	1
4	164	614.260228812499	1
4	167	627.367098465845	1
4	170	643.425190079753	1
4	173	651.42200772248	1
4	176	664.454549790124	1
4	179	668.694165041565	1
4	181	669.616914091539	2
4	184	671.647525020583	2
4	188	687.399562025824	1
4	191	693.675374148653	1
4	194	719.336232563311	1
4	197	723.193203967353	1
4	200	732.735888368542	1
4	202	736.263061641321	2
4	204	738.630238380511	3
4	206	739.37937525024	4
4	209	742.145361701125	4
4	212	745.09363293202	4
4	217	750.423987644713	2
4	220	754.428737968039	2
4	224	767.492092851181	1
4	227	792.298273409293	1
4	229	792.450327098429	2
4	233	802.427483006496	1
4	236	804.464308248843	1
4	238	805.367617853161	2
4	242	811.220117074767	1
4	245	862.898783406431	1
4	248	872.021754836271	1
4	251	895.287312706681	1
4	253	896.647720767841	2
4	255	898.300964099061	3
4	260	915.005858458648	1
4	263	924.371566329811	1
4	266	926.829020975327	1
4	269	927.892019930969	1
4	271	928.839808839136	2
4	275	941.2288552328	1
4	278	942.520468609369	1
4	281	962.818820440479	1
4	284	1011.100067223467	1
4	287	1016.397443276974	1
4	289	1020.312945148207	2
4	293	1026.939457904645	1
4	296	1032.076773687659	1
4	299	1034.375110495963	1
4	302	1040.89012781803	1
4	305	1063.457923861072	1
4	308	1068.8656999895	1
4	310	1069.821709015238	2
4	313	1073.314630027123	2
4	317	1089.885546616773	1
4	320	1098.313797544248	1
4	323	1108.485720347416	1
4	325	1113.000063856536	2
4	328	1114.223511923335	2
4	330	1117.101263178635	3
4	333	1118.707241673357	3
4	337	1124.538932779604	2
4	339	1129.767215109509	3
4	343	1138.961870512781	2
4	347	1144.333058172969	1
4	350	1148.329740916584	1
4	353	1165.007657731337	1
4	356	1175.457865846037	1
4	358	1183.886923441489	2
4	362	1189.287299477659	1
4	365	1212.558214023395	1
4	368	1215.993488657875	1
4	371	1229.123117266168	1
4	374	1240.813269252142	1
4	377	1277.694478850285	1
4	380	1302.931775897965	1
4	383	1326.093756957281	1
4	386	1334.752359418707	1
4	388	1334.767065936597	2
4	392	1345.858306712736	1
4	395	1350.160320264199	1
4	398	1360.488534832545	1
4	400	1361.359983483366	2
4	403	1372.222141070386	2
4	407	1382.915482667626	1
4	410	1387.878935885355	1
4	413	1411.552928500483	1
4	416	1424.601790452389	1
4	419	1434.4532552294	1
4	422	1444.559781428229	1
4	425	1446.013603204402	1
4	428	1452.139765483282	1
4	431	1481.917017296199	1
4	433	1482.192296710544	2
4	435	1486.461935381735	3
4	440	1493.9334236442	1
4	443	1495.723503893817	1
4	446	1501.805528293458	1
4	449	1539.99093187216	1
4	452	1550.256890058714	1
4	455	1552.531835177455	1
4	458	1560.383813604044	1
4	461	1572.988273828552	1
4	464	1607.282649308249	1
4	467	1617.292304750323	1
4	470	1632.800193871965	1
4	473	1633.49572644849	1
4	476	1643.060241602723	1
4	478	1649.427030561143	2
4	481	1654.816817659501	2
4	483	1655.645283275422	3
4	488	1669.336455024447	1
4	490	1669.649435967279	2
4	492	1669.981714627706	3
4	494	1671.555821375987	4
4	496	1671.756353978364	5
4	500	1675.078608501144	4
4	506	1688.437418044544	1
4	509	1692.426172971744	1
4	512	1699.684877113012	1
4	515	1711.001543762586	1
4	517	1714.533061006038	2
4	521	1722.271472147987	1
4	524	1730.098211992269	1
4	526	1733.906772518176	2
4	530	1752.853063472356	1
4	533	1763.36562276124	1
4	536	1767.830346819787	1
4	539	1780.057226748595	1
4	542	1800.729685517934	1
4	544	1801.997536614855	2
4	548	1821.317183384859	1
4	551	1826.401399110985	1
4	554	1828.915921321268	1
4	557	1843.143146908093	1
4	560	1853.656247426902	1
4	563	1865.251836303451	1
4	566	1895.130967602844	1
4	569	1911.241578389424	1
4	572	1922.540717156088	1
4	575	1925.763844262591	1
4	578	1932.899428015171	1
4	581	1949.343458223895	1
4	583	1952.211324935906	2
4	585	1952.927543221844	3
4	587	1954.521159861318	4
4	593	1990.07403528852	1
4	596	1995.310650450813	1
4	598	1997.827873211757	2
4	602	2020.160042721025	1
4	605	2031.486817344316	1
4	607	2034.182439363634	2
4	611	2037.654377059632	1
4	614	2040.020189588229	1
4	616	2043.838717425952	2
4	619	2048.241642268856	2
4	621	2048.90647415546	3
4	624	2056.259431336044	3
4	629	2074.170669602407	1
4	632	2082.95845538081	1
4	635	2097.219197728279	1
4	638	2106.693428839935	1
4	641	2117.050418466672	1
4	644	2120.550651882915	1
4	647	2138.958985571833	1
4	650	2140.048895386162	1
4	652	2141.360224799828	2
4	656	2210.154214279609	1
4	659	2241.019584906296	1
4	661	2241.396405089076	2
4	665	2267.054868446274	1
4	668	2274.427649329947	1
4	671	2284.76761088438	1
4	674	2288.723565606638	1
4	677	2295.487245002331	1
4	680	2306.122947325467	1
4	683	2308.834582216199	1
4	685	2310.466620190538	2
4	689	2329.499659523162	1
4	692	2360.400668791298	1
4	695	2377.123513979487	1
4	698	2378.049773629934	1
4	701	2393.402373879063	1
4	704	2410.142072538127	1
4	707	2434.181104959704	1
4	710	2441.675692195517	1
4	713	2469.541311459648	1
4	715	2476.715541988663	2
4	719	2490.4705406061	1
5	0	0	0
5	2	4.857641573672	0
5	3	7.232497072295	0
5	5	27.588856701871	0
5	6	27.605905324532	0
5	8	47.229138772124	0
5	9	52.026102149187	0
5	11	71.66664452699	0
5	12	76.648442232474	0
5	14	100.526393326958	0
5	15	105.677494130008	0
5	17	123.208168782133	0
5	18	124.579500233726	0
5	20	135.342505998081	0
5	21	135.733002428054	0
5	23	140.488731336125	0
5	24	145.780910457821	0
5	26	150.529958402892	0
5	27	153.293883344808	0
5	29	174.140309179453	0
5	30	176.911670808854	0
5	32	183.453370300209	0
5	33	185.689943507368	0
5	35	190.892416506587	0
5	36	192.475625016201	0
5	38	193.125437753565	0
5	40	194.874561284922	1
5	41	194.995788527936	1
5	42	195.771826322732	0
5	44	199.774794399709	0
5	46	201.252185507674	1
5	47	201.687623868248	1
5	49	204.249504845054	1
5	50	205.219881180891	1
5	51	208.22471506586	0
5	53	221.908616278829	0
5	55	222.683986931039	1
5	56	222.761345923605	1
5	57	230.558820813257	0
5	59	239.001735845675	0
5	61	242.300076610198	1
5	62	246.924501095377	1
5	63	251.994865953057	0
5	65	258.751070732488	0
5	66	261.012309403227	0
5	68	264.521333152873	0
5	69	273.192303279259	0
5	71	274.861703969629	0
5	72	275.658409796264	0
5	74	281.463646224931	0
5	75	289.025315174805	0
5	77	293.135257830378	0
5	78	295.038696729041	0
5	80	313.421942268447	0
5	81	315.029504964173	0
5	83	323.676897651675	0
5	85	331.219241148688	1
5	86	337.6987676322	1
5	88	340.45981519993	1
5	89	342.94162735799	1
5	90	344.168016515269	0
5	92	348.721188480276	0
5	93	357.491988363743	0
5	95	362.88152011366	0
5	96	363.735127368089	0
5	98	369.250234971682	0
5	100	369.588832737491	1
5	101	372.21719065454	1
5	102	373.484813489779	0
5	104	381.263377645637	0
5	105	382.135516809085	0
5	107	382.656843592876	0
5	108	384.061967767555	0
5	110	389.685356913075	0
5	111	392.377402499013	0
5	113	395.537727749097	0
5	114	396.857552401432	0
5	116	412.863717918173	0
5	117	418.770722040508	0
5	119	420.834119396637	0
5	120	424.297254231542	0
5	122	453.115090315655	0
5	123	453.264087122725	0
5	125	459.16472681742	0
5	126	460.191036503038	0
5	128	478.69417208708	0
5	130	478.861910120556	1
5	132	482.560618239548	2
5	133	484.483071504784	2
5	135	485.312835650891	2
5	136	491.982264172412	2
5	138	493.291716054883	2
5	140	493.6966450298	3
5	141	495.803455145541	3
5	142	496.142385626136	2
5	143	497.195203223572	1
5	144	498.031577454087	0
5	146	504.329435703403	0
5	147	506.322569576061	0
5	149	535.077589863942	0
5	150	540.817816980172	0
5	152	565.208150139792	0
5	154	566.024148619196	1
5	155	570.78715067392	1
5	156	571.270029846503	0
5	158	602.821223317114	0
5	159	605.588837541829	0
5	161	608.308465942409	0
5	162	610.327276423749	0
5	164	614.260228812499	0
5	165	614.773112733151	0
5	167	627.367098465845	0
5	168	633.69742852101	0
5	170	643.425190079753	0
5	171	645.665481145169	0
5	173	651.42200772248	0
5	174	652.610973632605	0
5	176	664.454549790124	0
5	177	665.077826943693	0
5	179	668.694165041565	0
5	181	669.616914091539	1
5	182	669.833449002741	1
5	184	671.647525020583	1
5	185	673.163503278578	1
5	186	676.838436893616	0
5	188	687.399562025824	0
5	189	689.786757860939	0
5	191	693.675374148653	0
5	192	694.482151091369	0
5	194	719.336232563311	0
5	195	719.846555171266	0
5	197	723.193203967353	0
5	198	724.94276054464	0
5	200	732.735888368542	0
5	202	736.263061641321	1
5	204	738.630238380511	2
5	206	739.37937525024	3
5	207	740.82260439394	3
5	209	742.145361701125	3
5	210	743.007631660575	3
5	212	745.09363293202	3
5	213	745.356540504291	3
5	214	746.016867026248	2
5	215	749.188332967506	1
5	217	750.423987644713	1
5	218	753.291441242639	1
5	220	754.428737968039	1
5	221	756.629704429227	1
5	222	760.035640716837	0
5	224	767.492092851181	0
5	225	772.618959887332	0
5	227	792.298273409293	0
5	229	792.450327098429	1
5	230	793.549837938891	1
5	231	793.590792408766	0
5	233	802.427483006496	0
5	234	803.428209683942	0
5	236	804.464308248843	0
5	238	805.367617853161	1
5	239	810.112870528344	1
5	240	810.849027394633	0
5	242	811.220117074767	0
5	243	812.933287397604	0
5	245	862.898783406431	0
5	246	866.077248279626	0
5	248	872.021754836271	0
5	249	873.968898618346	0
5	251	895.287312706681	0
5	253	896.647720767841	1
5	255	898.300964099061	2
5	256	900.512399339333	2
5	257	904.28097764748	1
5	258	906.337316210011	0
5	260	915.005858458648	0
5	261	920.507192885416	0
5	263	924.371566329811	0
5	264	924.765768991325	0
5	266	926.829020975327	0
5	267	927.189607634928	0
5	269	927.892019930969	0
5	271	928.839808839136	1
5	272	934.891240150294	1
5	273	937.734291807461	0
5	275	941.2288552328	0
5	276	942.224448793108	0
5	278	942.520468609369	0
5	279	943.271077886343	0
5	281	962.818820440479	0
5	282	963.668041149331	0
5	284	1011.100067223467	0
5	285	1011.221668085202	0
5	287	1016.397443276974	0
5	289	1020.312945148207	1
5	290	1021.005620042472	1
5	291	1021.993870506273	0
5	293	1026.939457904645	0
5	294	1029.099633427543	0
5	296	1032.076773687659	0
5	297	1033.11971936122	0
5	299	1034.375110495963	0
5	300	1036.070723274622	0
5	302	1040.89012781803	0
5	303	1041.319974572313	0
5	305	1063.457923861072	0
5	306	1065.246714011769	0
5	308	1068.8656999895	0
5	310	1069.821709015238	1
5	311	1072.716493906646	1
5	313	1073.314630027123	1
5	314	1076.82100420276	1
5	315	1077.503203553674	0
5	317	1089.885546616773	0
5	318	1091.860592205251	0
5	320	1098.313797544248	0
5	321	1103.007929567842	0
5	323	1108.485720347416	0
5	325	1113.000063856536	1
5	326	1114.081814995433	1
5	328	1114.223511923335	1
5	330	1117.101263178635	2
5	331	1117.931911514582	2
5	333	1118.707241673357	2
5	334	1119.922056731394	2
5	335	1121.198970643446	1
5	337	1124.538932779604	1
5	339	1129.767215109509	2
5	340	1137.094909242931	2
5	341	1137.837322048568	1
5	343	1138.961870512781	1
5	344	1139.100612550877	1
5	345	1139.903190699435	0
5	347	1144.333058172969	0
5	348	1144.446865075688	0
5	350	1148.329740916584	0
5	351	1148.677128148173	0
5	353	1165.007657731337	0
5	354	1167.313889822457	0
5	356	1175.457865846037	0
5	358	1183.886923441489	1
5	359	1183.892027515771	1
5	360	1185.584838761859	0
5	362	1189.287299477659	0
5	363	1191.624591504118	0
5	365	1212.558214023395	0
5	366	1213.300258786015	0
5	368	1215.993488657875	0
5	369	1222.778530815797	0
5	371	1229.123117266168	0
5	372	1230.579176127848	0
5	374	1240.813269252142	0
5	375	1247.343165458743	0
5	377	1277.694478850285	0
5	378	1278.202419886947	0
5	380	1302.931775897965	0
5	381	1302.972967988401	0
5	383	1326.093756957281	0
5	384	1327.533027674711	0
5	386	1334.752359418707	0
5	388	1334.767065936597	1
5	389	1340.847045510282	1
5	390	1341.600401430094	0
5	392	1345.858306712736	0
5	393	1346.934576510097	0
5	395	1350.160320264199	0
5	396	1350.859643047216	0
5	398	1360.488534832545	0
5	400	1361.359983483366	1
5	401	1369.355124819752	1
5	403	1372.222141070386	1
5	404	1373.833558777367	1
5	405	1373.882181341142	0
5	407	1382.915482667626	0
5	408	1384.535431945879	0
5	410	1387.878935885355	0
5	411	1399.104853558622	0
5	413	1411.552928500483	0
5	414	1413.465901958053	0
5	416	1424.601790452389	0
5	417	1429.654256444516	0
5	419	1434.4532552294	0
5	420	1435.230194852053	0
5	422	1444.559781428229	0
5	423	1445.708641911348	0
5	425	1446.013603204402	0
5	426	1446.742526737934	0
5	428	1452.139765483282	0
5	429	1453.203133083381	0
5	431	1481.917017296199	0
5	433	1482.192296710544	1
5	435	1486.461935381735	2
5	436	1488.190492044901	2
5	437	1489.779965738093	1
5	438	1493.0953877137	0
5	440	1493.9334236442	0
5	441	1495.179969578537	0
5	443	1495.723503893817	0
5	444	1498.330996330186	0
5	446	1501.805528293458	0
5	447	1510.822920630086	0
5	449	1539.99093187216	0
5	450	1545.169468814567	0
5	452	1550.256890058714	0
5	453	1551.987855568668	0
5	455	1552.531835177455	0
5	456	1553.706293151604	0
5	458	1560.383813604044	0
5	459	1561.487274265191	0
5	461	1572.988273828552	0
5	462	1573.377722354566	0
5	464	1607.282649308249	0
5	465	1610.80362122819	0
5	467	1617.292304750323	0
5	468	1619.785328242602	0
5	470	1632.800193871965	0
5	471	1633.085845481663	0
5	473	1633.49572644849	0
5	474	1634.681386783601	0
5	476	1643.060241602723	0
5	478	1649.427030561143	1
5	479	1652.085893043478	1
5	481	1654.816817659501	1
5	483	1655.645283275422	2
5	484	1657.200249514414	2
5	485	1662.589584845162	1
5	486	1663.733283850367	0
5	488	1669.336455024447	0
5	490	1669.649435967279	1
5	492	1669.981714627706	2
5	494	1671.555821375987	3
5	496	1671.756353978364	4
5	497	1673.146058666823	4
5	498	1673.597457031691	3
5	500	1675.078608501144	3
5	501	1677.4426184656	3
5	502	1680.047054409579	2
5	503	1680.411377111359	1
5	504	1684.058450630408	0
5	506	1688.437418044544	0
5	507	1690.404562863742	0
5	509	1692.426172971744	0
5	510	1693.971498290166	0
5	512	1699.684877113012	0
5	513	1702.199771132949	0
5	515	1711.001543762586	0
5	517	1714.533061006038	1
5	518	1715.66636439568	1
5	519	1716.77379752301	0
5	521	1722.271472147987	0
5	522	1727.733414397835	0
5	524	1730.098211992269	0
5	526	1733.906772518176	1
5	527	1734.875938358452	1
5	528	1736.126766590196	0
5	530	1752.853063472356	0
5	531	1759.259174201543	0
5	533	1763.36562276124	0
5	534	1766.492666356878	0
5	536	1767.830346819787	0
5	537	1771.481032429806	0
5	539	1780.057226748595	0
5	540	1780.886771241144	0
5	542	1800.729685517934	0
5	544	1801.997536614855	1
5	545	1809.955695814899	1
5	546	1812.287339478421	0
5	548	1821.317183384859	0
5	549	1822.858580285151	0
5	551	1826.401399110985	0
5	552	1828.572368825597	0
5	554	1828.915921321268	0
5	555	1831.125650976419	0
5	557	1843.143146908093	0
5	558	1847.818851810223	0
5	560	1853.656247426902	0
5	561	1858.166637925899	0
5	563	1865.251836303451	0
5	564	1867.924116538232	0
5	566	1895.130967602844	0
5	567	1895.165725834726	0
5	569	1911.241578389424	0
5	570	1913.949164306519	0
5	572	1922.540717156088	0
5	573	1925.026278830928	0
5	575	1925.763844262591	0
5	576	1927.637622404773	0
5	578	1932.899428015171	0
5	579	1934.936999948761	0
5	581	1949.343458223895	0
5	583	1952.211324935906	1
5	585	1952.927543221844	2
5	587	1954.521159861318	3
5	588	1956.715386793738	3
5	589	1959.841338100791	2
5	590	1961.10706250741	1
5	591	1967.236896062031	0
5	593	1990.07403528852	0
5	594	1992.522389612157	0
5	596	1995.310650450813	0
5	598	1997.827873211757	1
5	599	1998.029860952171	1
5	600	1999.39993118516	0
5	602	2020.160042721025	0
5	603	2021.418358928597	0
5	605	2031.486817344316	0
5	607	2034.182439363634	1
5	608	2034.19587026868	1
5	609	2035.387386346129	0
5	611	2037.654377059632	0
5	612	2037.778299576431	0
5	614	2040.020189588229	0
5	616	2043.838717425952	1
5	617	2044.958825068539	1
5	619	2048.241642268856	1
5	621	2048.90647415546	2
5	622	2050.328856870033	2
5	624	2056.259431336044	2
5	625	2057.404076678255	2
5	626	2059.148082213688	1
5	627	2062.293620009291	0
5	629	2074.170669602407	0
5	630	2075.271600412149	0
5	632	2082.95845538081	0
5	633	2083.9025662866	0
5	635	2097.219197728279	0
5	636	2098.016223968157	0
5	638	2106.693428839935	0
5	639	2106.793756498483	0
5	641	2117.050418466672	0
5	642	2118.784833481847	0
5	644	2120.550651882915	0
5	645	2120.701762288483	0
5	647	2138.958985571833	0
5	648	2139.490479390799	0
5	650	2140.048895386162	0
5	652	2141.360224799828	1
5	653	2141.911911750793	1
5	654	2144.524168420043	0
5	656	2210.154214279609	0
5	657	2210.707563320232	0
5	659	2241.019584906296	0
5	661	2241.396405089076	1
5	662	2241.819638950453	1
5	663	2249.518674714203	0
5	665	2267.054868446274	0
5	666	2269.157740923672	0
5	668	2274.427649329947	0
5	669	2276.909105656985	0
5	671	2284.76761088438	0
5	672	2284.874615675539	0
5	674	2288.723565606638	0
5	675	2289.243608856304	0
5	677	2295.487245002331	0
5	678	2296.229337357533	0
5	680	2306.122947325467	0
5	681	2307.458163709373	0
5	683	2308.834582216199	0
5	685	2310.466620190538	1
5	686	2314.297155354449	1
5	687	2314.440780241606	0
5	689	2329.499659523162	0
5	690	2331.788199207539	0
5	692	2360.400668791298	0
5	693	2361.926965342847	0
5	695	2377.123513979487	0
5	696	2377.462590927223	0
5	698	2378.049773629934	0
5	699	2386.545938293205	0
5	701	2393.402373879063	0
5	702	2394.480046415059	0
5	704	2410.142072538127	0
5	705	2414.442684811901	0
5	707	2434.181104959704	0
5	708	2434.184399601608	0
5	710	2441.675692195517	0
5	711	2443.177457297664	0
5	713	2469.541311459648	0
5	715	2476.715541988663	1
5	716	2478.667487261355	1
5	717	2483.292930972411	0
5	719	2490.4705406061	0
5	720	2492.47920832903	0
6	0	0	0
6	3	7.232497072295	1
6	6	27.605905324532	2
6	9	52.026102149187	3
6	12	76.648442232474	4
6	15	105.677494130008	5
6	18	124.579500233726	6
6	21	135.733002428054	7
6	24	145.780910457821	8
6	27	153.293883344808	9
6	30	176.911670808854	10
6	33	185.689943507368	11
6	36	192.475625016201	12
6	41	194.995788527936	13
6	42	195.771826322732	14
6	47	201.687623868248	15
6	50	205.219881180891	16
6	51	208.22471506586	17
6	56	222.761345923605	18
6	57	230.558820813257	19
6	62	246.924501095377	20
6	63	251.994865953057	21
6	66	261.012309403227	22
6	69	273.192303279259	23
6	72	275.658409796264	24
6	75	289.025315174805	25
6	78	295.038696729041	26
6	81	315.029504964173	27
6	86	337.6987676322	28
6	89	342.94162735799	29
6	90	344.168016515269	30
6	93	357.491988363743	31
6	96	363.735127368089	32
6	101	372.21719065454	33
6	102	373.484813489779	34
6	105	382.135516809085	35
6	108	384.061967767555	36
6	111	392.377402499013	37
6	114	396.857552401432	38
6	117	418.770722040508	39
6	120	424.297254231542	40
6	123	453.264087122725	41
6	126	460.191036503038	42
6	133	484.483071504784	43
6	136	491.982264172412	44
6	141	495.803455145541	45
6	142	496.142385626136	46
6	143	497.195203223572	47
6	144	498.031577454087	48
6	147	506.322569576061	49
6	150	540.817816980172	50
6	155	570.78715067392	51
6	156	571.270029846503	52
6	159	605.588837541829	53
6	162	610.327276423749	54
6	165	614.773112733151	55
6	168	633.69742852101	56
6	171	645.665481145169	57
6	174	652.610973632605	58
6	177	665.077826943693	59
6	182	669.833449002741	60
6	185	673.163503278578	61
6	186	676.838436893616	62
6	189	689.786757860939	63
6	192	694.482151091369	64
6	195	719.846555171266	65
6	198	724.94276054464	66
6	207	740.82260439394	67
6	210	743.007631660575	68
6	213	745.356540504291	69
6	214	746.016867026248	70
6	215	749.188332967506	71
6	218	753.291441242639	72
6	221	756.629704429227	73
6	222	760.035640716837	74
6	225	772.618959887332	75
6	230	793.549837938891	76
6	231	793.590792408766	77
6	234	803.428209683942	78
6	239	810.112870528344	79
6	240	810.849027394633	80
6	243	812.933287397604	81
6	246	866.077248279626	82
6	249	873.968898618346	83
6	256	900.512399339333	84
6	257	904.28097764748	85
6	258	906.337316210011	86
6	261	920.507192885416	87
6	264	924.765768991325	88
6	267	927.189607634928	89
6	272	934.891240150294	90
6	273	937.734291807461	91
6	276	942.224448793108	92
6	279	943.271077886343	93
6	282	963.668041149331	94
6	285	1011.221668085202	95
6	290	1021.005620042472	96
6	291	1021.993870506273	97
6	294	1029.099633427543	98
6	297	1033.11971936122	99
6	300	1036.070723274622	100
6	303	1041.319974572313	101
6	306	1065.246714011769	102
6	311	1072.716493906646	103
6	314	1076.82100420276	104
6	315	1077.503203553674	105
6	318	1091.860592205251	106
6	321	1103.007929567842	107
6	326	1114.081814995433	108
6	331	1117.931911514582	109
6	334	1119.922056731394	110
6	335	1121.198970643446	111
6	340	1137.094909242931	112
6	341	1137.837322048568	113
6	344	1139.100612550877	114
6	345	1139.903190699435	115
6	348	1144.446865075688	116
6	351	1148.677128148173	117
6	354	1167.313889822457	118
6	359	1183.892027515771	119
6	360	1185.584838761859	120
6	363	1191.624591504118	121
6	366	1213.300258786015	122
6	369	1222.778530815797	123
6	372	1230.579176127848	124
6	375	1247.343165458743	125
6	378	1278.202419886947	126
6	381	1302.972967988401	127
6	384	1327.533027674711	128
6	389	1340.847045510282	129
6	390	1341.600401430094	130
6	393	1346.934576510097	131
6	396	1350.859643047216	132
6	401	1369.355124819752	133
6	404	1373.833558777367	134
6	405	1373.882181341142	135
6	408	1384.535431945879	136
6	411	1399.104853558622	137
6	414	1413.465901958053	138
6	417	1429.654256444516	139
6	420	1435.230194852053	140
6	423	1445.708641911348	141
6	426	1446.742526737934	142
6	429	1453.203133083381	143
6	436	1488.190492044901	144
6	437	1489.779965738093	145
6	438	1493.0953877137	146
6	441	1495.179969578537	147
6	444	1498.330996330186	148
6	447	1510.822920630086	149
6	450	1545.169468814567	150
6	453	1551.987855568668	151
6	456	1553.706293151604	152
6	459	1561.487274265191	153
6	462	1573.377722354566	154
6	465	1610.80362122819	155
6	468	1619.785328242602	156
6	471	1633.085845481663	157
6	474	1634.681386783601	158
6	479	1652.085893043478	159
6	484	1657.200249514414	160
6	485	1662.589584845162	161
6	486	1663.733283850367	162
6	497	1673.146058666823	163
6	498	1673.597457031691	164
6	501	1677.4426184656	165
6	502	1680.047054409579	166
6	503	1680.411377111359	167
6	504	1684.058450630408	168
6	507	1690.404562863742	169
6	510	1693.971498290166	170
6	513	1702.199771132949	171
6	518	1715.66636439568	172
6	519	1716.77379752301	173
6	522	1727.733414397835	174
6	527	1734.875938358452	175
6	528	1736.126766590196	176
6	531	1759.259174201543	177
6	534	1766.492666356878	178
6	537	1771.481032429806	179
6	540	1780.886771241144	180
6	545	1809.955695814899	181
6	546	1812.287339478421	182
6	549	1822.858580285151	183
6	552	1828.572368825597	184
6	555	1831.125650976419	185
6	558	1847.818851810223	186
6	561	1858.166637925899	187
6	564	1867.924116538232	188
6	567	1895.165725834726	189
6	570	1913.949164306519	190
6	573	1925.026278830928	191
6	576	1927.637622404773	192
6	579	1934.936999948761	193
6	588	1956.715386793738	194
6	589	1959.841338100791	195
6	590	1961.10706250741	196
6	591	1967.236896062031	197
6	594	1992.522389612157	198
6	599	1998.029860952171	199
6	600	1999.39993118516	200
6	603	2021.418358928597	201
6	608	2034.19587026868	202
6	609	2035.387386346129	203
6	612	2037.778299576431	204
6	617	2044.958825068539	205
6	622	2050.328856870033	206
6	625	2057.404076678255	207
6	626	2059.148082213688	208
6	627	2062.293620009291	209
6	630	2075.271600412149	210
6	633	2083.9025662866	211
6	636	2098.016223968157	212
6	639	2106.793756498483	213
6	642	2118.784833481847	214
6	645	2120.701762288483	215
6	648	2139.490479390799	216
6	653	2141.911911750793	217
6	654	2144.524168420043	218
6	657	2210.707563320232	219
6	662	2241.819638950453	220
6	663	2249.518674714203	221
6	666	2269.157740923672	222
6	669	2276.909105656985	223
6	672	2284.874615675539	224
6	675	2289.243608856304	225
6	678	2296.229337357533	226
6	681	2307.458163709373	227
6	686	2314.297155354449	228
6	687	2314.440780241606	229
6	690	2331.788199207539	230
6	693	2361.926965342847	231
6	696	2377.462590927223	232
6	699	2386.545938293205	233
6	702	2394.480046415059	234
6	705	2414.442684811901	235
6	708	2434.184399601608	236
6	711	2443.177457297664	237
6	716	2478.667487261355	238
6	717	2483.292930972411	239
6	720	2492.47920832903	240
7	2	4.857641573672	0
7	5	27.588856701871	0
7	8	47.229138772124	0
7	11	71.66664452699	0
7	14	100.526393326958	0
7	17	123.208168782133	0
7	20	135.342505998081	0
7	23	140.488731336125	0
7	26	150.529958402892	0
7	29	174.140309179453	0
7	32	183.453370300209	0
7	35	190.892416506587	0
7	38	193.125437753565	0
7	41	194.995788527936	0.121227243014
7	44	199.774794399709	0
7	47	201.687623868248	0.435438360574
7	50	205.219881180891	0.970376335837
7	53	221.908616278829	0
7	56	222.761345923605	0.077358992566
7	59	239.001735845675	0
7	62	246.924501095377	4.624424485179
7	65	258.751070732488	0
7	68	264.521333152873	0
7	71	274.861703969629	0
7	74	281.463646224931	0
7	77	293.135257830378	0
7	80	313.421942268447	0
7	83	323.676897651675	0
7	86	337.6987676322	6.479526483512
7	89	342.94162735799	2.48181215806
7	92	348.721188480276	0
7	95	362.88152011366	0
7	98	369.250234971682	0
7	101	372.21719065454	2.628357917049
7	104	381.263377645637	0
7	107	382.656843592876	0
7	110	389.685356913075	0
7	113	395.537727749097	0
7	116	412.863717918173	0
7	119	420.834119396637	0
7	122	453.115090315655	0
7	125	459.16472681742	0
7	128	478.69417208708	0
7	133	484.483071504784	5.621161384228
7	136	491.982264172412	9.421645932864
7	141	495.803455145541	10.49061949465
7	142	496.142385626136	2.850669571253
7	143	497.195203223572	3.498558193772
7	146	504.329435703403	0
7	149	535.077589863942	0
7	152	565.208150139792	0
7	155	570.78715067392	4.763002054724
7	158	602.821223317114	0
7	161	608.308465942409	0
7	164	614.260228812499	0
7	167	627.367098465845	0
7	170	643.425190079753	0
7	173	651.42200772248	0
7	176	664.454549790124	0
7	179	668.694165041565	0
7	182	669.833449002741	0.216534911202
7	185	673.163503278578	1.515978257995
7	188	687.399562025824	0
7	191	693.675374148653	0
7	194	719.336232563311	0
7	197	723.193203967353	0
7	200	732.735888368542	0
7	207	740.82260439394	4.559542752619
7	210	743.007631660575	4.377393280064
7	213	745.356540504291	5.977165254051
7	214	746.016867026248	3.871505325123
7	215	749.188332967506	4.094700035486
7	218	753.291441242639	2.867453597926
7	221	756.629704429227	2.200966461188
7	224	767.492092851181	0
7	227	792.298273409293	0
7	230	793.549837938891	1.099510840462
7	233	802.427483006496	0
7	236	804.464308248843	0
7	239	810.112870528344	4.745252675183
7	242	811.220117074767	0
7	245	862.898783406431	0
7	248	872.021754836271	0
7	251	895.287312706681	0
7	256	900.512399339333	3.864678571492
7	257	904.28097764748	5.980013548419
7	260	915.005858458648	0
7	263	924.371566329811	0
7	266	926.829020975327	0
7	269	927.892019930969	0
7	272	934.891240150294	6.051431311158
7	275	941.2288552328	0
7	278	942.520468609369	0
7	281	962.818820440479	0
7	284	1011.100067223467	0
7	287	1016.397443276974	0
7	290	1021.005620042472	0.692674894265
7	293	1026.939457904645	0
7	296	1032.076773687659	0
7	299	1034.375110495963	0
7	302	1040.89012781803	0
7	305	1063.457923861072	0
7	308	1068.8656999895	0
7	311	1072.716493906646	2.894784891408
7	314	1076.82100420276	3.506374175637
7	317	1089.885546616773	0
7	320	1098.313797544248	0
7	323	1108.485720347416	0
7	326	1114.081814995433	1.081751138897
7	331	1117.931911514582	3.708399591247
7	334	1119.922056731394	2.820793552759
7	335	1121.198970643446	2.491728970089
7	340	1137.094909242931	12.555976463327
7	341	1137.837322048568	8.070106939059
7	344	1139.100612550877	0.138742038096
7	347	1144.333058172969	0
7	350	1148.329740916584	0
7	353	1165.007657731337	0
7	356	1175.457865846037	0
7	359	1183.892027515771	0.005104074282
7	362	1189.287299477659	0
7	365	1212.558214023395	0
7	368	1215.993488657875	0
7	371	1229.123117266168	0
7	374	1240.813269252142	0
7	377	1277.694478850285	0
7	380	1302.931775897965	0
7	383	1326.093756957281	0
7	386	1334.752359418707	0
7	389	1340.847045510282	6.079979573685
7	392	1345.858306712736	0
7	395	1350.160320264199	0
7	398	1360.488534832545	0
7	401	1369.355124819752	7.995141336386
7	404	1373.833558777367	1.611417706981
7	407	1382.915482667626	0
7	410	1387.878935885355	0
7	413	1411.552928500483	0
7	416	1424.601790452389	0
7	419	1434.4532552294	0
7	422	1444.559781428229	0
7	425	1446.013603204402	0
7	428	1452.139765483282	0
7	431	1481.917017296199	0
7	436	1488.190492044901	5.998195334357
7	437	1489.779965738093	3.318030356358
7	440	1493.9334236442	0
7	443	1495.723503893817	0
7	446	1501.805528293458	0
7	449	1539.99093187216	0
7	452	1550.256890058714	0
7	455	1552.531835177455	0
7	458	1560.383813604044	0
7	461	1572.988273828552	0
7	464	1607.282649308249	0
7	467	1617.292304750323	0
7	470	1632.800193871965	0
7	473	1633.49572644849	0
7	476	1643.060241602723	0
7	479	1652.085893043478	2.658862482335
7	484	1657.200249514414	2.383431854913
7	485	1662.589584845162	6.94430156974
7	488	1669.336455024447	0
7	497	1673.146058666823	3.496622699544
7	498	1673.597457031691	3.615742403985
7	501	1677.4426184656	5.886797089613
7	502	1680.047054409579	8.290700431215
7	503	1680.411377111359	5.332768610215
7	506	1688.437418044544	0
7	509	1692.426172971744	0
7	512	1699.684877113012	0
7	515	1711.001543762586	0
7	518	1715.66636439568	1.133303389642
7	521	1722.271472147987	0
7	524	1730.098211992269	0
7	527	1734.875938358452	0.969165840276
7	530	1752.853063472356	0
7	533	1763.36562276124	0
7	536	1767.830346819787	0
7	539	1780.057226748595	0
7	542	1800.729685517934	0
7	545	1809.955695814899	7.958159200044
7	548	1821.317183384859	0
7	551	1826.401399110985	0
7	554	1828.915921321268	0
7	557	1843.143146908093	0
7	560	1853.656247426902	0
7	563	1865.251836303451	0
7	566	1895.130967602844	0
7	569	1911.241578389424	0
7	572	1922.540717156088	0
7	575	1925.763844262591	0
7	578	1932.899428015171	0
7	581	1949.343458223895	0
7	588	1956.715386793738	4.504061857832
7	589	1959.841338100791	6.913794878947
7	590	1961.10706250741	6.585902646092
7	593	1990.07403528852	0
7	596	1995.310650450813	0
7	599	1998.029860952171	0.201987740414
7	602	2020.160042721025	0
7	605	2031.486817344316	0
7	608	2034.19587026868	0.013430905046
7	611	2037.654377059632	0
7	614	2040.020189588229	0
7	617	2044.958825068539	1.120107642587
7	622	2050.328856870033	2.087214601177
7	625	2057.404076678255	8.497602522795
7	626	2059.148082213688	2.888650877644
7	629	2074.170669602407	0
7	632	2082.95845538081	0
7	635	2097.219197728279	0
7	638	2106.693428839935	0
7	641	2117.050418466672	0
7	644	2120.550651882915	0
7	647	2138.958985571833	0
7	650	2140.048895386162	0
7	653	2141.911911750793	0.551686950965
7	656	2210.154214279609	0
7	659	2241.019584906296	0
7	662	2241.819638950453	0.423233861377
7	665	2267.054868446274	0
7	668	2274.427649329947	0
7	671	2284.76761088438	0
7	674	2288.723565606638	0
7	677	2295.487245002331	0
7	680	2306.122947325467	0
7	683	2308.834582216199	0
7	686	2314.297155354449	3.830535163911
7	689	2329.499659523162	0
7	692	2360.400668791298	0
7	695	2377.123513979487	0
7	698	2378.049773629934	0
7	701	2393.402373879063	0
7	704	2410.142072538127	0
7	707	2434.181104959704	0
7	710	2441.675692195517	0
7	713	2469.541311459648	0
7	716	2478.667487261355	1.951945272692
7	719	2490.4705406061	0
8	3	7.232497072295	2.374855498623
8	6	27.605905324532	0.017048622661
8	9	52.026102149187	4.796963377063
8	12	76.648442232474	4.981797705484
8	15	105.677494130008	5.15110080305
8	18	124.579500233726	1.371331451593
8	21	135.733002428054	0.390496429973
8	24	145.780910457821	5.292179121696
8	27	153.293883344808	2.763924941916
8	30	176.911670808854	2.771361629401
8	33	185.689943507368	2.236573207159
8	36	192.475625016201	1.583208509614
8	41	194.995788527936	1.870350774371
8	42	195.771826322732	0.89726503781
8	47	201.687623868248	1.912829468539
8	50	205.219881180891	3.967695673217
8	51	208.22471506586	3.975210220806
8	56	222.761345923605	0.852729644776
8	57	230.558820813257	7.874833882218
8	62	246.924501095377	7.922765249702
8	63	251.994865953057	9.694789342859
8	66	261.012309403227	2.261238670739
8	69	273.192303279259	8.670970126386
8	72	275.658409796264	0.796705826635
8	75	289.025315174805	7.561668949874
8	78	295.038696729041	1.903438898663
8	81	315.029504964173	1.607562695726
8	86	337.6987676322	14.021869980525
8	89	342.94162735799	11.722386209302
8	90	344.168016515269	3.708201315339
8	93	357.491988363743	8.770799883467
8	96	363.735127368089	0.853607254429
8	101	372.21719065454	2.966955682858
8	102	373.484813489779	3.895980752288
8	105	382.135516809085	0.872139163448
8	108	384.061967767555	1.405124174679
8	111	392.377402499013	2.692045585938
8	114	396.857552401432	1.319824652335
8	117	418.770722040508	5.907004122335
8	120	424.297254231542	3.463134834905
8	123	453.264087122725	0.14899680707
8	126	460.191036503038	1.026309685618
8	133	484.483071504784	5.788899417704
8	136	491.982264172412	13.120354051856
8	141	495.803455145541	13.242836905993
8	142	496.142385626136	10.829549975245
8	143	497.195203223572	3.903487168689
8	144	498.031577454087	4.334932424287
8	147	506.322569576061	1.993133872658
8	150	540.817816980172	5.74022711623
8	155	570.78715067392	5.579000534128
8	156	571.270029846503	5.245881227307
8	159	605.588837541829	2.767614224715
8	162	610.327276423749	2.01881048134
8	165	614.773112733151	0.512883920652
8	168	633.69742852101	6.330330055165
8	171	645.665481145169	2.240291065416
8	174	652.610973632605	1.188965910125
8	177	665.077826943693	0.623277153569
8	182	669.833449002741	1.139283961176
8	185	673.163503278578	3.546589187039
8	186	676.838436893616	5.190911873033
8	189	689.786757860939	2.387195835115
8	192	694.482151091369	0.806776942716
8	195	719.846555171266	0.510322607955
8	198	724.94276054464	1.749556577287
8	207	740.82260439394	8.086716025398
8	210	743.007631660575	6.744570019254
8	213	745.356540504291	6.72630212378
8	214	746.016867026248	6.637491776008
8	215	749.188332967506	7.042971266381
8	218	753.291441242639	8.197808310619
8	221	756.629704429227	6.205716784514
8	222	760.035640716837	5.606902748798
8	225	772.618959887332	5.126867036151
8	230	793.549837938891	1.251564529598
8	231	793.590792408766	1.140465310337
8	234	803.428209683942	1.000726677446
8	239	810.112870528344	5.648562279501
8	240	810.849027394633	5.481409541472
8	243	812.933287397604	1.713170322837
8	246	866.077248279626	3.178464873195
8	249	873.968898618346	1.947143782075
8	256	900.512399339333	5.225086632652
8	257	904.28097764748	7.633256879639
8	258	906.337316210011	8.03635211095
8	261	920.507192885416	5.501334426768
8	264	924.765768991325	0.394202661514
8	267	927.189607634928	0.360586659601
8	272	934.891240150294	6.999220219325
8	273	937.734291807461	8.894482968325
8	276	942.224448793108	0.995593560308
8	279	943.271077886343	0.750609276974
8	282	963.668041149331	0.849220708852
8	285	1011.221668085202	0.121600861735
8	290	1021.005620042472	4.608176765498
8	291	1021.993870506273	1.680925358066
8	294	1029.099633427543	2.160175522898
8	297	1033.11971936122	1.042945673561
8	300	1036.070723274622	1.695612778659
8	303	1041.319974572313	0.429846754283
8	306	1065.246714011769	1.788790150697
8	311	1072.716493906646	3.850793917146
8	314	1076.82100420276	6.999295187522
8	315	1077.503203553674	4.188573526551
8	318	1091.860592205251	1.975045588478
8	321	1103.007929567842	4.694132023594
8	326	1114.081814995433	5.596094648017
8	331	1117.931911514582	4.931847658046
8	334	1119.922056731394	5.698544808059
8	335	1121.198970643446	4.097707464811
8	340	1137.094909242931	18.387667569574
8	341	1137.837322048568	13.298389268964
8	344	1139.100612550877	9.333397441368
8	345	1139.903190699435	0.941320186654
8	348	1144.446865075688	0.113806902719
8	351	1148.677128148173	0.347387231589
8	354	1167.313889822457	2.30623209112
8	359	1183.892027515771	8.434161669734
8	360	1185.584838761859	1.69791532037
8	363	1191.624591504118	2.337292026459
8	366	1213.300258786015	0.74204476262
8	369	1222.778530815797	6.785042157922
8	372	1230.579176127848	1.45605886168
8	375	1247.343165458743	6.529896206601
8	378	1278.202419886947	0.507941036662
8	381	1302.972967988401	0.041192090436
8	384	1327.533027674711	1.43927071743
8	389	1340.847045510282	6.094686091575
8	390	1341.600401430094	6.833335493497
8	393	1346.934576510097	1.076269797361
8	396	1350.859643047216	0.699322783017
8	401	1369.355124819752	8.866589987207
8	404	1373.833558777367	12.473575294001
8	405	1373.882181341142	1.660040270756
8	408	1384.535431945879	1.619949278253
8	411	1399.104853558622	11.225917673267
8	414	1413.465901958053	1.91297345757
8	417	1429.654256444516	5.052465992127
8	420	1435.230194852053	0.776939622653
8	423	1445.708641911348	1.148860483119
8	426	1446.742526737934	0.728923533532
8	429	1453.203133083381	1.063367600099
8	436	1488.190492044901	6.273474748702
8	437	1489.779965738093	7.587669027549
8	438	1493.0953877137	6.633452331965
8	441	1495.179969578537	1.246545934337
8	444	1498.330996330186	2.607492436369
8	447	1510.822920630086	9.017392336628
8	450	1545.169468814567	5.178536942407
8	453	1551.987855568668	1.730965509954
8	456	1553.706293151604	1.174457974149
8	459	1561.487274265191	1.103460661147
8	462	1573.377722354566	0.389448526014
8	465	1610.80362122819	3.520971919941
8	468	1619.785328242602	2.493023492279
8	471	1633.085845481663	0.285651609698
8	474	1634.681386783601	1.185660335111
8	479	1652.085893043478	9.025651440755
8	484	1657.200249514414	7.773218953271
8	485	1662.589584845162	7.772767185661
8	486	1663.733283850367	8.088000574945
8	497	1673.146058666823	3.809603642376
8	498	1673.597457031691	3.948021064412
8	501	1677.4426184656	7.460903837894
8	502	1680.047054409579	8.491233033592
8	503	1680.411377111359	8.655023132995
8	504	1684.058450630408	8.979842129264
8	507	1690.404562863742	1.967144819198
8	510	1693.971498290166	1.545325318422
8	513	1702.199771132949	2.514894019937
8	518	1715.66636439568	4.664820633094
8	519	1716.77379752301	2.240736516972
8	522	1727.733414397835	5.461942249848
8	527	1734.875938358452	4.777726366183
8	528	1736.126766590196	2.21999407202
8	531	1759.259174201543	6.406110729187
8	534	1766.492666356878	3.127043595638
8	537	1771.481032429806	3.650685610019
8	540	1780.886771241144	0.829544492549
8	545	1809.955695814899	9.226010296965
8	546	1812.287339478421	10.289802863566
8	549	1822.858580285151	1.541396900292
8	552	1828.572368825597	2.170969714612
8	555	1831.125650976419	2.209729655151
8	558	1847.818851810223	4.67570490213
8	561	1858.166637925899	4.510390498997
8	564	1867.924116538232	2.672280234781
8	567	1895.165725834726	0.034758231882
8	570	1913.949164306519	2.707585917095
8	573	1925.026278830928	2.48556167484
8	576	1927.637622404773	1.873778142182
8	579	1934.936999948761	2.03757193359
8	588	1956.715386793738	7.371928569843
8	589	1959.841338100791	7.630013164885
8	590	1961.10706250741	8.179519285566
8	591	1967.236896062031	12.715736200713
8	594	1992.522389612157	2.448354323637
8	599	1998.029860952171	2.719210501358
8	600	1999.39993118516	1.572057973403
8	603	2021.418358928597	1.258316207572
8	608	2034.19587026868	2.709052924364
8	609	2035.387386346129	1.204946982495
8	612	2037.778299576431	0.123922516799
8	617	2044.958825068539	4.93863548031
8	622	2050.328856870033	6.490139444081
8	625	2057.404076678255	9.162434409399
8	626	2059.148082213688	10.241608058228
8	627	2062.293620009291	6.034188673247
8	630	2075.271600412149	1.100930809742
8	633	2083.9025662866	0.94411090579
8	636	2098.016223968157	0.797026239878
8	639	2106.793756498483	0.100327658548
8	642	2118.784833481847	1.734415015175
8	645	2120.701762288483	0.151110405568
8	648	2139.490479390799	0.531493818966
8	653	2141.911911750793	1.863016364631
8	654	2144.524168420043	3.163943620215
8	657	2210.707563320232	0.553349040623
8	662	2241.819638950453	0.800054044157
8	663	2249.518674714203	8.122269625127
8	666	2269.157740923672	2.102872477398
8	669	2276.909105656985	2.481456327038
8	672	2284.874615675539	0.107004791159
8	675	2289.243608856304	0.520043249666
8	678	2296.229337357533	0.742092355202
8	681	2307.458163709373	1.335216383906
8	686	2314.297155354449	5.46257313825
8	687	2314.440780241606	3.974160051068
8	690	2331.788199207539	2.288539684377
8	693	2361.926965342847	1.526296551549
8	696	2377.462590927223	0.339076947736
8	699	2386.545938293205	8.496164663271
8	702	2394.480046415059	1.077672535996
8	705	2414.442684811901	4.300612273774
8	708	2434.184399601608	0.003294641904
8	711	2443.177457297664	1.501765102147
8	716	2478.667487261355	9.126175801707
8	717	2483.292930972411	6.577388983748
8	720	2492.47920832903	2.00866772293
9	721	2500	0
10	721	2500	0.096

