file 43567 1671551092                                           
version 2
run warm_up_time-27-20221220-16:44:52-17965
attr configname warm_up_time
attr datetime 20221220-16:44:52
attr experiment warm_up_time
attr inifile omnetpp.ini
attr iterationvars ""
attr iterationvarsf ""
attr measurement ""
attr network Network
attr processid 17965
attr repetition 27
attr replication #27
attr resultdir results
attr runnumber 27
attr seedset 27
param **.minion.arrival_distribution 0
param **.minion.service_distribution 0
param **.boss.arrival_distribution 0
param **.boss.service_distribution 0
param *.minion.arrival_mean 0
param *.minion.service_mean 0
param *.boss.arrival_mean 10
param *.boss.service_mean 3

vector 0 Network.player minion_jobs_number_stat:vector ETV
attr source signal_minion_jobs_number
vector 1 Network.player minion_jobs_queue_number_stat:vector ETV
attr source signal_minion_jobs_queue_number
vector 2 Network.player minion_recovered_stat:vector ETV
attr source signal_minion_recovered
vector 3 Network.player minion_defeated_stat:vector ETV
attr source signal_minion_defeated
vector 4 Network.player boss_jobs_number_stat:vector ETV
attr source signal_boss_jobs_number
vector 5 Network.player boss_jobs_queue_number_stat:vector ETV
attr source signal_boss_jobs_queue_number
vector 6 Network.player boss_defeated_stat:vector ETV
attr source signal_boss_defeated
vector 7 Network.player boss_waiting_time_stat:vector ETV
attr source signal_boss_waiting_time
vector 8 Network.player boss_response_time_stat:vector ETV
attr source signal_boss_response_time
vector 9 Network.player minion_throughput:vector ETV
attr source signal_minion_throughput
vector 10 Network.player boss_throughput:vector ETV
attr source signal_boss_throughput
0	1687 8 0 0 0 0 1 0 0 0 0
1	1695 8 0 0 0 0 1 0 0 0 0
2	1703 8 0 0 0 0 1 0 0 0 0
3	1711 8 0 0 0 0 1 0 0 0 0
4	1719 6234 0 737 0 2495.688613641655 247 0 5 344 618
5	7953 12441 0 737 0 2495.688613641655 492 0 4 196 352
6	20394 6597 0 735 0 2482.806269104206 246 0 245 30135 4932095
7	26991 7154 2 737 1.23364798028 2495.688613641655 246 0 17.771008948036 306.39500915252 2247.8679676321
8	34145 9390 3 735 4.075213906911 2482.806269104206 245 0.015136381584 20.126903751838 1050.1566765369 8562.1229229844
9	43535 13 738 738 2500 2500 1 0 0 0 0
10	43548 18 738 738 2500 2500 1 0.098 0.098 0.098 0.009604

