file 63628 1678273533                                           
version 2
run experiments_easy_game_mode1-1030-20230308-12:05:33-23931
attr configname experiments_easy_game_mode1
attr datetime 20230308-12:05:33
attr experiment experiments_easy_game_mode1
attr inifile omnetpp.ini
attr iterationvars "$0=6, $1=3.5, $2=0"
attr iterationvarsf 6,3.5,0-
attr measurement "$0=6, $1=3.5, $2=0"
attr network Network
attr processid 23931
attr repetition 10
attr replication #10
attr resultdir results
attr runnumber 1030
attr seedset 10
param *.boss.arrival_mean 20
param *.boss.service_mean 6
param *.minion.arrival_mean 10
param *.minion.service_mean 3.5
param *.player.recover_rate_x 0
param **.minion.arrival_distribution 0
param **.minion.service_distribution 0
param **.boss.arrival_distribution 0
param **.boss.service_distribution 0

vector 0 Network.player boss_defeated_stat:vector ETV
attr source signal_boss_defeated
vector 1 Network.player boss_jobs_queue_number_stat:vector ETV
attr source signal_boss_jobs_queue_number
vector 2 Network.player boss_response_time_stat:vector ETV
attr source signal_boss_response_time
vector 3 Network.player boss_waiting_time_stat:vector ETV
attr source signal_boss_waiting_time
vector 4 Network.player minion_waiting_time_stat:vector ETV
attr source signal_minion_waiting_time
vector 5 Network.player minion_defeated_stat:vector ETV
attr source signal_minion_defeated
vector 6 Network.player minion_jobs_queue_number_stat:vector ETV
attr source signal_minion_jobs_queue_number
vector 7 Network.player minion_response_time_stat:vector ETV
attr source signal_minion_response_time
vector 8 Network.player minion_jobs_number_stat:vector ETV
attr source signal_minion_jobs_number
vector 9 Network.player boss_jobs_number_stat:vector ETV
attr source signal_boss_jobs_number
vector 10 Network.player minion_recovered_stat:vector ETV
attr source signal_minion_recovered
vector 11 Network.player minion_throughput:vector ETV
attr source signal_minion_throughput
vector 12 Network.player boss_throughput:vector ETV
attr source signal_boss_throughput
0	2015 2888 172 1150 352.921495427544 2448.937666602595 107 21 127 7918 688010
1	4903 5455 172 1150 352.921495427544 2448.937666602595 212 0 4 119 251
2	10358 4176 172 1150 352.921495427544 2448.937666602595 107 0.002170164006 50.462405710757 1138.9484165136 24423.858027009
3	14534 3248 172 1149 352.921495427544 2446.879911890008 106 0 41.731180096826 445.33596415692 9973.4633987875
4	17782 9204 173 1172 353.878057032297 2487.898238471302 264 0 106.3966755009 3898.0767141241 167541.13596189
5	26986 6294 174 1173 354.376514209534 2494.491937589421 229 36 264 34350 6153230
6	33280 11782 174 1173 354.376514209534 2494.491937589421 457 0 11 892 4400
7	45062 8972 174 1173 354.376514209534 2494.491937589421 229 0.195007063621 107.19388846021 4067.7903489113 175584.89301644
8	54034 5882 176 1172 367.376450425266 2487.898238471302 228 1 12 674 3320
9	59916 2702 199 1149 419.824288542282 2446.879911890008 105 1 5 164 348
10	62618 969 199 1149 419.824288542282 2446.879911890008 35 3 37 700 17570
11	63587 20 1174 1174 2500 2500 1 0.1056 0.1056 0.1056 0.01115136
12	63607 20 1174 1174 2500 2500 1 0.0508 0.0508 0.0508 0.00258064

