file 57550 1678273421                                           
version 2
run experiments_easy_game_mode1-510-20230308-12:03:41-20959
attr configname experiments_easy_game_mode1
attr datetime 20230308-12:03:41
attr experiment experiments_easy_game_mode1
attr inifile omnetpp.ini
attr iterationvars "$0=5.5, $1=2, $2=100"
attr iterationvarsf 5.5,2,100-
attr measurement "$0=5.5, $1=2, $2=100"
attr network Network
attr processid 20959
attr repetition 0
attr replication #0
attr resultdir results
attr runnumber 510
attr seedset 0
param *.boss.arrival_mean 20
param *.boss.service_mean 5.5
param *.minion.arrival_mean 10
param *.minion.service_mean 2
param *.player.recover_rate_x 100
param **.minion.arrival_distribution 0
param **.minion.service_distribution 0
param **.boss.arrival_distribution 0
param **.boss.service_distribution 0

vector 0 Network.player boss_defeated_stat:vector ETV
attr source signal_boss_defeated
vector 1 Network.player boss_jobs_queue_number_stat:vector ETV
attr source signal_boss_jobs_queue_number
vector 2 Network.player boss_response_time_stat:vector ETV
attr source signal_boss_response_time
vector 3 Network.player minion_jobs_number_stat:vector ETV
attr source signal_minion_jobs_number
vector 4 Network.player minion_jobs_queue_number_stat:vector ETV
attr source signal_minion_jobs_queue_number
vector 5 Network.player minion_waiting_time_stat:vector ETV
attr source signal_minion_waiting_time
vector 6 Network.player minion_defeated_stat:vector ETV
attr source signal_minion_defeated
vector 7 Network.player minion_response_time_stat:vector ETV
attr source signal_minion_response_time
vector 8 Network.player boss_jobs_number_stat:vector ETV
attr source signal_boss_jobs_number
vector 9 Network.player boss_waiting_time_stat:vector ETV
attr source signal_boss_waiting_time
vector 10 Network.player minion_recovered_stat:vector ETV
attr source signal_minion_recovered
vector 11 Network.player minion_throughput:vector ETV
attr source signal_minion_throughput
vector 12 Network.player boss_throughput:vector ETV
attr source signal_boss_throughput
0	2018 2842 168 1100 350.858341556962 2485.460370158308 106 22 127 7897 687569
1	4860 5388 168 1100 350.858341556962 2485.460370158308 211 0 2 48 56
2	10248 4092 168 1100 350.858341556962 2485.460370158308 106 0.133507717401 20.512310300975 579.92873475498 4868.5614580232
3	14340 5310 170 1103 356.599406890352 2491.497376120721 207 1 7 326 746
4	19650 10633 170 1104 356.599406890352 2491.537536921849 414 0 6 238 602
5	30283 7304 170 1103 356.599406890352 2491.497376120721 228 0 54.559760186508 935.73090123566 18883.642109662
6	37587 5672 171 1104 358.235421513112 2491.537536921849 207 35 241 28566 4681236
7	43259 8033 171 1104 358.235421513112 2491.537536921849 207 0.005748904096 57.7588248356 1210.6452355558 21315.977106608
8	51292 2680 173 1098 365.058342191057 2480.218280446483 105 1 3 129 181
9	53972 2969 173 1099 365.058342191057 2480.782682683224 105 0 11.477656505635 73.282172572516 502.08618097086
10	56941 568 190 1057 404.73333087535 2367.279148164219 21 1 21 231 3311
11	57509 20 1105 1105 2500 2500 1 0.0964 0.0964 0.0964 0.00929296
12	57529 20 1105 1105 2500 2500 1 0.0508 0.0508 0.0508 0.00258064

