file 62132 1678273320                                           
version 2
run experiments_easy_game_mode1-27-20230308-12:02:00-18525
attr configname experiments_easy_game_mode1
attr datetime 20230308-12:02:00
attr experiment experiments_easy_game_mode1
attr inifile omnetpp.ini
attr iterationvars "$0=5, $1=1, $2=0"
attr iterationvarsf 5,1,0-
attr measurement "$0=5, $1=1, $2=0"
attr network Network
attr processid 18525
attr repetition 27
attr replication #27
attr resultdir results
attr runnumber 27
attr seedset 27
param *.boss.arrival_mean 20
param *.boss.service_mean 5
param *.minion.arrival_mean 10
param *.minion.service_mean 1
param *.player.recover_rate_x 0
param **.minion.arrival_distribution 0
param **.minion.service_distribution 0
param **.boss.arrival_distribution 0
param **.boss.service_distribution 0

vector 0 Network.player boss_jobs_number_stat:vector ETV
attr source signal_boss_jobs_number
vector 1 Network.player boss_jobs_queue_number_stat:vector ETV
attr source signal_boss_jobs_queue_number
vector 2 Network.player boss_waiting_time_stat:vector ETV
attr source signal_boss_waiting_time
vector 3 Network.player boss_defeated_stat:vector ETV
attr source signal_boss_defeated
vector 4 Network.player boss_response_time_stat:vector ETV
attr source signal_boss_response_time
vector 5 Network.player minion_jobs_number_stat:vector ETV
attr source signal_minion_jobs_number
vector 6 Network.player minion_jobs_queue_number_stat:vector ETV
attr source signal_minion_jobs_queue_number
vector 7 Network.player minion_waiting_time_stat:vector ETV
attr source signal_minion_waiting_time
vector 8 Network.player minion_defeated_stat:vector ETV
attr source signal_minion_defeated
vector 9 Network.player minion_response_time_stat:vector ETV
attr source signal_minion_response_time
vector 10 Network.player minion_recovered_stat:vector ETV
attr source signal_minion_recovered
vector 11 Network.player minion_throughput:vector ETV
attr source signal_minion_throughput
vector 12 Network.player boss_throughput:vector ETV
attr source signal_boss_throughput
0	2003 2813 152 1160 368.831334544424 2480.169364514395 110 1 5 157 293
1	4816 5634 152 1163 368.831334544424 2481.153247036408 220 0 4 94 178
2	10450 3229 152 1160 368.831334544424 2480.169364514395 110 0 28.25705128991 221.6596771232 2610.1659840239
3	13679 2955 153 1163 374.074220891487 2481.153247036408 110 14 123 7535 627055
4	16634 4253 153 1163 374.074220891487 2481.153247036408 110 0.03850102059 32.657988471258 793.02273494438 11008.436608747
5	20887 5931 161 1169 397.949897162909 2495.328009140238 230 1 8 374 990
6	26818 11852 161 1170 397.949897162909 2496.464746969334 460 0 7 288 944
7	38670 7783 161 1169 397.949897162909 2495.328009140238 245 0 50.423919772319 936.01201386082 20337.264171664
8	46453 6319 162 1170 398.517503839172 2496.464746969334 230 38 267 35075 6362835
9	52772 8915 162 1170 398.517503839172 2496.464746969334 230 0.014974094192 50.607303807663 1150.0470966209 22312.198545281
10	61687 404 175 1123 426.413797271532 2358.900332232856 15 3 17 150 1780
11	62091 20 1171 1171 2500 2500 1 0.1068 0.1068 0.1068 0.01140624
12	62111 20 1171 1171 2500 2500 1 0.0492 0.0492 0.0492 0.00242064

