version 2
run experiments_easy_game_mode1-2156-20230308-12:09:16-29570
attr configname experiments_easy_game_mode1
attr datetime 20230308-12:09:16
attr experiment experiments_easy_game_mode1
attr inifile omnetpp.ini
attr iterationvars "$0=7.5, $1=3.5, $2=100"
attr iterationvarsf 7.5,3.5,100-
attr measurement "$0=7.5, $1=3.5, $2=100"
attr network Network
attr processid 29570
attr repetition 26
attr replication #26
attr resultdir results
attr runnumber 2156
attr seedset 26
param *.boss.arrival_mean 20
param *.boss.service_mean 7.5
param *.minion.arrival_mean 10
param *.minion.service_mean 3.5
param *.player.recover_rate_x 100
param **.minion.arrival_distribution 0
param **.minion.service_distribution 0
param **.boss.arrival_distribution 0
param **.boss.service_distribution 0

vector 0 Network.player minion_jobs_number_stat:vector ETV
attr source signal_minion_jobs_number
vector 1 Network.player minion_jobs_queue_number_stat:vector ETV
attr source signal_minion_jobs_queue_number
vector 2 Network.player minion_waiting_time_stat:vector ETV
attr source signal_minion_waiting_time
vector 3 Network.player minion_defeated_stat:vector ETV
attr source signal_minion_defeated
vector 4 Network.player minion_response_time_stat:vector ETV
attr source signal_minion_response_time
vector 5 Network.player boss_jobs_number_stat:vector ETV
attr source signal_boss_jobs_number
vector 6 Network.player boss_jobs_queue_number_stat:vector ETV
attr source signal_boss_jobs_queue_number
vector 7 Network.player boss_waiting_time_stat:vector ETV
attr source signal_boss_waiting_time
vector 8 Network.player boss_defeated_stat:vector ETV
attr source signal_boss_defeated
vector 9 Network.player boss_response_time_stat:vector ETV
attr source signal_boss_response_time
vector 10 Network.player minion_recovered_stat:vector ETV
attr source signal_minion_recovered
vector 11 Network.player minion_throughput:vector ETV
attr source signal_minion_throughput
vector 12 Network.player boss_throughput:vector ETV
attr source signal_boss_throughput
0	131	353.474320604805	1
0	137	362.221650059944	1
0	140	388.918922681755	1
0	142	391.684997140054	2
0	145	393.513447054423	2
0	148	396.818932124983	2
0	152	411.073237962121	1
0	155	418.275100492741	1
0	157	419.589888907062	2
0	159	420.361511980791	3
0	162	431.413467444418	3
0	166	433.346302192891	2
0	174	445.432556060841	2
0	177	446.898056891252	3
0	182	457.624761079718	1
0	185	462.992411790454	1
0	191	477.732048514976	1
0	194	479.565660162456	1
0	200	506.907177080105	1
0	202	508.184710933496	2
0	204	513.794651262729	3
0	207	522.6230811356	3
0	209	525.703729907631	4
0	211	526.760700204932	5
0	214	529.153394214765	5
0	220	536.576731663828	5
0	225	538.986210414381	5
0	227	542.139596743865	6
0	231	549.542459884891	6
0	234	551.855074966976	6
0	238	552.96415021486	5
0	240	555.292798021475	6
0	243	555.530199892277	6
0	245	557.386578317167	7
0	248	558.581549090794	7
0	251	564.674090514164	7
0	253	566.996941240385	8
0	255	567.198732359307	9
0	257	567.806075160641	10
0	270	599.368227092208	5
0	276	609.617173713877	5
0	278	618.765200043476	6
0	280	628.111450699737	7
0	288	643.978860644792	8
0	300	670.76103880654	3
0	302	673.781192419499	4
0	305	677.024116712335	4
0	310	680.55874114572	4
0	315	690.106648260074	5
0	317	695.833009998525	6
0	320	706.460375203675	7
0	324	710.189187192976	6
0	327	714.031277994825	6
0	338	746.56073465194	1
0	340	747.335346081218	2
0	344	752.507465201618	1
0	347	764.711850508577	1
0	356	779.392366829766	1
0	367	798.727175529999	1
0	375	805.745986193468	2
0	378	809.376814129608	3
0	380	814.345620529679	4
0	382	816.943428381458	5
0	385	820.20186011876	6
0	387	823.652287563037	7
0	389	823.852341833642	8
0	392	838.965598310374	9
0	399	849.665848546355	8
0	401	855.20014544701	9
0	414	874.938272861615	5
0	416	875.642170742283	6
0	418	878.916392601563	7
0	420	880.194743129377	8
0	428	908.302664689417	6
0	430	912.880118731235	7
0	432	914.154013521909	8
0	434	918.221453502094	9
0	436	920.466740367527	10
0	439	921.269617257342	11
0	445	928.270388860147	8
0	451	940.769429665337	5
0	455	946.937388544451	4
0	458	948.378059082212	4
0	464	961.276425471982	1
0	467	968.857171976466	1
0	473	985.637922849169	1
0	478	990.293399767415	2
0	481	994.830844296818	2
0	487	1006.809630873742	1
0	489	1008.576925158246	2
0	497	1025.702611347249	1
0	499	1025.859092540039	2
0	503	1032.037129145877	3
0	509	1039.660424487586	4
0	512	1044.334527619919	4
0	523	1069.794077147459	1
0	527	1092.429440543177	1
0	529	1099.606014265835	2
0	531	1106.988560342246	3
0	533	1108.012979850404	4
0	544	1136.140998633732	5
0	552	1157.550368266195	5
0	554	1157.611214525958	6
0	558	1162.88480480778	6
0	561	1166.784023230992	6
0	572	1201.198363559256	1
0	575	1233.994475151404	1
0	577	1234.638255782988	2
0	581	1245.207501304281	1
0	584	1252.287471471351	1
0	586	1252.958309372731	2
0	590	1255.544300550687	1
0	592	1257.702205050436	2
0	596	1273.575107147716	1
0	599	1282.000157476293	1
0	605	1308.042757533478	1
0	608	1322.442427890273	1
0	611	1354.450041299215	1
0	614	1359.808667138904	1
0	617	1365.567060418044	1
0	620	1379.527834508314	1
0	623	1388.343387569061	1
0	625	1391.530722183322	2
0	628	1395.987648763864	2
0	635	1405.73259010185	3
0	638	1407.59546398581	4
0	641	1421.052419772988	4
0	652	1465.665298626496	5
0	660	1483.14063802135	6
0	664	1486.981162243963	7
0	667	1490.211591955959	8
0	669	1492.475700231023	9
0	672	1493.600893495466	10
0	674	1496.620248682547	11
0	676	1499.251009617682	12
0	678	1501.190745310615	13
0	682	1503.555027487292	14
0	684	1503.84271439289	15
0	686	1507.41017972299	16
0	692	1530.291608934717	17
0	694	1530.384925280363	18
0	699	1537.457528739665	19
0	705	1553.162040759077	20
0	711	1570.137080280809	21
0	713	1573.274776966163	22
0	715	1580.777479436213	23
0	731	1617.45004086707	24
0	733	1618.19945656825	25
0	739	1639.564752723533	26
0	749	1659.579680344184	22
0	751	1661.084268464403	23
0	753	1661.820909129658	24
0	755	1664.226597667918	25
0	757	1670.65600116995	26
0	767	1692.733021911401	22
0	769	1693.122160938568	23
0	772	1696.792034829513	23
0	774	1706.576033597084	24
0	792	1737.584751462818	15
0	804	1762.88645240741	14
0	806	1764.52628129551	15
0	808	1771.345773685681	16
0	813	1782.840199138905	17
0	815	1787.099373712175	18
0	817	1790.474069399335	19
0	821	1798.639424257225	20
0	826	1811.071683779677	21
0	828	1815.698051184562	22
0	831	1818.193629922128	23
0	834	1819.927956121786	24
0	843	1841.53335381805	20
0	845	1848.825722193123	21
0	847	1851.803641447519	22
0	851	1871.596090993364	22
0	853	1873.039811236144	23
0	856	1888.636690117927	23
0	858	1889.72021430197	24
0	868	1908.068432641432	23
0	872	1917.112298752113	24
0	882	1928.548868381647	25
0	884	1943.202172054068	26
0	886	1943.853450068646	27
0	889	1947.491857768771	28
0	891	1952.257540051665	29
0	893	1953.894543985779	30
0	901	1967.391884018465	28
0	903	1968.953078841886	29
0	907	1975.753052079742	30
0	911	1980.675212583733	31
0	913	1984.434920620764	32
0	915	1988.17588147654	33
0	921	1997.039189549181	34
0	925	2006.675050578551	35
0	928	2013.603734137001	36
0	930	2013.712213650688	37
0	934	2016.571851117598	38
0	936	2017.433573627472	39
0	938	2021.377678270243	40
0	945	2031.751956071526	41
0	951	2052.242150349561	39
0	956	2060.513224836688	39
0	958	2061.071047269637	40
0	961	2085.179997703273	41
0	964	2087.200259857916	41
0	979	2124.846046838009	34
0	991	2147.294971925394	29
0	1000	2181.080498134622	29
0	1002	2182.839138302258	30
0	1007	2191.644797750578	28
0	1019	2213.834378504324	22
0	1022	2216.879486632086	22
0	1028	2221.076484284912	21
0	1031	2225.648999783634	22
0	1036	2236.923596929798	20
0	1039	2243.644770406919	20
0	1046	2265.943846688117	16
0	1052	2278.84125004028	15
0	1072	2325.20156429716	8
0	1077	2335.233532933645	6
0	1083	2345.440787043552	3
0	1091	2357.58083537246	1
0	1094	2362.672863402485	1
0	1097	2380.495826501538	1
0	1100	2387.22080609807	1
0	1103	2408.542308582601	1
0	1106	2410.226325649505	1
0	1112	2413.640233561452	1
0	1115	2421.961824707125	1
0	1118	2439.826725366544	1
0	1121	2448.966925486014	1
0	1126	2457.299839417518	1
0	1128	2461.289238194113	2
0	1135	2473.170198392813	3
0	1138	2481.059061575314	4
1	131	353.474320604805	0
1	132	359.452794290623	0
1	137	362.221650059944	0
1	138	363.419367981083	0
1	140	388.918922681755	0
1	142	391.684997140054	1
1	143	392.976877453988	1
1	145	393.513447054423	1
1	146	396.036615784813	1
1	148	396.818932124983	1
1	149	399.525659194693	1
1	150	402.388188681312	0
1	152	411.073237962121	0
1	153	412.692524576955	0
1	155	418.275100492741	0
1	157	419.589888907062	1
1	159	420.361511980791	2
1	160	429.746846465361	2
1	162	431.413467444418	2
1	163	432.435212739412	2
1	164	433.249877128312	1
1	166	433.346302192891	1
1	167	433.915389739673	1
1	174	445.432556060841	1
1	177	446.898056891252	2
1	178	449.159413247634	2
1	179	449.794477848439	1
1	180	454.696496240932	0
1	182	457.624761079718	0
1	183	458.034476169766	0
1	185	462.992411790454	0
1	186	466.172546492108	0
1	191	477.732048514976	0
1	192	479.112122724945	0
1	194	479.565660162456	0
1	195	480.644432253491	0
1	200	506.907177080105	0
1	202	508.184710933496	1
1	204	513.794651262729	2
1	205	514.876866440289	2
1	207	522.6230811356	2
1	209	525.703729907631	3
1	211	526.760700204932	4
1	212	528.521168262267	4
1	214	529.153394214765	4
1	215	531.303809918862	4
1	220	536.576731663828	4
1	221	536.766883556126	4
1	225	538.986210414381	4
1	227	542.139596743865	5
1	229	547.864461843578	5
1	231	549.542459884891	5
1	232	551.59088512235	5
1	234	551.855074966976	5
1	235	551.868540976968	5
1	236	552.232952356033	4
1	238	552.96415021486	4
1	240	555.292798021475	5
1	241	555.344409914996	5
1	243	555.530199892277	5
1	245	557.386578317167	6
1	246	557.401278789049	6
1	248	558.581549090794	6
1	249	562.950801251007	6
1	251	564.674090514164	6
1	253	566.996941240385	7
1	255	567.198732359307	8
1	257	567.806075160641	9
1	258	571.605544966645	9
1	259	573.902183926214	8
1	263	586.758054239764	7
1	264	587.765960034388	6
1	265	590.887526628879	5
1	266	594.44244623954	4
1	270	599.368227092208	4
1	272	605.764573190242	4
1	276	609.617173713877	4
1	278	618.765200043476	5
1	280	628.111450699737	6
1	288	643.978860644792	7
1	293	654.187814450209	7
1	294	658.032755489168	6
1	295	658.175561750471	5
1	296	660.681050800185	4
1	297	667.367152754578	3
1	298	667.647696107919	2
1	300	670.76103880654	2
1	302	673.781192419499	3
1	303	674.252985837118	3
1	305	677.024116712335	3
1	306	678.820525103682	3
1	310	680.55874114572	3
1	315	690.106648260074	4
1	317	695.833009998525	5
1	320	706.460375203675	6
1	321	708.858147777668	6
1	322	709.523914495109	5
1	324	710.189187192976	5
1	325	711.899772697093	5
1	327	714.031277994825	5
1	328	714.175180732268	5
1	329	718.11696846923	4
1	330	722.92442494826	3
1	334	731.961898409684	2
1	335	734.645578521912	1
1	336	737.534511204175	0
1	338	746.56073465194	0
1	340	747.335346081218	1
1	341	748.657817278654	1
1	342	749.370458060067	0
1	344	752.507465201618	0
1	345	762.229086775396	0
1	347	764.711850508577	0
1	348	765.047170948719	0
1	356	779.392366829766	0
1	357	779.835812601885	0
1	367	798.727175529999	0
1	375	805.745986193468	1
1	378	809.376814129608	2
1	380	814.345620529679	3
1	382	816.943428381458	4
1	385	820.20186011876	5
1	387	823.652287563037	6
1	389	823.852341833642	7
1	392	838.965598310374	8
1	394	846.29676516048	8
1	395	846.973536525292	7
1	399	849.665848546355	7
1	401	855.20014544701	8
1	403	861.607243778729	8
1	404	862.205918898042	7
1	408	868.580464776735	6
1	409	871.225722828108	5
1	410	871.563264778205	4
1	414	874.938272861615	4
1	416	875.642170742283	5
1	418	878.916392601563	6
1	420	880.194743129377	7
1	422	882.861111005586	7
1	423	893.242264253487	6
1	424	896.712815379929	5
1	428	908.302664689417	5
1	430	912.880118731235	6
1	432	914.154013521909	7
1	434	918.221453502094	8
1	436	920.466740367527	9
1	439	921.269617257342	10
1	440	922.287669053331	10
1	441	922.640040143763	9
1	442	925.768483290246	8
1	443	927.732274022279	7
1	445	928.270388860147	7
1	446	928.270669510518	7
1	447	931.119636961353	6
1	448	934.57125375679	5
1	449	937.048834558791	4
1	451	940.769429665337	4
1	452	942.198962144778	4
1	453	945.866797575342	3
1	455	946.937388544451	3
1	456	948.110383287976	3
1	458	948.378059082212	3
1	459	950.398420615828	3
1	460	951.546612075142	2
1	461	957.143778446554	1
1	462	958.14319774537	0
1	464	961.276425471982	0
1	465	964.054477817415	0
1	467	968.857171976466	0
1	468	969.217219017198	0
1	473	985.637922849169	0
1	478	990.293399767415	1
1	479	990.437855143096	1
1	481	994.830844296818	1
1	482	995.354260837079	1
1	483	995.701181684099	0
1	487	1006.809630873742	0
1	489	1008.576925158246	1
1	494	1022.344481876146	1
1	495	1022.607975509937	0
1	497	1025.702611347249	0
1	499	1025.859092540039	1
1	503	1032.037129145877	2
1	509	1039.660424487586	3
1	510	1044.026856843447	3
1	512	1044.334527619919	3
1	513	1045.310819708316	3
1	517	1055.642732560258	2
1	518	1059.021414534827	1
1	519	1066.760329758351	0
1	523	1069.794077147459	0
1	525	1074.033680485145	0
1	527	1092.429440543177	0
1	529	1099.606014265835	1
1	531	1106.988560342246	2
1	533	1108.012979850404	3
1	544	1136.140998633732	4
1	548	1155.615756991726	4
1	552	1157.550368266195	4
1	554	1157.611214525958	5
1	556	1161.400100475273	5
1	558	1162.88480480778	5
1	559	1164.107083617771	5
1	561	1166.784023230992	5
1	562	1167.146582073534	5
1	563	1172.747720731159	4
1	564	1178.118581934368	3
1	568	1185.743164079576	2
1	569	1185.812443663529	1
1	570	1186.776644937074	0
1	572	1201.198363559256	0
1	573	1201.805832253214	0
1	575	1233.994475151404	0
1	577	1234.638255782988	1
1	578	1239.904612375816	1
1	579	1239.921154993127	0
1	581	1245.207501304281	0
1	582	1245.560731049291	0
1	584	1252.287471471351	0
1	586	1252.958309372731	1
1	587	1254.526094202759	1
1	588	1254.891641290265	0
1	590	1255.544300550687	0
1	592	1257.702205050436	1
1	593	1259.610923409563	1
1	594	1260.538038460616	0
1	596	1273.575107147716	0
1	597	1275.055045942672	0
1	599	1282.000157476293	0
1	600	1283.63302890392	0
1	605	1308.042757533478	0
1	606	1313.886136088481	0
1	608	1322.442427890273	0
1	609	1322.830124282911	0
1	611	1354.450041299215	0
1	612	1357.005350765718	0
1	614	1359.808667138904	0
1	615	1363.220323912895	0
1	617	1365.567060418044	0
1	618	1366.875710084424	0
1	620	1379.527834508314	0
1	621	1380.990946768056	0
1	623	1388.343387569061	0
1	625	1391.530722183322	1
1	626	1395.704690041638	1
1	628	1395.987648763864	1
1	635	1405.73259010185	2
1	638	1407.59546398581	3
1	639	1420.311505124455	3
1	641	1421.052419772988	3
1	652	1465.665298626496	4
1	660	1483.14063802135	5
1	664	1486.981162243963	6
1	667	1490.211591955959	7
1	669	1492.475700231023	8
1	672	1493.600893495466	9
1	674	1496.620248682547	10
1	676	1499.251009617682	11
1	678	1501.190745310615	12
1	682	1503.555027487292	13
1	684	1503.84271439289	14
1	686	1507.41017972299	15
1	692	1530.291608934717	16
1	694	1530.384925280363	17
1	699	1537.457528739665	18
1	705	1553.162040759077	19
1	711	1570.137080280809	20
1	713	1573.274776966163	21
1	715	1580.777479436213	22
1	731	1617.45004086707	23
1	733	1618.19945656825	24
1	739	1639.564752723533	25
1	740	1639.580027874709	25
1	744	1654.997093315568	24
1	745	1655.284044241396	23
1	746	1658.187542528873	22
1	747	1659.515098173243	21
1	749	1659.579680344184	21
1	751	1661.084268464403	22
1	753	1661.820909129658	23
1	755	1664.226597667918	24
1	757	1670.65600116995	25
1	761	1678.891719652438	25
1	762	1679.00136994506	24
1	763	1681.786482202271	23
1	764	1689.319628277544	22
1	765	1691.561645644465	21
1	767	1692.733021911401	21
1	769	1693.122160938568	22
1	770	1696.027804319765	22
1	772	1696.792034829513	22
1	774	1706.576033597084	23
1	775	1706.793765211764	23
1	776	1708.848619404263	22
1	777	1711.124973644218	21
1	778	1711.191252922563	20
1	779	1712.41434258917	19
1	780	1718.00444604082	18
1	781	1721.352799991403	17
1	782	1721.381653628189	16
1	783	1723.919828745369	15
1	790	1736.858941581085	14
1	792	1737.584751462818	14
1	793	1739.699842664651	14
1	794	1742.47580698866	13
1	804	1762.88645240741	13
1	806	1764.52628129551	14
1	808	1771.345773685681	15
1	813	1782.840199138905	16
1	815	1787.099373712175	17
1	817	1790.474069399335	18
1	821	1798.639424257225	19
1	826	1811.071683779677	20
1	828	1815.698051184562	21
1	831	1818.193629922128	22
1	834	1819.927956121786	23
1	835	1825.491544980019	23
1	836	1827.676316917304	22
1	837	1835.289611539383	21
1	838	1836.229889388017	20
1	839	1836.388602159881	19
1	843	1841.53335381805	19
1	845	1848.825722193123	20
1	847	1851.803641447519	21
1	849	1870.400785073567	21
1	851	1871.596090993364	21
1	853	1873.039811236144	22
1	854	1887.779232557291	22
1	856	1888.636690117927	22
1	858	1889.72021430197	23
1	859	1890.045621973656	23
1	860	1892.309683696402	22
1	868	1908.068432641432	22
1	872	1917.112298752113	23
1	882	1928.548868381647	24
1	884	1943.202172054068	25
1	886	1943.853450068646	26
1	889	1947.491857768771	27
1	891	1952.257540051665	28
1	893	1953.894543985779	29
1	895	1960.64589908184	29
1	896	1962.254995341834	28
1	897	1964.508284198638	27
1	901	1967.391884018465	27
1	903	1968.953078841886	28
1	907	1975.753052079742	29
1	911	1980.675212583733	30
1	913	1984.434920620764	31
1	915	1988.17588147654	32
1	921	1997.039189549181	33
1	925	2006.675050578551	34
1	928	2013.603734137001	35
1	930	2013.712213650688	36
1	934	2016.571851117598	37
1	936	2017.433573627472	38
1	938	2021.377678270243	39
1	945	2031.751956071526	40
1	947	2044.352958349648	40
1	948	2049.998699778945	39
1	949	2050.217217183264	38
1	951	2052.242150349561	38
1	952	2056.573023034611	38
1	956	2060.513224836688	38
1	958	2061.071047269637	39
1	961	2085.179997703273	40
1	962	2087.163351085942	40
1	964	2087.200259857916	40
1	965	2090.335786140306	40
1	966	2090.499734688283	39
1	967	2093.271908179573	38
1	968	2096.515985915467	37
1	969	2098.490216712307	36
1	970	2101.702812591628	35
1	971	2110.55014680598	34
1	972	2115.516200111771	33
1	979	2124.846046838009	33
1	984	2132.487425586662	33
1	985	2134.483550109039	32
1	986	2139.784033559473	31
1	987	2140.214534854034	30
1	988	2143.512778791814	29
1	989	2144.255931338569	28
1	991	2147.294971925394	28
1	998	2178.516863114544	28
1	1000	2181.080498134622	28
1	1002	2182.839138302258	29
1	1003	2188.333478193056	29
1	1004	2188.624705523539	28
1	1005	2191.164153676447	27
1	1007	2191.644797750578	27
1	1011	2199.409995030305	27
1	1012	2199.81648420086	26
1	1013	2201.354258239956	25
1	1014	2203.082225759298	24
1	1015	2203.356632459419	23
1	1016	2204.856867215602	22
1	1017	2210.989049469795	21
1	1019	2213.834378504324	21
1	1020	2216.144143180358	21
1	1022	2216.879486632086	21
1	1023	2218.810402527919	21
1	1024	2219.853912317531	20
1	1028	2221.076484284912	20
1	1031	2225.648999783634	21
1	1032	2225.651749494159	21
1	1033	2227.249333263264	20
1	1034	2236.578840909162	19
1	1036	2236.923596929798	19
1	1037	2241.613772218103	19
1	1039	2243.644770406919	19
1	1040	2246.41868676723	19
1	1041	2248.085556333163	18
1	1042	2248.561287558683	17
1	1043	2249.242574794978	16
1	1044	2261.024756339547	15
1	1046	2265.943846688117	15
1	1047	2269.532802852242	15
1	1048	2270.445954178927	14
1	1052	2278.84125004028	14
1	1054	2287.695691958095	14
1	1055	2288.851113717705	13
1	1056	2291.905923440628	12
1	1057	2296.344313923933	11
1	1061	2305.166900376491	10
1	1062	2306.986624821592	9
1	1063	2308.147746123581	8
1	1064	2309.030346992065	7
1	1072	2325.20156429716	7
1	1073	2328.025022869344	7
1	1074	2329.300251675244	6
1	1075	2332.813091048005	5
1	1077	2335.233532933645	5
1	1078	2335.57028234625	5
1	1079	2340.41063952601	4
1	1080	2343.744986485866	3
1	1081	2344.483850273531	2
1	1083	2345.440787043552	2
1	1084	2346.991386811351	2
1	1085	2348.131661152539	1
1	1086	2352.101991593862	0
1	1091	2357.58083537246	0
1	1092	2358.361991911341	0
1	1094	2362.672863402485	0
1	1095	2363.543431431352	0
1	1097	2380.495826501538	0
1	1098	2381.85281052779	0
1	1100	2387.22080609807	0
1	1101	2392.355432430353	0
1	1103	2408.542308582601	0
1	1104	2409.257738865058	0
1	1106	2410.226325649505	0
1	1107	2410.244356131362	0
1	1112	2413.640233561452	0
1	1113	2414.36800672541	0
1	1115	2421.961824707125	0
1	1116	2424.774958659689	0
1	1118	2439.826725366544	0
1	1119	2447.74569298435	0
1	1121	2448.966925486014	0
1	1122	2450.250510380181	0
1	1126	2457.299839417518	0
1	1128	2461.289238194113	1
1	1135	2473.170198392813	2
1	1138	2481.059061575314	3
1	1140	2486.248531588584	3
1	1141	2487.275471940579	2
1	1142	2492.562082223067	1
1	1143	2493.850742317133	0
2	131	353.474320604805	0
2	137	362.221650059944	0
2	140	388.918922681755	0
2	143	392.976877453988	1.291880313934
2	146	396.036615784813	2.52316873039
2	149	399.525659194693	2.70672706971
2	152	411.073237962121	0
2	155	418.275100492741	0
2	160	429.746846465361	10.156957558299
2	163	432.435212739412	12.073700758621
2	164	433.249877128312	1.836409683894
2	167	433.915389739673	0.569087546782
2	175	446.248830685556	12.056338691923
2	178	449.159413247634	3.726857186793
2	179	449.794477848439	2.896420957187
2	182	457.624761079718	0
2	185	462.992411790454	0
2	191	477.732048514976	0
2	194	479.565660162456	0
2	200	506.907177080105	0
2	205	514.876866440289	6.692155506793
2	212	528.521168262267	14.726516999538
2	215	531.303809918862	8.680728783262
2	218	535.800038212238	10.096308304607
2	221	536.766883556126	10.006183351194
2	228	546.473203800397	17.319809585632
2	229	547.864461843578	14.201471123282
2	232	551.59088512235	15.014153458522
2	235	551.868540976968	14.237642123262
2	236	552.232952356033	13.246741941652
2	241	555.344409914996	13.204813171131
2	246	557.401278789049	7.858818904158
2	249	562.950801251007	11.095726284031
2	258	571.605544966645	18.641394751785
2	259	573.902183926214	18.609385904739
2	262	583.753442016302	28.223242124025
2	263	586.758054239764	29.371475922597
2	264	587.765960034388	29.184410943594
2	265	590.887526628879	26.213436114715
2	266	594.44244623954	27.445504999155
2	271	605.215258691564	38.016526332257
2	272	605.764573190242	37.958498029601
2	281	634.516832353974	57.631312188686
2	284	638.39550991065	39.110640127468
2	289	648.735453680245	49.367226588037
2	292	649.841727562633	41.8709559082
2	293	654.187814450209	44.570640736332
2	294	658.032755489168	39.267555445692
2	295	658.175561750471	30.064111050734
2	296	660.681050800185	25.793120287644
2	297	667.367152754578	27.713271766369
2	298	667.647696107919	23.668835463127
2	303	674.252985837118	24.83582560509
2	306	678.820525103682	8.059486297142
2	318	698.696545720226	24.915353300727
2	321	708.858147777668	31.834031065333
2	322	709.523914495109	29.783760837306
2	325	711.899772697093	31.341031551373
2	328	714.175180732268	24.068532472194
2	329	718.11696846923	22.283958470705
2	330	722.92442494826	16.464049744585
2	333	731.335531587745	21.146344394769
2	334	731.961898409684	17.930620414859
2	335	734.645578521912	4.961327357173
2	338	746.56073465194	0
2	341	748.657817278654	1.322471197436
2	344	752.507465201618	0
2	347	764.711850508577	0
2	356	779.392366829766	0
2	393	843.33424413381	44.607068603811
2	394	846.29676516048	40.550778967012
2	395	846.973536525292	37.596722395684
2	402	859.345337114346	44.999716584667
2	403	861.607243778729	44.663815397271
2	404	862.205918898042	42.004058779282
2	407	864.818201486838	41.165913923801
2	408	868.580464776735	44.728122943093
2	409	871.225722828108	32.260124517734
2	410	871.563264778205	22.098284195584
2	421	882.2357604596	32.569911913245
2	422	882.861111005586	27.660965558576
2	423	893.242264253487	29.49015992558
2	424	896.712815379929	24.442009011711
2	437	920.934451535035	45.99617867342
2	440	922.287669053331	46.645498311048
2	441	922.640040143763	43.7236475422
2	442	925.768483290246	45.573740160869
2	443	927.732274022279	26.320293970206
2	446	928.270669510518	19.968004821101
2	447	931.119636961353	18.239518230118
2	448	934.57125375679	20.417240234881
2	449	937.048834558791	18.827381056697
2	452	942.198962144778	21.732221777251
2	453	945.866797575342	24.597180318
2	456	948.110383287976	19.839994427829
2	459	950.398420615828	9.628990950491
2	460	951.546612075142	4.609223530691
2	461	957.143778446554	8.765719364342
2	464	961.276425471982	0
2	467	968.857171976466	0
2	473	985.637922849169	0
2	476	988.740264235458	0.702978864069
2	479	990.437855143096	0.144455375681
2	482	995.354260837079	0.523416540261
2	493	1019.737448007155	12.927817133413
2	494	1022.344481876146	13.7675567179
2	497	1025.702611347249	0
2	504	1035.113756557761	9.254664017722
2	507	1038.874940193249	11.493999497272
2	510	1044.026856843447	11.98972769757
2	513	1045.310819708316	7.074982238973
2	516	1052.637354398125	12.976929910539
2	517	1055.642732560258	11.308204940339
2	518	1059.021414534827	7.16675993822
2	524	1073.085575127159	3.2914979797
2	527	1092.429440543177	0
2	536	1118.072379484393	18.466365218558
2	539	1128.696394658773	21.707834316527
2	542	1135.868576311563	27.855596461159
2	547	1151.027800073635	35.913219051232
2	548	1155.615756991726	30.565532826863
2	555	1158.309320267296	26.720863510779
2	556	1161.400100475273	25.259101841541
2	559	1164.107083617771	18.109793424942
2	562	1167.146582073534	11.490716656558
2	563	1172.747720731159	15.197352464964
2	564	1178.118581934368	20.50736740841
2	567	1184.297435923599	21.412631115819
2	568	1185.743164079576	18.959140848584
2	569	1185.812443663529	6.332285139936
2	572	1201.198363559256	0
2	575	1233.994475151404	0
2	578	1239.904612375816	5.266356592828
2	581	1245.207501304281	0
2	584	1252.287471471351	0
2	587	1254.526094202759	1.567784830028
2	590	1255.544300550687	0
2	593	1259.610923409563	1.908718359127
2	596	1273.575107147716	0
2	599	1282.000157476293	0
2	605	1308.042757533478	0
2	608	1322.442427890273	0
2	611	1354.450041299215	0
2	614	1359.808667138904	0
2	617	1365.567060418044	0
2	620	1379.527834508314	0
2	623	1388.343387569061	0
2	626	1395.704690041638	4.173967858316
2	631	1399.441574986073	3.453926222209
2	636	1406.402079391956	9.198264629382
2	639	1420.311505124455	16.839717703539
2	737	1637.492420418683	231.75983031683
2	740	1639.580027874709	231.9845638889
2	743	1652.972585725019	231.92016595203
2	744	1654.997093315568	232.82242558439
2	745	1655.284044241396	189.6187456149
2	746	1658.187542528873	175.04690450752
2	747	1659.515098173243	172.53393592928
2	760	1676.703641288935	186.49204933298
2	761	1678.891719652438	186.41601942142
2	762	1679.00136994506	185.40047644959
2	763	1681.786482202271	185.16623351972
2	764	1689.319628277544	190.06861865986
2	765	1691.561645644465	190.37090033385
2	770	1696.027804319765	192.47277683247
2	775	1706.793765211764	202.95105081887
2	776	1708.848619404263	201.43843968127
2	777	1711.124973644218	180.8333647095
2	778	1711.191252922563	180.8063276422
2	779	1712.41434258917	174.9568138495
2	780	1718.00444604082	164.84240528174
2	781	1721.352799991403	151.21571971059
2	782	1721.381653628189	148.10687666203
2	783	1723.919828745369	143.14234930916
2	789	1735.53880445356	118.08876358649
2	790	1736.858941581085	118.65948501283
2	793	1739.699842664651	100.13508994112
2	794	1742.47580698866	96.423213140091
2	832	1819.408437429934	159.82875708575
2	835	1825.491544980019	164.40727651562
2	836	1827.676316917304	165.85540778765
2	837	1835.289611539383	171.06301387146
2	838	1836.229889388017	165.57388821807
2	839	1836.388602159881	163.74261826174
2	848	1860.818240736203	168.0852188248
2	849	1870.400785073567	177.278624135
2	854	1887.779232557291	190.98719772778
2	859	1890.045621973656	183.46958837657
2	860	1892.309683696402	167.13611414689
2	873	1918.698832771156	181.11408130834
2	894	1955.373104815903	208.47838618187
2	895	1960.64589908184	197.75944667443
2	896	1962.254995341834	197.72871404632
2	897	1964.508284198638	193.16251051296
2	946	2043.666289844931	260.82609070603
2	947	2044.352958349648	257.25358463747
2	948	2049.998699778945	259.52463037961
2	949	2050.217217183264	251.57779292604
2	952	2056.573023034611	245.50133925493
2	959	2077.999691293616	262.30164010905
2	962	2087.163351085942	268.96972116381
2	965	2090.335786140306	270.40783001852
2	966	2090.499734688283	250.27126277924
2	967	2093.271908179573	251.73855436152
2	968	2096.515985915467	247.69026372234
2	969	2098.490216712307	246.68657526479
2	970	2101.702812591628	230.10672159826
2	971	2110.55014680598	237.51033556984
2	972	2115.516200111771	226.87950999384
2	983	2131.673464358382	241.95325005641
2	984	2132.487425586662	236.09955430818
2	985	2134.483550109039	226.41511746761
2	986	2139.784033559473	222.67173480736
2	987	2140.214534854034	220.15512044416
2	988	2143.512778791814	214.96391041017
2	989	2144.255931338569	201.0537592845
2	997	2170.02244627384	226.16899620519
2	998	2178.516863114544	231.02500534577
2	1003	2188.333478193056	236.07593814139
2	1004	2188.624705523539	234.73016153776
2	1005	2191.164153676447	225.69112926066
2	1010	2194.387000880287	226.99511686182
2	1011	2199.409995030305	230.45691618842
2	1012	2199.81648420086	224.06343212112
2	1013	2201.354258239956	220.67904565622
2	1014	2203.082225759298	218.64730513853
2	1015	2203.356632459419	215.18075098288
2	1016	2204.856867215602	207.81767766642
2	1017	2210.989049469795	204.31399889124
2	1020	2216.144143180358	202.54040904336
2	1023	2218.810402527919	205.09818887723
2	1024	2219.853912317531	203.28206119993
2	1029	2224.636169903205	207.20259627573
2	1032	2225.651749494159	204.27407122392
2	1033	2227.249333263264	195.49737719174
2	1034	2236.578840909162	184.3366905596
2	1037	2241.613772218103	184.76116738153
2	1040	2246.41868676723	185.90546193054
2	1041	2248.085556333163	187.01450906353
2	1042	2248.561287558683	163.38128985541
2	1043	2249.242574794978	162.04231493706
2	1044	2261.024756339547	141.94697644558
2	1047	2269.532802852242	144.68675601423
2	1048	2270.445954178927	123.15098225353
2	1053	2281.873413522041	133.79295782514
2	1054	2287.695691958095	106.61519382347
2	1055	2288.851113717705	106.01197541545
2	1056	2291.905923440628	100.26112569005
2	1057	2296.344313923933	102.65514924901
2	1060	2301.969997039124	88.1356185348
2	1061	2305.166900376491	88.287413744405
2	1062	2306.986624821592	87.108347480028
2	1063	2308.147746123581	87.071261838669
2	1064	2309.030346992065	83.381347208431
2	1067	2317.494621010917	80.571024081119
2	1070	2324.651636824447	81.006866417528
2	1073	2328.025022869344	62.081176181227
2	1074	2329.300251675244	56.924863729278
2	1075	2332.813091048005	53.971841007725
2	1078	2335.57028234625	36.498075988843
2	1079	2340.41063952601	26.230854583907
2	1080	2343.744986485866	19.891708403836
2	1081	2344.483850273531	19.282285976371
2	1084	2346.991386811351	11.757853877706
2	1085	2348.131661152539	2.690874108987
2	1091	2357.58083537246	0
2	1094	2362.672863402485	0
2	1097	2380.495826501538	0
2	1100	2387.22080609807	0
2	1103	2408.542308582601	0
2	1106	2410.226325649505	0
2	1112	2413.640233561452	0
2	1115	2421.961824707125	0
2	1118	2439.826725366544	0
2	1121	2448.966925486014	0
2	1129	2461.39604986989	4.096210452372
2	1139	2485.880635703584	24.591397509471
2	1140	2486.248531588584	22.222243329592
2	1141	2487.275471940579	14.105273547766
2	1142	2492.562082223067	11.503020647753
3	132	359.452794290623	33
3	138	363.419367981083	34
3	143	392.976877453988	35
3	146	396.036615784813	36
3	149	399.525659194693	37
3	150	402.388188681312	38
3	153	412.692524576955	39
3	160	429.746846465361	40
3	163	432.435212739412	41
3	164	433.249877128312	42
3	167	433.915389739673	43
3	178	449.159413247634	44
3	179	449.794477848439	45
3	180	454.696496240932	46
3	183	458.034476169766	47
3	186	466.172546492108	48
3	192	479.112122724945	49
3	195	480.644432253491	50
3	205	514.876866440289	51
3	212	528.521168262267	52
3	215	531.303809918862	53
3	221	536.766883556126	54
3	229	547.864461843578	55
3	232	551.59088512235	56
3	235	551.868540976968	57
3	236	552.232952356033	58
3	241	555.344409914996	59
3	246	557.401278789049	60
3	249	562.950801251007	61
3	258	571.605544966645	62
3	259	573.902183926214	63
3	263	586.758054239764	64
3	264	587.765960034388	65
3	265	590.887526628879	66
3	266	594.44244623954	67
3	272	605.764573190242	68
3	293	654.187814450209	69
3	294	658.032755489168	70
3	295	658.175561750471	71
3	296	660.681050800185	72
3	297	667.367152754578	73
3	298	667.647696107919	74
3	303	674.252985837118	75
3	306	678.820525103682	76
3	321	708.858147777668	77
3	322	709.523914495109	78
3	325	711.899772697093	79
3	328	714.175180732268	80
3	329	718.11696846923	81
3	330	722.92442494826	82
3	334	731.961898409684	83
3	335	734.645578521912	84
3	336	737.534511204175	85
3	341	748.657817278654	86
3	342	749.370458060067	87
3	345	762.229086775396	88
3	348	765.047170948719	89
3	357	779.835812601885	90
3	394	846.29676516048	91
3	395	846.973536525292	92
3	403	861.607243778729	93
3	404	862.205918898042	94
3	408	868.580464776735	95
3	409	871.225722828108	96
3	410	871.563264778205	97
3	422	882.861111005586	98
3	423	893.242264253487	99
3	424	896.712815379929	100
3	440	922.287669053331	101
3	441	922.640040143763	102
3	442	925.768483290246	103
3	443	927.732274022279	104
3	446	928.270669510518	105
3	447	931.119636961353	106
3	448	934.57125375679	107
3	449	937.048834558791	108
3	452	942.198962144778	109
3	453	945.866797575342	110
3	456	948.110383287976	111
3	459	950.398420615828	112
3	460	951.546612075142	113
3	461	957.143778446554	114
3	462	958.14319774537	115
3	465	964.054477817415	116
3	468	969.217219017198	117
3	479	990.437855143096	118
3	482	995.354260837079	119
3	483	995.701181684099	120
3	494	1022.344481876146	121
3	495	1022.607975509937	122
3	510	1044.026856843447	123
3	513	1045.310819708316	124
3	517	1055.642732560258	125
3	518	1059.021414534827	126
3	519	1066.760329758351	127
3	525	1074.033680485145	128
3	548	1155.615756991726	129
3	556	1161.400100475273	130
3	559	1164.107083617771	131
3	562	1167.146582073534	132
3	563	1172.747720731159	133
3	564	1178.118581934368	134
3	568	1185.743164079576	135
3	569	1185.812443663529	136
3	570	1186.776644937074	137
3	573	1201.805832253214	138
3	578	1239.904612375816	139
3	579	1239.921154993127	140
3	582	1245.560731049291	141
3	587	1254.526094202759	142
3	588	1254.891641290265	143
3	593	1259.610923409563	144
3	594	1260.538038460616	145
3	597	1275.055045942672	146
3	600	1283.63302890392	147
3	606	1313.886136088481	148
3	609	1322.830124282911	149
3	612	1357.005350765718	150
3	615	1363.220323912895	151
3	618	1366.875710084424	152
3	621	1380.990946768056	153
3	626	1395.704690041638	154
3	639	1420.311505124455	155
3	740	1639.580027874709	156
3	744	1654.997093315568	157
3	745	1655.284044241396	158
3	746	1658.187542528873	159
3	747	1659.515098173243	160
3	761	1678.891719652438	161
3	762	1679.00136994506	162
3	763	1681.786482202271	163
3	764	1689.319628277544	164
3	765	1691.561645644465	165
3	770	1696.027804319765	166
3	775	1706.793765211764	167
3	776	1708.848619404263	168
3	777	1711.124973644218	169
3	778	1711.191252922563	170
3	779	1712.41434258917	171
3	780	1718.00444604082	172
3	781	1721.352799991403	173
3	782	1721.381653628189	174
3	783	1723.919828745369	175
3	790	1736.858941581085	176
3	793	1739.699842664651	177
3	794	1742.47580698866	178
3	835	1825.491544980019	179
3	836	1827.676316917304	180
3	837	1835.289611539383	181
3	838	1836.229889388017	182
3	839	1836.388602159881	183
3	849	1870.400785073567	184
3	854	1887.779232557291	185
3	859	1890.045621973656	186
3	860	1892.309683696402	187
3	895	1960.64589908184	188
3	896	1962.254995341834	189
3	897	1964.508284198638	190
3	947	2044.352958349648	191
3	948	2049.998699778945	192
3	949	2050.217217183264	193
3	952	2056.573023034611	194
3	962	2087.163351085942	195
3	965	2090.335786140306	196
3	966	2090.499734688283	197
3	967	2093.271908179573	198
3	968	2096.515985915467	199
3	969	2098.490216712307	200
3	970	2101.702812591628	201
3	971	2110.55014680598	202
3	972	2115.516200111771	203
3	984	2132.487425586662	204
3	985	2134.483550109039	205
3	986	2139.784033559473	206
3	987	2140.214534854034	207
3	988	2143.512778791814	208
3	989	2144.255931338569	209
3	998	2178.516863114544	210
3	1003	2188.333478193056	211
3	1004	2188.624705523539	212
3	1005	2191.164153676447	213
3	1011	2199.409995030305	214
3	1012	2199.81648420086	215
3	1013	2201.354258239956	216
3	1014	2203.082225759298	217
3	1015	2203.356632459419	218
3	1016	2204.856867215602	219
3	1017	2210.989049469795	220
3	1020	2216.144143180358	221
3	1023	2218.810402527919	222
3	1024	2219.853912317531	223
3	1032	2225.651749494159	224
3	1033	2227.249333263264	225
3	1034	2236.578840909162	226
3	1037	2241.613772218103	227
3	1040	2246.41868676723	228
3	1041	2248.085556333163	229
3	1042	2248.561287558683	230
3	1043	2249.242574794978	231
3	1044	2261.024756339547	232
3	1047	2269.532802852242	233
3	1048	2270.445954178927	234
3	1054	2287.695691958095	235
3	1055	2288.851113717705	236
3	1056	2291.905923440628	237
3	1057	2296.344313923933	238
3	1061	2305.166900376491	239
3	1062	2306.986624821592	240
3	1063	2308.147746123581	241
3	1064	2309.030346992065	242
3	1073	2328.025022869344	243
3	1074	2329.300251675244	244
3	1075	2332.813091048005	245
3	1078	2335.57028234625	246
3	1079	2340.41063952601	247
3	1080	2343.744986485866	248
3	1081	2344.483850273531	249
3	1084	2346.991386811351	250
3	1085	2348.131661152539	251
3	1086	2352.101991593862	252
3	1092	2358.361991911341	253
3	1095	2363.543431431352	254
3	1098	2381.85281052779	255
3	1101	2392.355432430353	256
3	1104	2409.257738865058	257
3	1107	2410.244356131362	258
3	1113	2414.36800672541	259
3	1116	2424.774958659689	260
3	1119	2447.74569298435	261
3	1122	2450.250510380181	262
3	1140	2486.248531588584	263
3	1141	2487.275471940579	264
3	1142	2492.562082223067	265
3	1143	2493.850742317133	266
4	132	359.452794290623	5.978473685818
4	138	363.419367981083	1.197717921139
4	143	392.976877453988	4.057954772233
4	146	396.036615784813	4.351618644759
4	149	399.525659194693	6.01221214027
4	150	402.388188681312	5.569256556329
4	153	412.692524576955	1.619286614834
4	160	429.746846465361	11.47174597262
4	163	432.435212739412	12.84532383235
4	164	433.249877128312	12.888365147521
4	167	433.915389739673	2.501922295255
4	178	449.159413247634	14.966921254001
4	179	449.794477848439	4.361921787598
4	180	454.696496240932	7.79843934968
4	183	458.034476169766	0.409715090048
4	186	466.172546492108	3.180134701654
4	192	479.112122724945	1.380074209969
4	195	480.644432253491	1.078772091035
4	205	514.876866440289	7.969689360184
4	212	528.521168262267	20.336457328771
4	215	531.303809918862	17.509158656133
4	221	536.766883556126	11.063153648495
4	229	547.864461843578	18.711067628813
4	232	551.59088512235	17.927894402054
4	235	551.868540976968	15.29180931314
4	236	552.232952356033	14.602053502327
4	241	555.344409914996	16.358199500615
4	246	557.401278789049	15.261682045184
4	249	562.950801251007	13.408341366116
4	258	571.605544966645	19.750469999669
4	259	573.902183926214	20.938033711354
4	263	586.758054239764	31.227854347487
4	264	587.765960034388	30.379381717221
4	265	590.887526628879	32.305977538085
4	266	594.44244623954	29.768355725376
4	272	605.764573190242	38.565840830935
4	293	654.187814450209	46.217042795776
4	294	658.032755489168	48.415581775291
4	295	658.175561750471	39.410361706995
4	296	660.681050800185	32.569600100448
4	297	667.367152754578	32.479222242037
4	298	667.647696107919	27.99381511971
4	303	674.252985837118	30.274125192326
4	306	678.820525103682	29.403364871654
4	321	708.858147777668	35.076955358169
4	322	709.523914495109	32.499797782774
4	325	711.899772697093	32.15961903929
4	328	714.175180732268	33.616439586548
4	329	718.11696846923	28.010320209156
4	330	722.92442494826	27.091414949735
4	334	731.961898409684	21.772711216708
4	335	734.645578521912	20.614300527087
4	336	737.534511204175	7.850260039436
4	341	748.657817278654	2.097082626714
4	342	749.370458060067	2.035111978849
4	345	762.229086775396	9.721621573778
4	348	765.047170948719	0.335320440142
4	357	779.835812601885	0.443445772119
4	394	846.29676516048	47.569589630481
4	395	846.973536525292	41.227550331824
4	403	861.607243778729	47.26162324905
4	404	862.205918898042	45.262490516584
4	408	868.580464776735	44.928177213698
4	409	871.225722828108	47.373380994466
4	410	871.563264778205	32.597666467831
4	422	882.861111005586	33.195262459231
4	423	893.242264253487	38.042118806477
4	424	896.712815379929	32.960711052022
4	440	922.287669053331	47.349396191716
4	441	922.640040143763	46.99786940148
4	442	925.768483290246	46.852090688683
4	443	927.732274022279	47.537530892902
4	446	928.270669510518	26.858689458445
4	447	931.119636961353	22.816972271936
4	448	934.57125375679	21.691135025555
4	449	937.048834558791	22.894821036882
4	452	942.198962144778	23.977508642684
4	453	945.866797575342	25.400057207815
4	456	948.110383287976	26.840766030634
4	459	950.398420615828	22.128031755681
4	460	951.546612075142	10.777182409805
4	461	957.143778446554	10.206389902103
4	462	958.14319774537	9.765138663158
4	465	964.054477817415	2.778052345433
4	468	969.217219017198	0.360047040732
4	479	990.437855143096	2.400569771707
4	482	995.354260837079	5.060861069664
4	483	995.701181684099	0.870337387281
4	494	1022.344481876146	15.534851002404
4	495	1022.607975509937	14.031050351691
4	510	1044.026856843447	16.64591614747
4	513	1045.310819708316	13.273690562439
4	517	1055.642732560258	15.982308072672
4	518	1059.021414534827	14.686886914908
4	519	1066.760329758351	14.905675161744
4	525	1074.033680485145	4.239603337686
4	548	1155.615756991726	40.501175969323
4	556	1161.400100475273	29.811643718756
4	559	1164.107083617771	27.966084984039
4	562	1167.146582073534	21.149291880705
4	563	1172.747720731159	17.091855314183
4	564	1178.118581934368	20.568213668173
4	568	1185.743164079576	22.858359271796
4	569	1185.812443663529	19.028420432537
4	570	1186.776644937074	7.296486413481
4	573	1201.805832253214	0.607468693958
4	578	1239.904612375816	5.910137224412
4	579	1239.921154993127	5.282899210139
4	582	1245.560731049291	0.35322974501
4	587	1254.526094202759	2.238622731408
4	588	1254.891641290265	1.933331917534
4	593	1259.610923409563	4.066622858876
4	594	1260.538038460616	2.83583341018
4	597	1275.055045942672	1.479938794956
4	600	1283.63302890392	1.632871427627
4	606	1313.886136088481	5.843378555003
4	609	1322.830124282911	0.387696392638
4	612	1357.005350765718	2.555309466503
4	615	1363.220323912895	3.411656773991
4	618	1366.875710084424	1.30864966638
4	621	1380.990946768056	1.463112259742
4	626	1395.704690041638	7.361302472577
4	639	1420.311505124455	23.107690361881
4	740	1639.580027874709	233.84743777286
4	744	1654.997093315568	233.94467354258
4	745	1655.284044241396	233.10937651022
4	746	1658.187542528873	192.52224390238
4	747	1659.515098173243	176.37446015189
4	761	1678.891719652438	188.68012769648
4	762	1679.00136994506	186.52566971404
4	763	1681.786482202271	188.1855887068
4	764	1689.319628277544	192.699379595
4	765	1691.561645644465	192.31063602678
4	770	1696.027804319765	194.83705900915
4	775	1706.793765211764	203.23873772447
4	776	1708.848619404263	205.00590501137
4	777	1711.124973644218	203.71479392123
4	778	1711.191252922563	180.89964398785
4	779	1712.41434258917	182.02941730881
4	780	1718.00444604082	180.54691730115
4	781	1721.352799991403	168.19075923233
4	782	1721.381653628189	151.24457334738
4	783	1723.919828745369	150.64505177921
4	790	1736.858941581085	119.40890071402
4	793	1739.699842664651	121.5003860964
4	794	1742.47580698866	102.91105426513
4	835	1825.491544980019	165.91186463584
4	836	1827.676316917304	166.5920484529
4	837	1835.289611539383	173.46870240972
4	838	1836.229889388017	172.0032917201
4	839	1836.388602159881	165.73260098993
4	849	1870.400785073567	177.66776316217
4	854	1887.779232557291	194.65707161872
4	859	1890.045621973656	193.25358714414
4	860	1892.309683696402	185.73365009932
4	895	1960.64589908184	213.7511804478
4	896	1962.254995341834	199.36854293442
4	897	1964.508284198638	199.98200290313
4	947	2044.352958349648	261.51275921074
4	948	2049.998699778945	262.89932606677
4	949	2050.217217183264	259.74314778393
4	952	2056.573023034611	257.93359877739
4	962	2087.163351085942	271.46529990138
4	965	2090.335786140306	272.14215621818
4	966	2090.499734688283	270.5717785665
4	967	2093.271908179573	253.04343627053
4	968	2096.515985915467	254.98263209742
4	969	2098.490216712307	249.66449451918
4	970	2101.702812591628	249.89917114411
4	971	2110.55014680598	238.95405581262
4	972	2115.516200111771	242.47638887563
4	984	2132.487425586662	242.76721128469
4	985	2134.483550109039	238.09567883056
4	986	2139.784033559473	231.71560091804
4	987	2140.214534854034	223.10223610192
4	988	2143.512778791814	223.45336438194
4	989	2144.255931338569	215.70706295692
4	998	2178.516863114544	234.6634130459
4	1003	2188.333478193056	240.84162042428
4	1004	2188.624705523539	236.36716547187
4	1005	2191.164153676447	237.26960969067
4	1011	2199.409995030305	232.01811101184
4	1012	2199.81648420086	230.86340535897
4	1013	2201.354258239956	225.60120616021
4	1014	2203.082225759298	222.40701317556
4	1015	2203.356632459419	218.92171183865
4	1016	2204.856867215602	216.68098573906
4	1017	2210.989049469795	213.94985992061
4	1020	2216.144143180358	209.46909260181
4	1023	2218.810402527919	205.20666839092
4	1024	2219.853912317531	206.14169866684
4	1032	2225.651749494159	208.21817586669
4	1033	2227.249333263264	205.87165499302
4	1034	2236.578840909162	204.82688483764
4	1037	2241.613772218103	189.37162186854
4	1040	2246.41868676723	189.56608193066
4	1041	2248.085556333163	187.57233149647
4	1042	2248.561287558683	187.49024028905
4	1043	2249.242574794978	164.06257709171
4	1044	2261.024756339547	173.82449648163
4	1047	2269.532802852242	150.45502295827
4	1048	2270.445954178927	145.59990734092
4	1054	2287.695691958095	139.61523626119
4	1055	2288.851113717705	107.77061558308
4	1056	2291.905923440628	109.06678513837
4	1057	2296.344313923933	104.69951617335
4	1061	2305.166900376491	91.332521872167
4	1062	2306.986624821592	90.107138189506
4	1063	2308.147746123581	88.269468782017
4	1064	2309.030346992065	87.953862707153
4	1073	2328.025022869344	84.380252462425
4	1074	2329.300251675244	63.356404987127
4	1075	2332.813091048005	60.437703102039
4	1078	2335.57028234625	56.72903230597
4	1079	2340.41063952601	41.338433168603
4	1080	2343.744986485866	29.565201543763
4	1081	2344.483850273531	20.630572191501
4	1084	2346.991386811351	21.789822514191
4	1085	2348.131661152539	12.898128218894
4	1086	2352.101991593862	6.66120455031
4	1092	2358.361991911341	0.781156538881
4	1095	2363.543431431352	0.870568028867
4	1098	2381.85281052779	1.356984026252
4	1101	2392.355432430353	5.134626332283
4	1104	2409.257738865058	0.715430282457
4	1107	2410.244356131362	0.018030481857
4	1113	2414.36800672541	0.727773163958
4	1116	2424.774958659689	2.813133952564
4	1119	2447.74569298435	7.918967617806
4	1122	2450.250510380181	1.283584894167
4	1140	2486.248531588584	24.959293394471
4	1141	2487.275471940579	23.249183681587
4	1142	2492.562082223067	19.391883830254
4	1143	2493.850742317133	12.791680741819
5	134	360.864535828211	1
5	169	434.192491993633	1
5	171	434.455210291892	2
5	188	473.418125660566	1
5	197	494.985859456131	1
5	217	533.662990720296	1
5	223	537.630898853706	1
5	261	576.885520165288	1
5	268	599.284869783182	1
5	274	607.970771654433	1
5	283	634.887930512541	1
5	286	639.653880988209	1
5	291	649.417160232028	1
5	308	679.740153657803	1
5	312	683.74995469966	2
5	332	729.684251164739	1
5	350	765.453022773889	1
5	352	766.43135895336	2
5	359	788.973306370394	1
5	362	791.930488403228	1
5	365	795.155632926391	1
5	369	799.035351057598	2
5	371	800.178837360028	3
5	373	800.927631421423	4
5	397	849.464980582621	1
5	406	863.752104327907	1
5	412	872.270806368218	1
5	426	901.411980052073	1
5	470	974.77567001264	1
5	475	988.037285371389	1
5	485	1006.593199994784	1
5	491	1011.297870756273	2
5	501	1027.380940695977	1
5	506	1038.235837469343	1
5	515	1051.854654596607	1
5	521	1068.457324359042	1
5	535	1115.114581022403	1
5	538	1125.050224164863	1
5	541	1131.588456756517	1
5	546	1145.997290192829	1
5	550	1155.655865416976	1
5	566	1179.480158523593	1
5	602	1287.669619001015	1
5	630	1397.203814762574	1
5	633	1403.471787420916	1
5	643	1422.174667731178	1
5	645	1425.541955577038	2
5	647	1459.809802668981	3
5	650	1463.472783701677	3
5	655	1468.258265090104	3
5	658	1477.030327765908	3
5	662	1483.733119445775	4
5	680	1502.192571971784	3
5	689	1513.824900073327	3
5	697	1535.615523159129	2
5	701	1544.835433568439	3
5	703	1552.405657681915	4
5	708	1554.423249520396	4
5	717	1584.168946148526	4
5	720	1590.380435773746	4
5	722	1596.202799076679	5
5	725	1601.028906960768	5
5	729	1612.419185454763	4
5	742	1646.052593848569	1
5	759	1672.645983898138	1
5	785	1725.173569549517	1
5	787	1734.285532893839	2
5	796	1746.894718634036	1
5	798	1752.682965373174	2
5	800	1753.420297938543	3
5	802	1756.356175216809	4
5	810	1776.492643095432	5
5	823	1805.713256286704	3
5	841	1840.228471909046	1
5	862	1896.387871278477	1
5	864	1902.845844547256	2
5	866	1905.171414237391	3
5	875	1920.059414409871	1
5	877	1923.446138582809	2
5	880	1927.44617853084	2
5	899	1965.473024415792	1
5	905	1974.610237799757	2
5	909	1978.257315432963	3
5	917	1992.92582265826	4
5	919	1995.832788322231	5
5	932	2013.962719486096	3
5	940	2021.902296801776	4
5	954	2056.852604836569	1
5	974	2119.077779893969	1
5	976	2119.880416731758	2
5	981	2127.915740897932	2
5	993	2148.080455696903	1
5	995	2150.521770546261	2
5	1009	2193.689164674927	1
5	1026	2219.878277341564	1
5	1050	2272.375387945966	1
5	1059	2299.072206357407	1
5	1066	2314.179784942103	1
5	1069	2323.85327808203	1
5	1088	2352.473961820584	1
5	1109	2410.291790491198	1
5	1124	2457.099948359269	1
5	1131	2464.026288258992	1
5	1133	2465.224727782946	2
5	1145	2497.285207450237	1
6	134	360.864535828211	0
6	135	360.99526626209	0
6	169	434.192491993633	0
6	171	434.455210291892	1
6	172	437.368082119675	1
6	175	446.248830685556	0
6	188	473.418125660566	0
6	189	473.737387102519	0
6	197	494.985859456131	0
6	198	498.372062713089	0
6	217	533.662990720296	0
6	218	535.800038212238	0
6	223	537.630898853706	0
6	228	546.473203800397	0
6	261	576.885520165288	0
6	262	583.753442016302	0
6	268	599.284869783182	0
6	271	605.215258691564	0
6	274	607.970771654433	0
6	281	634.516832353974	0
6	283	634.887930512541	0
6	284	638.39550991065	0
6	286	639.653880988209	0
6	289	648.735453680245	0
6	291	649.417160232028	0
6	292	649.841727562633	0
6	308	679.740153657803	0
6	312	683.74995469966	1
6	313	689.286028322773	1
6	318	698.696545720226	0
6	332	729.684251164739	0
6	333	731.335531587745	0
6	350	765.453022773889	0
6	352	766.43135895336	1
6	353	766.488247174704	1
6	354	771.624137255877	0
6	359	788.973306370394	0
6	360	790.677930386287	0
6	362	791.930488403228	0
6	363	793.692639882115	0
6	365	795.155632926391	0
6	369	799.035351057598	1
6	371	800.178837360028	2
6	373	800.927631421423	3
6	376	805.850893600877	3
6	383	817.544256606902	2
6	390	830.540098774623	1
6	393	843.33424413381	0
6	397	849.464980582621	0
6	402	859.345337114346	0
6	406	863.752104327907	0
6	407	864.818201486838	0
6	412	872.270806368218	0
6	421	882.2357604596	0
6	426	901.411980052073	0
6	437	920.934451535035	0
6	470	974.77567001264	0
6	471	975.079843266477	0
6	475	988.037285371389	0
6	476	988.740264235458	0
6	485	1006.593199994784	0
6	491	1011.297870756273	1
6	492	1013.759998231638	1
6	493	1019.737448007155	0
6	501	1027.380940695977	0
6	504	1035.113756557761	0
6	506	1038.235837469343	0
6	507	1038.874940193249	0
6	515	1051.854654596607	0
6	516	1052.637354398125	0
6	521	1068.457324359042	0
6	524	1073.085575127159	0
6	535	1115.114581022403	0
6	536	1118.072379484393	0
6	538	1125.050224164863	0
6	539	1128.696394658773	0
6	541	1131.588456756517	0
6	542	1135.868576311563	0
6	546	1145.997290192829	0
6	547	1151.027800073635	0
6	550	1155.655865416976	0
6	555	1158.309320267296	0
6	566	1179.480158523593	0
6	567	1184.297435923599	0
6	602	1287.669619001015	0
6	603	1290.586520482747	0
6	630	1397.203814762574	0
6	631	1399.441574986073	0
6	633	1403.471787420916	0
6	636	1406.402079391956	0
6	643	1422.174667731178	0
6	645	1425.541955577038	1
6	647	1459.809802668981	2
6	648	1463.315790888808	2
6	650	1463.472783701677	2
6	653	1465.773819438067	2
6	655	1468.258265090104	2
6	656	1469.41366492339	2
6	658	1477.030327765908	2
6	662	1483.733119445775	3
6	665	1488.592452046785	3
6	670	1492.81562950529	2
6	680	1502.192571971784	2
6	687	1511.591994125874	2
6	689	1513.824900073327	2
6	690	1530.212652692391	2
6	695	1533.865267544143	1
6	697	1535.615523159129	1
6	701	1544.835433568439	2
6	703	1552.405657681915	3
6	706	1554.158316114136	3
6	708	1554.423249520396	3
6	709	1559.234531142747	3
6	717	1584.168946148526	3
6	718	1584.45260502869	3
6	720	1590.380435773746	3
6	722	1596.202799076679	4
6	723	1596.302700969786	4
6	725	1601.028906960768	4
6	726	1601.889944243354	4
6	727	1602.475542348373	3
6	729	1612.419185454763	3
6	734	1619.592496801493	3
6	735	1624.198294637078	2
6	736	1629.871184429563	1
6	737	1637.492420418683	0
6	742	1646.052593848569	0
6	743	1652.972585725019	0
6	759	1672.645983898138	0
6	760	1676.703641288935	0
6	785	1725.173569549517	0
6	787	1734.285532893839	1
6	788	1734.482097192335	1
6	789	1735.53880445356	0
6	796	1746.894718634036	0
6	798	1752.682965373174	1
6	800	1753.420297938543	2
6	802	1756.356175216809	3
6	810	1776.492643095432	4
6	811	1779.450191011407	4
6	818	1793.550840149479	3
6	819	1796.524548516574	2
6	823	1805.713256286704	2
6	824	1807.156430862105	2
6	829	1815.880780785348	1
6	832	1819.408437429934	0
6	841	1840.228471909046	0
6	848	1860.818240736203	0
6	862	1896.387871278477	0
6	864	1902.845844547256	1
6	866	1905.171414237391	2
6	869	1909.427760934306	2
6	870	1909.78904728061	1
6	873	1918.698832771156	0
6	875	1920.059414409871	0
6	877	1923.446138582809	1
6	878	1925.964251806711	1
6	880	1927.44617853084	1
6	887	1946.388336033991	1
6	894	1955.373104815903	0
6	899	1965.473024415792	0
6	905	1974.610237799757	1
6	909	1978.257315432963	2
6	917	1992.92582265826	3
6	919	1995.832788322231	4
6	922	1999.629204087073	4
6	923	2002.009279952398	3
6	926	2008.613004341834	2
6	932	2013.962719486096	2
6	940	2021.902296801776	3
6	941	2025.904624729586	3
6	942	2026.219584771624	2
6	943	2029.571090317763	1
6	946	2043.666289844931	0
6	954	2056.852604836569	0
6	959	2077.999691293616	0
6	974	2119.077779893969	0
6	976	2119.880416731758	1
6	977	2122.180149309408	1
6	981	2127.915740897932	1
6	982	2129.407201680771	1
6	983	2131.673464358382	0
6	993	2148.080455696903	0
6	995	2150.521770546261	1
6	996	2156.501049846157	1
6	997	2170.02244627384	0
6	1009	2193.689164674927	0
6	1010	2194.387000880287	0
6	1026	2219.878277341564	0
6	1029	2224.636169903205	0
6	1050	2272.375387945966	0
6	1053	2281.873413522041	0
6	1059	2299.072206357407	0
6	1060	2301.969997039124	0
6	1066	2314.179784942103	0
6	1067	2317.494621010917	0
6	1069	2323.85327808203	0
6	1070	2324.651636824447	0
6	1088	2352.473961820584	0
6	1089	2353.36413652631	0
6	1109	2410.291790491198	0
6	1110	2411.553588596472	0
6	1124	2457.099948359269	0
6	1129	2461.39604986989	0
6	1131	2464.026288258992	0
6	1133	2465.224727782946	1
6	1136	2473.962590751661	1
6	1139	2485.880635703584	0
6	1145	2497.285207450237	0
6	1146	2498.161523997102	0
7	134	360.864535828211	0
7	169	434.192491993633	0
7	172	437.368082119675	2.912871827783
7	188	473.418125660566	0
7	197	494.985859456131	0
7	217	533.662990720296	0
7	223	537.630898853706	0
7	261	576.885520165288	0
7	268	599.284869783182	0
7	274	607.970771654433	0
7	283	634.887930512541	0
7	286	639.653880988209	0
7	291	649.417160232028	0
7	308	679.740153657803	0
7	313	689.286028322773	5.536073623113
7	332	729.684251164739	0
7	350	765.453022773889	0
7	353	766.488247174704	0.056888221344
7	359	788.973306370394	0
7	362	791.930488403228	0
7	365	795.155632926391	0
7	376	805.850893600877	6.815542543279
7	383	817.544256606902	17.365419246874
7	390	830.540098774623	29.6124673532
7	397	849.464980582621	0
7	406	863.752104327907	0
7	412	872.270806368218	0
7	426	901.411980052073	0
7	470	974.77567001264	0
7	475	988.037285371389	0
7	485	1006.593199994784	0
7	492	1013.759998231638	2.462127475365
7	501	1027.380940695977	0
7	506	1038.235837469343	0
7	515	1051.854654596607	0
7	521	1068.457324359042	0
7	535	1115.114581022403	0
7	538	1125.050224164863	0
7	541	1131.588456756517	0
7	546	1145.997290192829	0
7	550	1155.655865416976	0
7	566	1179.480158523593	0
7	602	1287.669619001015	0
7	630	1397.203814762574	0
7	633	1403.471787420916	0
7	643	1422.174667731178	0
7	648	1463.315790888808	37.77383531177
7	653	1465.773819438067	5.964016769086
7	656	1469.41366492339	5.940881221713
7	665	1488.592452046785	20.334186956681
7	670	1492.81562950529	15.785301739382
7	687	1511.591994125874	27.858874680099
7	690	1530.212652692391	28.020080720607
7	695	1533.865267544143	20.040367470816
7	706	1554.158316114136	18.542792955007
7	709	1559.234531142747	14.399097574308
7	718	1584.45260502869	32.046947346775
7	723	1596.302700969786	41.87945144939
7	726	1601.889944243354	17.720998094828
7	727	1602.475542348373	12.095106574627
7	734	1619.592496801493	23.389697724814
7	735	1624.198294637078	23.16938767631
7	736	1629.871184429563	17.4519989748
7	742	1646.052593848569	0
7	759	1672.645983898138	0
7	785	1725.173569549517	0
7	788	1734.482097192335	0.196564298496
7	796	1746.894718634036	0
7	811	1779.450191011407	26.767225638233
7	818	1793.550840149479	40.130542210936
7	819	1796.524548516574	40.168373299765
7	824	1807.156430862105	30.663787766673
7	829	1815.880780785348	10.167524498644
7	841	1840.228471909046	0
7	862	1896.387871278477	0
7	869	1909.427760934306	6.58191638705
7	870	1909.78904728061	4.617633043219
7	875	1920.059414409871	0
7	878	1925.964251806711	2.518113223902
7	887	1946.388336033991	18.942157503151
7	899	1965.473024415792	0
7	922	1999.629204087073	25.018966287316
7	923	2002.009279952398	23.751964519435
7	926	2008.613004341834	15.687181683574
7	941	2025.904624729586	30.071836407355
7	942	2026.219584771624	12.256865285528
7	943	2029.571090317763	7.668793515987
7	954	2056.852604836569	0
7	974	2119.077779893969	0
7	977	2122.180149309408	2.29973257765
7	982	2129.407201680771	1.491460782839
7	993	2148.080455696903	0
7	996	2156.501049846157	5.979279299896
7	1009	2193.689164674927	0
7	1026	2219.878277341564	0
7	1050	2272.375387945966	0
7	1059	2299.072206357407	0
7	1066	2314.179784942103	0
7	1069	2323.85327808203	0
7	1088	2352.473961820584	0
7	1109	2410.291790491198	0
7	1124	2457.099948359269	0
7	1131	2464.026288258992	0
7	1136	2473.962590751661	8.737862968715
7	1145	2497.285207450237	0
8	135	360.99526626209	12
8	172	437.368082119675	13
8	175	446.248830685556	14
8	189	473.737387102519	15
8	198	498.372062713089	16
8	218	535.800038212238	17
8	228	546.473203800397	18
8	262	583.753442016302	19
8	271	605.215258691564	20
8	281	634.516832353974	21
8	284	638.39550991065	22
8	289	648.735453680245	23
8	292	649.841727562633	24
8	313	689.286028322773	25
8	318	698.696545720226	26
8	333	731.335531587745	27
8	353	766.488247174704	28
8	354	771.624137255877	29
8	360	790.677930386287	30
8	363	793.692639882115	31
8	376	805.850893600877	32
8	383	817.544256606902	33
8	390	830.540098774623	34
8	393	843.33424413381	35
8	402	859.345337114346	36
8	407	864.818201486838	37
8	421	882.2357604596	38
8	437	920.934451535035	39
8	471	975.079843266477	40
8	476	988.740264235458	41
8	492	1013.759998231638	42
8	493	1019.737448007155	43
8	504	1035.113756557761	44
8	507	1038.874940193249	45
8	516	1052.637354398125	46
8	524	1073.085575127159	47
8	536	1118.072379484393	48
8	539	1128.696394658773	49
8	542	1135.868576311563	50
8	547	1151.027800073635	51
8	555	1158.309320267296	52
8	567	1184.297435923599	53
8	603	1290.586520482747	54
8	631	1399.441574986073	55
8	636	1406.402079391956	56
8	648	1463.315790888808	57
8	653	1465.773819438067	58
8	656	1469.41366492339	59
8	665	1488.592452046785	60
8	670	1492.81562950529	61
8	687	1511.591994125874	62
8	690	1530.212652692391	63
8	695	1533.865267544143	64
8	706	1554.158316114136	65
8	709	1559.234531142747	66
8	718	1584.45260502869	67
8	723	1596.302700969786	68
8	726	1601.889944243354	69
8	727	1602.475542348373	70
8	734	1619.592496801493	71
8	735	1624.198294637078	72
8	736	1629.871184429563	73
8	737	1637.492420418683	74
8	743	1652.972585725019	75
8	760	1676.703641288935	76
8	788	1734.482097192335	77
8	789	1735.53880445356	78
8	811	1779.450191011407	79
8	818	1793.550840149479	80
8	819	1796.524548516574	81
8	824	1807.156430862105	82
8	829	1815.880780785348	83
8	832	1819.408437429934	84
8	848	1860.818240736203	85
8	869	1909.427760934306	86
8	870	1909.78904728061	87
8	873	1918.698832771156	88
8	878	1925.964251806711	89
8	887	1946.388336033991	90
8	894	1955.373104815903	91
8	922	1999.629204087073	92
8	923	2002.009279952398	93
8	926	2008.613004341834	94
8	941	2025.904624729586	95
8	942	2026.219584771624	96
8	943	2029.571090317763	97
8	946	2043.666289844931	98
8	959	2077.999691293616	99
8	977	2122.180149309408	100
8	982	2129.407201680771	101
8	983	2131.673464358382	102
8	996	2156.501049846157	103
8	997	2170.02244627384	104
8	1010	2194.387000880287	105
8	1029	2224.636169903205	106
8	1053	2281.873413522041	107
8	1060	2301.969997039124	108
8	1067	2317.494621010917	109
8	1070	2324.651636824447	110
8	1089	2353.36413652631	111
8	1110	2411.553588596472	112
8	1129	2461.39604986989	113
8	1136	2473.962590751661	114
8	1139	2485.880635703584	115
8	1146	2498.161523997102	116
9	135	360.99526626209	0.130730433879
9	172	437.368082119675	3.175590126042
9	175	446.248830685556	11.793620393664
9	189	473.737387102519	0.319261441953
9	198	498.372062713089	3.386203256958
9	218	535.800038212238	2.137047491942
9	228	546.473203800397	8.842304946691
9	262	583.753442016302	6.867921851014
9	271	605.215258691564	5.930388908382
9	281	634.516832353974	26.546060699541
9	284	638.39550991065	3.507579398109
9	289	648.735453680245	9.081572692036
9	292	649.841727562633	0.424567330605
9	313	689.286028322773	9.54587466497
9	318	698.696545720226	14.946591020566
9	333	731.335531587745	1.651280423006
9	353	766.488247174704	1.035224400815
9	354	771.624137255877	5.192778302517
9	360	790.677930386287	1.704624015893
9	363	793.692639882115	1.762151478887
9	376	805.850893600877	10.695260674486
9	383	817.544256606902	18.508905549304
9	390	830.540098774623	30.361261414595
9	393	843.33424413381	42.406612712387
9	402	859.345337114346	9.880356531725
9	407	864.818201486838	1.066097158931
9	421	882.2357604596	9.964954091382
9	437	920.934451535035	19.522471482962
9	471	975.079843266477	0.304173253837
9	476	988.740264235458	0.702978864069
9	492	1013.759998231638	7.166798236854
9	493	1019.737448007155	8.439577250882
9	504	1035.113756557761	7.732815861784
9	507	1038.874940193249	0.639102723906
9	516	1052.637354398125	0.782699801518
9	524	1073.085575127159	4.628250768117
9	536	1118.072379484393	2.95779846199
9	539	1128.696394658773	3.64617049391
9	542	1135.868576311563	4.280119555046
9	547	1151.027800073635	5.030509880806
9	555	1158.309320267296	2.65345485032
9	567	1184.297435923599	4.817277400006
9	603	1290.586520482747	2.916901481732
9	631	1399.441574986073	2.237760223499
9	636	1406.402079391956	2.93029197104
9	648	1463.315790888808	41.14112315763
9	653	1465.773819438067	40.231863861029
9	656	1469.41366492339	9.603862254409
9	665	1488.592452046785	25.119668345108
9	670	1492.81562950529	24.557364415186
9	687	1511.591994125874	34.561666359966
9	690	1530.212652692391	46.479533246616
9	695	1533.865267544143	31.672695572359
9	706	1554.158316114136	40.333416040809
9	709	1559.234531142747	23.619007983618
9	718	1584.45260502869	39.617171460251
9	723	1596.302700969786	43.897043287871
9	726	1601.889944243354	47.466694722958
9	727	1602.475542348373	18.306596199847
9	734	1619.592496801493	29.212061027747
9	735	1624.198294637078	27.995495560399
9	736	1629.871184429563	28.842277468795
9	737	1637.492420418683	25.07323496392
9	743	1652.972585725019	6.91999187645
9	760	1676.703641288935	4.057657390797
9	788	1734.482097192335	9.308527642818
9	789	1735.53880445356	1.253271559721
9	811	1779.450191011407	32.555472377371
9	818	1793.550840149479	40.867874776305
9	819	1796.524548516574	43.104250578031
9	824	1807.156430862105	50.800255645296
9	829	1815.880780785348	39.388137689916
9	832	1819.408437429934	13.69518114323
9	848	1860.818240736203	20.589768827157
9	869	1909.427760934306	13.039889655829
9	870	1909.78904728061	6.943202733354
9	873	1918.698832771156	13.527418533765
9	878	1925.964251806711	5.90483739684
9	887	1946.388336033991	22.942197451182
9	894	1955.373104815903	27.926926285063
9	922	1999.629204087073	34.156179671281
9	923	2002.009279952398	27.399042152641
9	926	2008.613004341834	30.355688908871
9	941	2025.904624729586	32.978802071326
9	942	2026.219584771624	30.386796449393
9	943	2029.571090317763	15.608370831667
9	946	2043.666289844931	21.763993043155
9	959	2077.999691293616	21.147086457047
9	977	2122.180149309408	3.102369415439
9	982	2129.407201680771	9.526784949013
9	983	2131.673464358382	3.75772346045
9	996	2156.501049846157	8.420594149254
9	997	2170.02244627384	19.500675727579
9	1010	2194.387000880287	0.69783620536
9	1029	2224.636169903205	4.757892561641
9	1053	2281.873413522041	9.498025576075
9	1060	2301.969997039124	2.897790681717
9	1067	2317.494621010917	3.314836068814
9	1070	2324.651636824447	0.798358742417
9	1089	2353.36413652631	0.890174705726
9	1110	2411.553588596472	1.261798105274
9	1129	2461.39604986989	4.296101510621
9	1136	2473.962590751661	9.936302492669
9	1139	2485.880635703584	20.655907920638
9	1146	2498.161523997102	0.876316546865
10	169	434.192491993633	5
10	217	533.662990720296	6
10	223	537.630898853706	7
10	261	576.885520165288	8
10	268	599.284869783182	9
10	274	607.970771654433	10
10	283	634.887930512541	11
10	286	639.653880988209	12
10	291	649.417160232028	13
10	308	679.740153657803	14
10	332	729.684251164739	15
10	397	849.464980582621	16
10	406	863.752104327907	17
10	412	872.270806368218	18
10	426	901.411980052073	19
10	475	988.037285371389	20
10	501	1027.380940695977	21
10	506	1038.235837469343	22
10	515	1051.854654596607	23
10	535	1115.114581022403	24
10	538	1125.050224164863	25
10	541	1131.588456756517	26
10	546	1145.997290192829	27
10	550	1155.655865416976	28
10	566	1179.480158523593	29
10	630	1397.203814762574	30
10	633	1403.471787420916	31
10	643	1422.174667731178	32
10	742	1646.052593848569	33
10	759	1672.645983898138	34
10	785	1725.173569549517	35
10	796	1746.894718634036	36
10	841	1840.228471909046	37
10	862	1896.387871278477	38
10	875	1920.059414409871	39
10	899	1965.473024415792	40
10	954	2056.852604836569	41
10	974	2119.077779893969	42
10	993	2148.080455696903	43
10	1009	2193.689164674927	44
10	1026	2219.878277341564	45
10	1050	2272.375387945966	46
10	1059	2299.072206357407	47
10	1066	2314.179784942103	48
10	1069	2323.85327808203	49
10	1131	2464.026288258992	50
11	1147	2500	0.1064
12	1147	2500	0.0464

