version 2
run experiments_easy_game_mode1-807-20230308-12:04:45-22711
attr configname experiments_easy_game_mode1
attr datetime 20230308-12:04:45
attr experiment experiments_easy_game_mode1
attr inifile omnetpp.ini
attr iterationvars "$0=6, $1=1.5, $2=0"
attr iterationvarsf 6,1.5,0-
attr measurement "$0=6, $1=1.5, $2=0"
attr network Network
attr processid 22711
attr repetition 27
attr replication #27
attr resultdir results
attr runnumber 807
attr seedset 27
param *.boss.arrival_mean 20
param *.boss.service_mean 6
param *.minion.arrival_mean 10
param *.minion.service_mean 1.5
param *.player.recover_rate_x 0
param **.minion.arrival_distribution 0
param **.minion.service_distribution 0
param **.boss.arrival_distribution 0
param **.boss.service_distribution 0

vector 0 Network.player boss_jobs_number_stat:vector ETV
attr source signal_boss_jobs_number
vector 1 Network.player boss_jobs_queue_number_stat:vector ETV
attr source signal_boss_jobs_queue_number
vector 2 Network.player boss_waiting_time_stat:vector ETV
attr source signal_boss_waiting_time
vector 3 Network.player boss_defeated_stat:vector ETV
attr source signal_boss_defeated
vector 4 Network.player boss_response_time_stat:vector ETV
attr source signal_boss_response_time
vector 5 Network.player minion_jobs_number_stat:vector ETV
attr source signal_minion_jobs_number
vector 6 Network.player minion_jobs_queue_number_stat:vector ETV
attr source signal_minion_jobs_queue_number
vector 7 Network.player minion_waiting_time_stat:vector ETV
attr source signal_minion_waiting_time
vector 8 Network.player minion_defeated_stat:vector ETV
attr source signal_minion_defeated
vector 9 Network.player minion_response_time_stat:vector ETV
attr source signal_minion_response_time
vector 10 Network.player minion_recovered_stat:vector ETV
attr source signal_minion_recovered
vector 11 Network.player minion_throughput:vector ETV
attr source signal_minion_throughput
vector 12 Network.player boss_throughput:vector ETV
attr source signal_boss_throughput
0	152	368.831334544424	1
0	155	389.110670426301	1
0	158	392.470448185346	1
0	164	406.857955342912	1
0	175	426.413797271532	1
0	177	428.216150320548	2
0	179	429.56556717974	3
0	189	439.368663954059	2
0	194	453.418493226684	2
0	196	460.280800586182	3
0	202	465.421436393306	4
0	204	468.331227174635	5
0	239	532.267433263168	1
0	241	532.47057314743	2
0	255	551.950976185058	1
0	262	562.599858163725	1
0	272	566.167079330092	2
0	284	579.735833390176	1
0	291	587.83685848517	1
0	293	588.269454985046	2
0	295	589.0392234944	3
0	302	605.436577269174	1
0	308	613.330361908421	1
0	310	614.946250003507	2
0	317	625.020069418922	1
0	325	635.493773863116	1
0	329	651.93908874367	1
0	333	659.479702327961	2
0	335	660.616830717591	3
0	341	690.058304817686	2
0	356	724.440579512485	1
0	365	742.817448148488	1
0	369	750.436630718249	2
0	372	761.240283547267	2
0	375	768.129381117159	2
0	379	776.291255989424	3
0	404	836.22542674111	1
0	406	836.732694464763	2
0	430	886.875913427531	1
0	432	888.751654418823	2
0	439	906.16981819263	1
0	449	944.66435003739	1
0	468	972.102428593869	1
0	479	985.612944754038	1
0	484	992.436786322198	1
0	490	998.179883676915	1
0	493	1002.472414686305	1
0	512	1031.121101478372	1
0	524	1059.823730250331	1
0	530	1075.364437874632	2
0	557	1170.367082354032	1
0	560	1180.109766243292	1
0	573	1212.664506770435	1
0	587	1233.325160215043	1
0	602	1269.88515367764	1
0	604	1273.651998237192	2
0	607	1278.05293541854	2
0	615	1302.754338639653	3
0	617	1305.574118968634	4
0	621	1306.39506238908	5
0	626	1314.661552737215	5
0	640	1332.983630237907	2
0	663	1359.150555686224	1
0	668	1363.697256601952	1
0	692	1444.719652389594	1
0	697	1450.44504109149	1
0	699	1450.821689742854	2
0	705	1461.008519765219	1
0	725	1486.539293398296	1
0	731	1511.564798431682	1
0	737	1522.912315959582	1
0	761	1554.359213467081	1
0	769	1573.55463600345	1
0	785	1618.60610114374	1
0	797	1647.732977010864	1
0	799	1652.716300240126	2
0	815	1699.903565993872	1
0	817	1700.164731177748	2
0	820	1704.09610134274	2
0	839	1732.70694833244	1
0	842	1739.431147144398	1
0	846	1743.465202265492	2
0	851	1749.865499275879	2
0	866	1781.419902188234	1
0	872	1794.03587162119	2
0	914	1854.253817291772	1
0	935	1890.882005542659	1
0	937	1890.959832848247	2
0	944	1906.259346134547	1
0	953	1951.970516732074	1
0	960	1972.812470886184	1
0	980	2016.313752534131	1
0	989	2026.634220104932	1
0	1013	2113.398607569763	1
0	1016	2122.859661153812	1
0	1037	2162.021322230943	1
0	1040	2165.890783281384	1
0	1043	2172.746428742143	1
0	1052	2189.245132141111	1
0	1067	2233.879336630663	1
0	1073	2239.267804364735	1
0	1085	2252.616090301519	1
0	1113	2345.378507754397	1
0	1121	2358.900332232856	1
0	1127	2370.717925181556	1
0	1139	2418.046391651931	1
0	1142	2423.759721043991	1
0	1148	2453.422693129747	1
0	1151	2458.491186840242	1
0	1160	2480.169364514395	1
1	152	368.831334544424	0
1	153	375.1227981609	0
1	155	389.110670426301	0
1	156	392.381356244795	0
1	158	392.470448185346	0
1	161	397.993784783744	0
1	164	406.857955342912	0
1	165	408.49418123919	0
1	175	426.413797271532	0
1	177	428.216150320548	1
1	179	429.56556717974	2
1	180	433.888258083523	2
1	185	436.360081133576	1
1	189	439.368663954059	1
1	192	451.547977488512	1
1	194	453.418493226684	1
1	196	460.280800586182	2
1	202	465.421436393306	3
1	204	468.331227174635	4
1	207	479.622471457736	4
1	208	480.281607792823	3
1	209	481.910306620337	2
1	212	486.414428086337	1
1	213	486.922500998314	0
1	239	532.267433263168	0
1	241	532.47057314743	1
1	242	534.253638120848	1
1	247	540.898349834745	0
1	255	551.950976185058	0
1	256	558.177005693448	0
1	262	562.599858163725	0
1	272	566.167079330092	1
1	275	568.425019604697	1
1	276	569.601464196771	0
1	284	579.735833390176	0
1	285	581.659160612678	0
1	291	587.83685848517	0
1	293	588.269454985046	1
1	295	589.0392234944	2
1	296	595.48104758651	2
1	297	599.247692498882	1
1	298	602.126174259071	0
1	302	605.436577269174	0
1	303	606.192458843415	0
1	308	613.330361908421	0
1	310	614.946250003507	1
1	311	619.203134966532	1
1	312	619.664146285111	0
1	317	625.020069418922	0
1	320	626.570480311854	0
1	325	635.493773863116	0
1	326	649.355915719029	0
1	329	651.93908874367	0
1	333	659.479702327961	1
1	335	660.616830717591	2
1	336	660.705504415114	2
1	337	670.18368851737	1
1	341	690.058304817686	1
1	342	695.238966176383	1
1	345	706.25585502405	0
1	356	724.440579512485	0
1	359	728.335718759196	0
1	365	742.817448148488	0
1	369	750.436630718249	1
1	370	752.94857687453	1
1	372	761.240283547267	1
1	373	762.255318394249	1
1	375	768.129381117159	1
1	379	776.291255989424	2
1	384	790.488478229844	2
1	387	797.635714866843	1
1	390	802.801898762698	0
1	404	836.22542674111	0
1	406	836.732694464763	1
1	411	847.365206813456	1
1	412	857.449744352612	0
1	430	886.875913427531	0
1	432	888.751654418823	1
1	433	894.64809894539	1
1	434	897.930110713504	0
1	439	906.16981819263	0
1	440	908.06059576687	0
1	449	944.66435003739	0
1	450	944.831340173748	0
1	468	972.102428593869	0
1	475	981.891204977044	0
1	479	985.612944754038	0
1	480	989.24526432616	0
1	484	992.436786322198	0
1	485	995.983326147832	0
1	490	998.179883676915	0
1	491	998.847659453747	0
1	493	1002.472414686305	0
1	498	1014.719556470249	0
1	512	1031.121101478372	0
1	517	1041.317935686792	0
1	524	1059.823730250331	0
1	530	1075.364437874632	1
1	531	1076.500790552327	1
1	532	1083.679353300373	0
1	557	1170.367082354032	0
1	558	1172.507241917795	0
1	560	1180.109766243292	0
1	561	1185.108159613176	0
1	573	1212.664506770435	0
1	574	1214.306284422127	0
1	587	1233.325160215043	0
1	588	1235.248270546515	0
1	602	1269.88515367764	0
1	604	1273.651998237192	1
1	605	1274.6853271525	1
1	607	1278.05293541854	1
1	615	1302.754338639653	2
1	617	1305.574118968634	3
1	621	1306.39506238908	4
1	624	1313.594953314613	4
1	626	1314.661552737215	4
1	627	1316.139897457481	4
1	628	1317.031190237999	3
1	635	1324.878822447943	2
1	638	1330.612375934401	1
1	640	1332.983630237907	1
1	641	1333.174311656304	1
1	648	1337.156264911054	0
1	663	1359.150555686224	0
1	664	1361.256919301887	0
1	668	1363.697256601952	0
1	669	1366.812692441684	0
1	692	1444.719652389594	0
1	693	1449.329128346843	0
1	697	1450.44504109149	0
1	699	1450.821689742854	1
1	700	1458.253432588865	1
1	701	1458.620137081661	0
1	705	1461.008519765219	0
1	706	1463.347374884437	0
1	725	1486.539293398296	0
1	726	1492.757786797626	0
1	731	1511.564798431682	0
1	732	1514.635210116819	0
1	737	1522.912315959582	0
1	742	1529.570503611471	0
1	761	1554.359213467081	0
1	764	1556.664075318141	0
1	769	1573.55463600345	0
1	770	1573.600837228158	0
1	785	1618.60610114374	0
1	792	1636.256046102989	0
1	797	1647.732977010864	0
1	799	1652.716300240126	1
1	800	1659.239793547637	1
1	807	1674.298066252488	0
1	815	1699.903565993872	0
1	817	1700.164731177748	1
1	818	1700.389091065707	1
1	820	1704.09610134274	1
1	823	1710.476124660103	1
1	824	1713.061136113138	0
1	839	1732.70694833244	0
1	840	1732.914975828336	0
1	842	1739.431147144398	0
1	846	1743.465202265492	1
1	849	1749.110113364327	1
1	851	1749.865499275879	1
1	856	1766.337715854552	1
1	857	1767.337433857547	0
1	866	1781.419902188234	0
1	872	1794.03587162119	1
1	873	1799.447228643875	1
1	876	1801.736336421762	0
1	914	1854.253817291772	0
1	919	1864.111507854464	0
1	935	1890.882005542659	0
1	937	1890.959832848247	1
1	938	1892.526856298367	1
1	939	1896.46517989115	0
1	944	1906.259346134547	0
1	945	1908.944350019394	0
1	953	1951.970516732074	0
1	958	1972.394384885881	0
1	960	1972.812470886184	0
1	967	1984.184017440829	0
1	980	2016.313752534131	0
1	985	2019.550945837422	0
1	989	2026.634220104932	0
1	996	2029.048594739697	0
1	1013	2113.398607569763	0
1	1014	2115.702356995043	0
1	1016	2122.859661153812	0
1	1017	2124.968710457234	0
1	1037	2162.021322230943	0
1	1038	2162.120799233528	0
1	1040	2165.890783281384	0
1	1041	2171.708673372119	0
1	1043	2172.746428742143	0
1	1044	2172.980008509691	0
1	1052	2189.245132141111	0
1	1053	2191.523045313153	0
1	1067	2233.879336630663	0
1	1068	2234.206641786131	0
1	1073	2239.267804364735	0
1	1074	2241.099140526959	0
1	1085	2252.616090301519	0
1	1086	2253.437615802688	0
1	1113	2345.378507754397	0
1	1114	2355.460201277653	0
1	1121	2358.900332232856	0
1	1122	2359.104050791755	0
1	1127	2370.717925181556	0
1	1130	2380.868795017123	0
1	1139	2418.046391651931	0
1	1140	2419.586757229489	0
1	1142	2423.759721043991	0
1	1143	2429.155491880343	0
1	1148	2453.422693129747	0
1	1149	2458.133069490789	0
1	1151	2458.491186840242	0
1	1152	2462.775959421297	0
1	1160	2480.169364514395	0
1	1163	2481.350023540811	0
2	152	368.831334544424	0
2	155	389.110670426301	0
2	158	392.470448185346	0
2	164	406.857955342912	0
2	175	426.413797271532	0
2	180	433.888258083523	5.672107762975
2	185	436.360081133576	6.794513953836
2	192	451.547977488512	12.179313534453
2	207	479.622471457736	26.203978231052
2	208	480.281607792823	20.000807206641
2	209	481.910306620337	16.488870227031
2	212	486.414428086337	18.083200911702
2	239	532.267433263168	0
2	242	534.253638120848	1.783064973418
2	255	551.950976185058	0
2	262	562.599858163725	0
2	275	568.425019604697	2.257940274605
2	284	579.735833390176	0
2	291	587.83685848517	0
2	296	595.48104758651	7.211592601464
2	297	599.247692498882	10.208469004482
2	302	605.436577269174	0
2	308	613.330361908421	0
2	311	619.203134966532	4.256884963025
2	317	625.020069418922	0
2	325	635.493773863116	0
2	329	651.93908874367	0
2	336	660.705504415114	1.225802087153
2	337	670.18368851737	9.566857799779
2	342	695.238966176383	5.180661358697
2	356	724.440579512485	0
2	365	742.817448148488	0
2	370	752.94857687453	2.511946156281
2	373	762.255318394249	1.015034846982
2	384	790.488478229844	22.359097112685
2	387	797.635714866843	21.344458877419
2	404	836.22542674111	0
2	411	847.365206813456	10.632512348693
2	430	886.875913427531	0
2	433	894.64809894539	5.896444526567
2	439	906.16981819263	0
2	449	944.66435003739	0
2	468	972.102428593869	0
2	479	985.612944754038	0
2	484	992.436786322198	0
2	490	998.179883676915	0
2	493	1002.472414686305	0
2	512	1031.121101478372	0
2	524	1059.823730250331	0
2	531	1076.500790552327	1.136352677695
2	557	1170.367082354032	0
2	560	1180.109766243292	0
2	573	1212.664506770435	0
2	587	1233.325160215043	0
2	602	1269.88515367764	0
2	605	1274.6853271525	1.033328915308
2	624	1313.594953314613	35.542017896073
2	627	1316.139897457481	13.385558817828
2	628	1317.031190237999	11.457071269365
2	635	1324.878822447943	18.483760058863
2	638	1330.612375934401	15.950823197186
2	641	1333.174311656304	0.190681418397
2	663	1359.150555686224	0
2	668	1363.697256601952	0
2	692	1444.719652389594	0
2	697	1450.44504109149	0
2	700	1458.253432588865	7.431742846011
2	705	1461.008519765219	0
2	725	1486.539293398296	0
2	731	1511.564798431682	0
2	737	1522.912315959582	0
2	761	1554.359213467081	0
2	769	1573.55463600345	0
2	785	1618.60610114374	0
2	797	1647.732977010864	0
2	800	1659.239793547637	6.523493307511
2	815	1699.903565993872	0
2	818	1700.389091065707	0.224359887959
2	823	1710.476124660103	6.380023317363
2	839	1732.70694833244	0
2	842	1739.431147144398	0
2	849	1749.110113364327	5.644911098835
2	856	1766.337715854552	16.472216578673
2	866	1781.419902188234	0
2	873	1799.447228643875	5.411357022685
2	914	1854.253817291772	0
2	935	1890.882005542659	0
2	938	1892.526856298367	1.56702345012
2	944	1906.259346134547	0
2	953	1951.970516732074	0
2	960	1972.812470886184	0
2	980	2016.313752534131	0
2	989	2026.634220104932	0
2	1013	2113.398607569763	0
2	1016	2122.859661153812	0
2	1037	2162.021322230943	0
2	1040	2165.890783281384	0
2	1043	2172.746428742143	0
2	1052	2189.245132141111	0
2	1067	2233.879336630663	0
2	1073	2239.267804364735	0
2	1085	2252.616090301519	0
2	1113	2345.378507754397	0
2	1121	2358.900332232856	0
2	1127	2370.717925181556	0
2	1139	2418.046391651931	0
2	1142	2423.759721043991	0
2	1148	2453.422693129747	0
2	1151	2458.491186840242	0
2	1160	2480.169364514395	0
3	153	375.1227981609	14
3	156	392.381356244795	15
3	161	397.993784783744	16
3	165	408.49418123919	17
3	180	433.888258083523	18
3	185	436.360081133576	19
3	192	451.547977488512	20
3	207	479.622471457736	21
3	208	480.281607792823	22
3	209	481.910306620337	23
3	212	486.414428086337	24
3	213	486.922500998314	25
3	242	534.253638120848	26
3	247	540.898349834745	27
3	256	558.177005693448	28
3	275	568.425019604697	29
3	276	569.601464196771	30
3	285	581.659160612678	31
3	296	595.48104758651	32
3	297	599.247692498882	33
3	298	602.126174259071	34
3	303	606.192458843415	35
3	311	619.203134966532	36
3	312	619.664146285111	37
3	320	626.570480311854	38
3	326	649.355915719029	39
3	336	660.705504415114	40
3	337	670.18368851737	41
3	342	695.238966176383	42
3	345	706.25585502405	43
3	359	728.335718759196	44
3	370	752.94857687453	45
3	373	762.255318394249	46
3	384	790.488478229844	47
3	387	797.635714866843	48
3	390	802.801898762698	49
3	411	847.365206813456	50
3	412	857.449744352612	51
3	433	894.64809894539	52
3	434	897.930110713504	53
3	440	908.06059576687	54
3	450	944.831340173748	55
3	475	981.891204977044	56
3	480	989.24526432616	57
3	485	995.983326147832	58
3	491	998.847659453747	59
3	498	1014.719556470249	60
3	517	1041.317935686792	61
3	531	1076.500790552327	62
3	532	1083.679353300373	63
3	558	1172.507241917795	64
3	561	1185.108159613176	65
3	574	1214.306284422127	66
3	588	1235.248270546515	67
3	605	1274.6853271525	68
3	624	1313.594953314613	69
3	627	1316.139897457481	70
3	628	1317.031190237999	71
3	635	1324.878822447943	72
3	638	1330.612375934401	73
3	641	1333.174311656304	74
3	648	1337.156264911054	75
3	664	1361.256919301887	76
3	669	1366.812692441684	77
3	693	1449.329128346843	78
3	700	1458.253432588865	79
3	701	1458.620137081661	80
3	706	1463.347374884437	81
3	726	1492.757786797626	82
3	732	1514.635210116819	83
3	742	1529.570503611471	84
3	764	1556.664075318141	85
3	770	1573.600837228158	86
3	792	1636.256046102989	87
3	800	1659.239793547637	88
3	807	1674.298066252488	89
3	818	1700.389091065707	90
3	823	1710.476124660103	91
3	824	1713.061136113138	92
3	840	1732.914975828336	93
3	849	1749.110113364327	94
3	856	1766.337715854552	95
3	857	1767.337433857547	96
3	873	1799.447228643875	97
3	876	1801.736336421762	98
3	919	1864.111507854464	99
3	938	1892.526856298367	100
3	939	1896.46517989115	101
3	945	1908.944350019394	102
3	958	1972.394384885881	103
3	967	1984.184017440829	104
3	985	2019.550945837422	105
3	996	2029.048594739697	106
3	1014	2115.702356995043	107
3	1017	2124.968710457234	108
3	1038	2162.120799233528	109
3	1041	2171.708673372119	110
3	1044	2172.980008509691	111
3	1053	2191.523045313153	112
3	1068	2234.206641786131	113
3	1074	2241.099140526959	114
3	1086	2253.437615802688	115
3	1114	2355.460201277653	116
3	1122	2359.104050791755	117
3	1130	2380.868795017123	118
3	1140	2419.586757229489	119
3	1143	2429.155491880343	120
3	1149	2458.133069490789	121
3	1152	2462.775959421297	122
3	1163	2481.350023540811	123
4	153	375.1227981609	6.291463616476
4	156	392.381356244795	3.270685818494
4	161	397.993784783744	5.523336598398
4	165	408.49418123919	1.636225896278
4	180	433.888258083523	7.474460811991
4	185	436.360081133576	8.143930813028
4	192	451.547977488512	21.982410308772
4	207	479.622471457736	40.253807503677
4	208	480.281607792823	26.863114566139
4	209	481.910306620337	21.629506034155
4	212	486.414428086337	20.992991693031
4	213	486.922500998314	18.591273823679
4	242	534.253638120848	1.98620485768
4	247	540.898349834745	8.427776687315
4	256	558.177005693448	6.22602950839
4	275	568.425019604697	5.825161440972
4	276	569.601464196771	3.434384866679
4	285	581.659160612678	1.923327222502
4	296	595.48104758651	7.64418910134
4	297	599.247692498882	10.978237513836
4	298	602.126174259071	13.086950764671
4	303	606.192458843415	0.755881574241
4	311	619.203134966532	5.872773058111
4	312	619.664146285111	4.717896281604
4	320	626.570480311854	1.550410892932
4	326	649.355915719029	13.862141855913
4	336	660.705504415114	8.766415671444
4	337	670.18368851737	10.703986189409
4	342	695.238966176383	34.622135458792
4	345	706.25585502405	16.197550206364
4	359	728.335718759196	3.895139246711
4	370	752.94857687453	10.131128726042
4	373	762.255318394249	11.818687676
4	384	790.488478229844	29.248194682577
4	387	797.635714866843	29.506333749684
4	390	802.801898762698	26.510642773274
4	411	847.365206813456	11.139780072346
4	412	857.449744352612	20.717049887849
4	433	894.64809894539	7.772185517859
4	434	897.930110713504	9.178456294681
4	440	908.06059576687	1.89077757424
4	450	944.831340173748	0.166990136358
4	475	981.891204977044	9.788776383175
4	480	989.24526432616	3.632319572122
4	485	995.983326147832	3.546539825634
4	491	998.847659453747	0.667775776832
4	498	1014.719556470249	12.247141783944
4	517	1041.317935686792	10.19683420842
4	531	1076.500790552327	16.677060301996
4	532	1083.679353300373	8.314915425741
4	558	1172.507241917795	2.140159563763
4	561	1185.108159613176	4.998393369884
4	574	1214.306284422127	1.641777651692
4	588	1235.248270546515	1.923110331472
4	605	1274.6853271525	4.80017347486
4	624	1313.594953314613	39.942955077421
4	627	1316.139897457481	38.086962038941
4	628	1317.031190237999	14.276851598346
4	635	1324.878822447943	19.304703479309
4	638	1330.612375934401	24.217313545321
4	641	1333.174311656304	18.512758919089
4	648	1337.156264911054	4.172634673147
4	664	1361.256919301887	2.106363615663
4	669	1366.812692441684	3.115435839732
4	693	1449.329128346843	4.609475957249
4	700	1458.253432588865	7.808391497375
4	701	1458.620137081661	7.798447338807
4	706	1463.347374884437	2.338855119218
4	726	1492.757786797626	6.21849339933
4	732	1514.635210116819	3.070411685137
4	742	1529.570503611471	6.658187651889
4	764	1556.664075318141	2.30486185106
4	770	1573.600837228158	0.046201224708
4	792	1636.256046102989	17.649944959249
4	800	1659.239793547637	11.506816536773
4	807	1674.298066252488	21.581766012362
4	818	1700.389091065707	0.485525071835
4	823	1710.476124660103	10.311393482355
4	824	1713.061136113138	8.965034770398
4	840	1732.914975828336	0.208027495896
4	849	1749.110113364327	9.678966219929
4	856	1766.337715854552	22.87251358906
4	857	1767.337433857547	17.471934581668
4	873	1799.447228643875	18.027326455641
4	876	1801.736336421762	7.700464800572
4	919	1864.111507854464	9.857690562692
4	938	1892.526856298367	1.644850755708
4	939	1896.46517989115	5.505347042903
4	945	1908.944350019394	2.685003884847
4	958	1972.394384885881	20.423868153807
4	967	1984.184017440829	11.371546554645
4	985	2019.550945837422	3.237193303291
4	996	2029.048594739697	2.414374634765
4	1014	2115.702356995043	2.30374942528
4	1017	2124.968710457234	2.109049303422
4	1038	2162.120799233528	0.099477002585
4	1041	2171.708673372119	5.817890090735
4	1044	2172.980008509691	0.233579767548
4	1053	2191.523045313153	2.277913172042
4	1068	2234.206641786131	0.327305155468
4	1074	2241.099140526959	1.831336162224
4	1086	2253.437615802688	0.821525501169
4	1114	2355.460201277653	10.081693523256
4	1122	2359.104050791755	0.203718558899
4	1130	2380.868795017123	10.150869835567
4	1140	2419.586757229489	1.540365577558
4	1143	2429.155491880343	5.395770836352
4	1149	2458.133069490789	4.710376361042
4	1152	2462.775959421297	4.284772581055
4	1163	2481.350023540811	1.180659026416
5	160	397.949897162909	1
5	167	411.471568794108	1
5	170	420.230523895315	1
5	173	423.626370630007	1
5	182	433.979021401061	2
5	184	434.997459550596	3
5	187	436.463358371075	4
5	191	447.3390123704	5
5	198	460.684561441791	6
5	200	462.209260645508	7
5	206	471.80022684556	8
5	211	482.12454206374	9
5	224	501.94602011595	1
5	226	504.152873383937	2
5	230	506.764314853358	1
5	233	516.720497587459	1
5	236	525.084643806652	1
5	244	535.727868267657	1
5	246	537.018404049543	2
5	251	549.634151508763	1
5	253	551.56278072711	2
5	258	559.039735221251	3
5	264	562.877230825547	2
5	266	562.954784115561	3
5	268	565.008561718757	4
5	270	565.430729754966	5
5	274	568.095931702788	6
5	278	571.345060115002	7
5	287	582.639845148548	4
5	305	608.459123519515	1
5	314	622.936509287057	1
5	319	626.569211957683	1
5	323	631.689727490417	1
5	331	659.407904956321	1
5	339	679.657796540349	2
5	344	701.327193298871	3
5	350	713.90688556752	1
5	353	720.086850441601	1
5	358	727.457895586696	1
5	361	733.313309239065	2
5	367	749.354740548087	1
5	377	776.276508363408	2
5	381	777.28756776415	3
5	383	787.378396625648	4
5	386	790.643643360153	5
5	389	800.042271453348	6
5	398	810.570050040013	1
5	401	817.725022293353	1
5	408	839.515907787457	1
5	410	841.688057020289	2
5	416	862.791215186079	1
5	419	869.66179205242	1
5	422	876.497427822597	1
5	425	877.513300832293	1
5	428	886.270071100297	1
5	437	902.631208475954	1
5	443	920.651580677701	1
5	446	936.116745149452	1
5	452	945.211657223258	1
5	455	958.429144938276	1
5	458	965.565444506313	1
5	461	965.738090244711	1
5	463	966.252998812531	2
5	465	969.063236927235	3
5	470	973.705196395811	3
5	472	975.394861851765	4
5	474	981.092227947627	5
5	488	997.320396551664	1
5	495	1004.131180005746	2
5	497	1009.808859567802	3
5	502	1017.930388621933	2
5	506	1022.419777073105	1
5	509	1025.300882535409	1
5	514	1037.939473070161	1
5	516	1039.229428256462	2
5	521	1049.658067412039	1
5	526	1061.06979822698	1
5	528	1071.919528734719	2
5	536	1095.56391038071	1
5	539	1103.766454948256	1
5	542	1110.542400832551	1
5	545	1123.489569023027	1
5	548	1124.218693505945	1
5	551	1152.481030913731	1
5	554	1158.036682929179	1
5	563	1197.501637819124	1
5	566	1200.101138425325	1
5	569	1211.222097662782	1
5	571	1211.487149992353	2
5	578	1222.187040243271	1
5	581	1229.137359880271	1
5	584	1230.742420810067	1
5	590	1241.579059115042	1
5	593	1243.485386794217	1
5	596	1259.835760388708	1
5	599	1261.215077139916	1
5	609	1281.144771545962	1
5	611	1286.813517328929	2
5	613	1290.596789691155	3
5	619	1305.962453132044	4
5	623	1312.995428447974	5
5	630	1317.376687031108	6
5	632	1320.216093915217	7
5	634	1324.53062450491	8
5	637	1325.881155680585	9
5	643	1335.272079502913	10
5	645	1335.806599765196	11
5	647	1336.515749204007	12
5	652	1342.118909752105	11
5	671	1384.84673323077	1
5	673	1386.893093362784	2
5	677	1391.798389368981	1
5	680	1403.202839834223	1
5	682	1403.920456823309	2
5	686	1420.273671390911	1
5	689	1440.173971765543	1
5	695	1449.518260083194	1
5	703	1460.539974187747	2
5	710	1467.848024405061	1
5	712	1469.095230486552	2
5	714	1469.985964243131	3
5	719	1480.056475120775	1
5	721	1481.268096005576	2
5	728	1497.204046517625	1
5	734	1518.875082245208	1
5	739	1525.623965836859	1
5	741	1527.782095723479	2
5	744	1529.596622400465	3
5	747	1531.339929549102	3
5	752	1539.152779654656	1
5	754	1540.895297695028	2
5	758	1552.853280549139	1
5	763	1554.383510647309	1
5	767	1572.961662525789	1
5	772	1575.714470806213	2
5	776	1583.828528454689	1
5	779	1598.809142560443	1
5	782	1613.696400737282	1
5	787	1621.907817106086	1
5	789	1622.31002925285	2
5	791	1624.358444580792	3
5	802	1663.757812045068	1
5	804	1666.416554936188	2
5	806	1672.64424859245	3
5	812	1680.526224448561	1
5	822	1710.318132843612	1
5	826	1714.293339977835	2
5	829	1718.084805929546	2
5	833	1725.484517705623	1
5	835	1726.975676381114	2
5	844	1743.294389927774	1
5	848	1744.421660029402	2
5	853	1755.941372109301	3
5	855	1763.668176453331	4
5	862	1770.221910112845	2
5	868	1790.113433138279	1
5	870	1791.583001313832	2
5	875	1801.182068619676	3
5	881	1804.051889999432	1
5	884	1816.993400954675	1
5	887	1819.834835112653	1
5	890	1821.339737626092	1
5	893	1825.14610524439	1
5	896	1828.541154669257	1
5	898	1828.717307722878	2
5	901	1829.424264379244	2
5	904	1834.169884143891	2
5	908	1839.70340363286	1
5	911	1843.468980196812	1
5	916	1855.716236927823	1
5	918	1861.806249823189	2
5	923	1869.715884528952	1
5	926	1871.377560180694	1
5	929	1873.028429102896	1
5	932	1877.997101666317	1
5	941	1903.84832920382	1
5	947	1910.23864665529	1
5	950	1923.432083544034	1
5	955	1960.039365907734	1
5	957	1968.288958189991	2
5	962	1975.326106130925	3
5	964	1980.980090044125	4
5	966	1982.684070999175	5
5	974	1999.747928399395	1
5	977	2010.133410106158	1
5	982	2016.520771429637	1
5	984	2016.753743487101	2
5	991	2027.642227590007	1
5	993	2027.966526499892	2
5	995	2028.769498076468	3
5	1001	2033.860208532856	1
5	1004	2049.487973869718	1
5	1007	2060.097357441063	1
5	1010	2069.15897862647	1
5	1019	2134.481129799226	1
5	1022	2142.074008915878	1
5	1025	2146.781749050434	1
5	1027	2146.784535038275	2
5	1030	2148.086814447921	2
5	1034	2158.500431566153	1
5	1046	2177.132411439339	1
5	1048	2177.799656478916	2
5	1055	2193.954006118779	1
5	1058	2206.945878337797	1
5	1061	2208.441259711246	1
5	1064	2209.854623402569	1
5	1070	2237.548623821418	1
5	1076	2241.407922421277	1
5	1078	2241.759293760181	2
5	1081	2244.136904210264	2
5	1088	2258.445932998195	1
5	1090	2258.665064005915	2
5	1094	2297.678040884525	1
5	1096	2298.970300673345	2
5	1098	2302.107353899143	3
5	1103	2309.250515592818	1
5	1106	2319.217539614216	1
5	1109	2341.010863998471	1
5	1111	2343.787560148528	2
5	1116	2356.269138156631	3
5	1119	2357.424688540216	3
5	1129	2371.83423005954	1
5	1133	2405.260191258795	1
5	1136	2409.872830752608	1
5	1145	2435.258806490311	1
5	1154	2465.030252498576	1
5	1157	2475.340337087485	1
5	1162	2480.296612191078	1
5	1166	2486.589377076387	1
5	1169	2495.328009140238	1
6	160	397.949897162909	0
6	162	398.845194798138	0
6	167	411.471568794108	0
6	168	411.49912876239	0
6	170	420.230523895315	0
6	171	420.933587140537	0
6	173	423.626370630007	0
6	182	433.979021401061	1
6	184	434.997459550596	2
6	187	436.463358371075	3
6	191	447.3390123704	4
6	198	460.684561441791	5
6	200	462.209260645508	6
6	206	471.80022684556	7
6	211	482.12454206374	8
6	214	488.591290372093	8
6	215	489.564464190302	7
6	216	490.122794661966	6
6	217	490.450411652032	5
6	218	493.214355948686	4
6	219	493.760846837978	3
6	220	493.794824802475	2
6	221	496.597482459496	1
6	222	497.902372625569	0
6	224	501.94602011595	0
6	226	504.152873383937	1
6	227	504.728998160446	1
6	228	506.119135323385	0
6	230	506.764314853358	0
6	231	509.167988086224	0
6	233	516.720497587459	0
6	234	519.548629520452	0
6	236	525.084643806652	0
6	237	529.236411102613	0
6	244	535.727868267657	0
6	246	537.018404049543	1
6	248	541.46555785308	1
6	249	541.832718419497	0
6	251	549.634151508763	0
6	253	551.56278072711	1
6	258	559.039735221251	2
6	259	560.354597067236	2
6	260	562.354337733927	1
6	264	562.877230825547	1
6	266	562.954784115561	2
6	268	565.008561718757	3
6	270	565.430729754966	4
6	274	568.095931702788	5
6	278	571.345060115002	6
6	279	571.381901904046	6
6	280	574.760991808856	5
6	281	578.248571380706	4
6	282	578.934841821645	3
6	287	582.639845148548	3
6	288	583.072525386997	3
6	289	586.540706451998	2
6	299	603.13797184067	1
6	300	604.064202012628	0
6	305	608.459123519515	0
6	306	610.387630921294	0
6	314	622.936509287057	0
6	315	624.226705519484	0
6	319	626.569211957683	0
6	321	627.693773523867	0
6	323	631.689727490417	0
6	327	651.690845111766	0
6	331	659.407904956321	0
6	339	679.657796540349	1
6	344	701.327193298871	2
6	346	708.428827081937	2
6	347	709.394490662706	1
6	348	709.76920733566	0
6	350	713.90688556752	0
6	351	715.141325145905	0
6	353	720.086850441601	0
6	354	722.157684907896	0
6	358	727.457895586696	0
6	361	733.313309239065	1
6	362	737.137909933516	1
6	363	739.334886135188	0
6	367	749.354740548087	0
6	377	776.276508363408	1
6	381	777.28756776415	2
6	383	787.378396625648	3
6	386	790.643643360153	4
6	389	800.042271453348	5
6	391	803.00736208599	5
6	392	803.720846583173	4
6	393	804.485746179988	3
6	394	805.168096481233	2
6	395	806.727841958934	1
6	396	809.244914672661	0
6	398	810.570050040013	0
6	399	810.595219915127	0
6	401	817.725022293353	0
6	402	817.9499281534	0
6	408	839.515907787457	0
6	410	841.688057020289	1
6	413	859.638223204385	1
6	414	861.126921214098	0
6	416	862.791215186079	0
6	417	862.874782251257	0
6	419	869.66179205242	0
6	420	873.500907126537	0
6	422	876.497427822597	0
6	423	876.93152559975	0
6	425	877.513300832293	0
6	426	878.023269984304	0
6	428	886.270071100297	0
6	435	898.546085148105	0
6	437	902.631208475954	0
6	441	911.148448702317	0
6	443	920.651580677701	0
6	444	921.352270303474	0
6	446	936.116745149452	0
6	447	936.262926281534	0
6	452	945.211657223258	0
6	453	946.098553409941	0
6	455	958.429144938276	0
6	456	960.33707641872	0
6	458	965.565444506313	0
6	459	965.650869080414	0
6	461	965.738090244711	0
6	463	966.252998812531	1
6	465	969.063236927235	2
6	466	970.152228243297	2
6	470	973.705196395811	2
6	472	975.394861851765	3
6	474	981.092227947627	4
6	476	983.529400294031	4
6	477	984.859990569868	3
6	481	989.392485009399	2
6	482	991.323063482395	1
6	486	996.877295541722	0
6	488	997.320396551664	0
6	495	1004.131180005746	1
6	497	1009.808859567802	2
6	499	1016.717869688649	2
6	500	1017.589005976583	1
6	502	1017.930388621933	1
6	503	1018.660412887363	1
6	504	1021.204829978035	0
6	506	1022.419777073105	0
6	507	1022.663611146245	0
6	509	1025.300882535409	0
6	510	1026.971275185331	0
6	514	1037.939473070161	0
6	516	1039.229428256462	1
6	518	1042.389833343478	1
6	519	1042.668815874492	0
6	521	1049.658067412039	0
6	522	1050.829451189124	0
6	526	1061.06979822698	0
6	528	1071.919528734719	1
6	533	1084.142981708077	1
6	534	1084.150375211512	0
6	536	1095.56391038071	0
6	537	1098.617404669342	0
6	539	1103.766454948256	0
6	540	1104.326092841426	0
6	542	1110.542400832551	0
6	543	1110.793557126114	0
6	545	1123.489569023027	0
6	546	1123.601530395867	0
6	548	1124.218693505945	0
6	549	1128.090323270545	0
6	551	1152.481030913731	0
6	552	1153.217475681244	0
6	554	1158.036682929179	0
6	555	1161.910887068128	0
6	563	1197.501637819124	0
6	564	1198.863551167627	0
6	566	1200.101138425325	0
6	567	1200.30652356486	0
6	569	1211.222097662782	0
6	571	1211.487149992353	1
6	575	1215.774960137696	1
6	576	1216.647802812339	0
6	578	1222.187040243271	0
6	579	1223.652837026114	0
6	581	1229.137359880271	0
6	582	1230.180992738323	0
6	584	1230.742420810067	0
6	585	1231.487425068431	0
6	590	1241.579059115042	0
6	591	1243.096047130171	0
6	593	1243.485386794217	0
6	594	1246.585665414797	0
6	596	1259.835760388708	0
6	597	1260.858805941452	0
6	599	1261.215077139916	0
6	600	1264.961093429861	0
6	609	1281.144771545962	0
6	611	1286.813517328929	1
6	613	1290.596789691155	2
6	619	1305.962453132044	3
6	623	1312.995428447974	4
6	630	1317.376687031108	5
6	632	1320.216093915217	6
6	634	1324.53062450491	7
6	637	1325.881155680585	8
6	643	1335.272079502913	9
6	645	1335.806599765196	10
6	647	1336.515749204007	11
6	649	1340.023926891671	11
6	650	1340.531557892107	10
6	652	1342.118909752105	10
6	653	1344.897212224887	10
6	654	1347.520786979223	9
6	655	1347.619223597584	8
6	656	1347.881582139126	7
6	657	1352.273176932472	6
6	658	1354.682808307746	5
6	659	1355.583605156632	4
6	660	1357.686980562681	3
6	661	1358.716598329867	2
6	665	1361.365114377421	1
6	666	1361.787972694148	0
6	671	1384.84673323077	0
6	673	1386.893093362784	1
6	674	1387.287289763773	1
6	675	1387.393337458079	0
6	677	1391.798389368981	0
6	678	1398.894457787332	0
6	680	1403.202839834223	0
6	682	1403.920456823309	1
6	683	1404.629926944869	1
6	684	1405.192204362923	0
6	686	1420.273671390911	0
6	687	1420.871151074248	0
6	689	1440.173971765543	0
6	690	1440.223273463598	0
6	695	1449.518260083194	0
6	703	1460.539974187747	1
6	707	1465.15719420135	1
6	708	1465.792225064028	0
6	710	1467.848024405061	0
6	712	1469.095230486552	1
6	714	1469.985964243131	2
6	715	1474.196860480518	2
6	716	1474.447302079127	1
6	717	1474.785038702379	0
6	719	1480.056475120775	0
6	721	1481.268096005576	1
6	722	1482.986345606936	1
6	723	1485.229113519354	0
6	728	1497.204046517625	0
6	729	1498.366283478487	0
6	734	1518.875082245208	0
6	735	1519.603931230423	0
6	739	1525.623965836859	0
6	741	1527.782095723479	1
6	744	1529.596622400465	2
6	745	1529.751036836821	2
6	747	1531.339929549102	2
6	748	1533.768631310478	2
6	749	1536.413248287679	1
6	750	1538.555332642972	0
6	752	1539.152779654656	0
6	754	1540.895297695028	1
6	755	1541.992617431918	1
6	756	1542.130589725385	0
6	758	1552.853280549139	0
6	759	1553.17898093596	0
6	763	1554.383510647309	0
6	765	1557.425268792875	0
6	767	1572.961662525789	0
6	772	1575.714470806213	1
6	773	1576.776440560019	1
6	774	1579.38476674196	0
6	776	1583.828528454689	0
6	777	1584.790449312448	0
6	779	1598.809142560443	0
6	780	1600.669728789739	0
6	782	1613.696400737282	0
6	783	1613.984102086267	0
6	787	1621.907817106086	0
6	789	1622.31002925285	1
6	791	1624.358444580792	2
6	793	1639.343201614918	2
6	794	1639.789567567307	1
6	795	1640.062779826829	0
6	802	1663.757812045068	0
6	804	1666.416554936188	1
6	806	1672.64424859245	2
6	808	1674.548921098136	2
6	809	1678.882677323755	1
6	810	1680.150276073805	0
6	812	1680.526224448561	0
6	813	1681.005688477754	0
6	822	1710.318132843612	0
6	826	1714.293339977835	1
6	827	1716.084571348201	1
6	829	1718.084805929546	1
6	830	1720.53063212478	1
6	831	1722.576683190395	0
6	833	1725.484517705623	0
6	835	1726.975676381114	1
6	836	1727.083612679372	1
6	837	1728.329348469841	0
6	844	1743.294389927774	0
6	848	1744.421660029402	1
6	853	1755.941372109301	2
6	855	1763.668176453331	3
6	858	1767.615763447343	3
6	859	1769.468033746566	2
6	860	1770.009154575312	1
6	862	1770.221910112845	1
6	863	1771.123921347804	1
6	864	1771.514567671839	0
6	868	1790.113433138279	0
6	870	1791.583001313832	1
6	875	1801.182068619676	2
6	877	1802.669041788452	2
6	878	1803.003749949262	1
6	879	1803.505234336142	0
6	881	1804.051889999432	0
6	882	1804.390600965306	0
6	884	1816.993400954675	0
6	885	1818.657487605528	0
6	887	1819.834835112653	0
6	888	1820.602728265223	0
6	890	1821.339737626092	0
6	891	1821.774386310246	0
6	893	1825.14610524439	0
6	894	1825.351559360665	0
6	896	1828.541154669257	0
6	898	1828.717307722878	1
6	899	1829.202387132726	1
6	901	1829.424264379244	1
6	902	1831.423005164935	1
6	904	1834.169884143891	1
6	905	1834.356170940404	1
6	906	1834.378632081691	0
6	908	1839.70340363286	0
6	909	1840.403457807128	0
6	911	1843.468980196812	0
6	912	1846.361377308028	0
6	916	1855.716236927823	0
6	918	1861.806249823189	1
6	920	1865.653670361887	1
6	921	1866.555105472826	0
6	923	1869.715884528952	0
6	924	1870.054302004311	0
6	926	1871.377560180694	0
6	927	1872.079497503295	0
6	929	1873.028429102896	0
6	930	1873.241477329075	0
6	932	1877.997101666317	0
6	933	1878.292242907152	0
6	941	1903.84832920382	0
6	942	1903.995989760846	0
6	947	1910.23864665529	0
6	948	1911.173347227525	0
6	950	1923.432083544034	0
6	951	1923.535872168554	0
6	955	1960.039365907734	0
6	957	1968.288958189991	1
6	962	1975.326106130925	2
6	964	1980.980090044125	3
6	966	1982.684070999175	4
6	968	1984.830986417259	4
6	969	1988.737050582102	3
6	970	1990.731530339336	2
6	971	1991.14937130476	1
6	972	1994.044052366098	0
6	974	1999.747928399395	0
6	975	2000.022823184008	0
6	977	2010.133410106158	0
6	978	2011.132104878264	0
6	982	2016.520771429637	0
6	984	2016.753743487101	1
6	986	2023.553710746357	1
6	987	2024.635621592727	0
6	991	2027.642227590007	0
6	993	2027.966526499892	1
6	995	2028.769498076468	2
6	997	2030.224813489687	2
6	998	2031.2199400793	1
6	999	2031.687774571256	0
6	1001	2033.860208532856	0
6	1002	2035.151438067931	0
6	1004	2049.487973869718	0
6	1005	2049.691474618331	0
6	1007	2060.097357441063	0
6	1008	2060.999115135798	0
6	1010	2069.15897862647	0
6	1011	2071.577207415569	0
6	1019	2134.481129799226	0
6	1020	2140.392584853472	0
6	1022	2142.074008915878	0
6	1023	2144.28534637871	0
6	1025	2146.781749050434	0
6	1027	2146.784535038275	1
6	1028	2147.258082619682	1
6	1030	2148.086814447921	1
6	1031	2148.461803327078	1
6	1032	2150.55729343301	0
6	1034	2158.500431566153	0
6	1035	2158.542672309265	0
6	1046	2177.132411439339	0
6	1048	2177.799656478916	1
6	1049	2177.932821135859	1
6	1050	2178.325618203479	0
6	1055	2193.954006118779	0
6	1056	2196.009481972103	0
6	1058	2206.945878337797	0
6	1059	2208.25167244219	0
6	1061	2208.441259711246	0
6	1062	2209.039239095839	0
6	1064	2209.854623402569	0
6	1065	2211.356744187572	0
6	1070	2237.548623821418	0
6	1071	2238.78917250125	0
6	1076	2241.407922421277	0
6	1078	2241.759293760181	1
6	1079	2243.657410935581	1
6	1081	2244.136904210264	1
6	1082	2246.235444648767	1
6	1083	2247.914007653472	0
6	1088	2258.445932998195	0
6	1090	2258.665064005915	1
6	1091	2259.027230672889	1
6	1092	2259.628223657519	0
6	1094	2297.678040884525	0
6	1096	2298.970300673345	1
6	1098	2302.107353899143	2
6	1099	2303.304264519797	2
6	1100	2303.426321318388	1
6	1101	2304.897755948622	0
6	1103	2309.250515592818	0
6	1104	2309.64321635141	0
6	1106	2319.217539614216	0
6	1107	2321.729630714165	0
6	1109	2341.010863998471	0
6	1111	2343.787560148528	1
6	1116	2356.269138156631	2
6	1117	2357.177128383271	2
6	1119	2357.424688540216	2
6	1123	2360.065678030319	2
6	1124	2363.725676377551	1
6	1125	2363.844002506861	0
6	1129	2371.83423005954	0
6	1131	2382.775514052705	0
6	1133	2405.260191258795	0
6	1134	2405.467180422866	0
6	1136	2409.872830752608	0
6	1137	2411.657697132427	0
6	1145	2435.258806490311	0
6	1146	2435.535977963931	0
6	1154	2465.030252498576	0
6	1155	2465.560540848836	0
6	1157	2475.340337087485	0
6	1158	2477.547890636336	0
6	1162	2480.296612191078	0
6	1164	2483.932710339269	0
6	1166	2486.589377076387	0
6	1167	2487.150445908487	0
6	1169	2495.328009140238	0
6	1170	2497.033115883881	0
7	161	397.993784783744	0.043887620835
7	167	411.471568794108	0
7	170	420.230523895315	0
7	173	423.626370630007	0
7	213	486.922500998314	60.508703726782
7	214	488.591290372093	54.612268971032
7	215	489.564464190302	54.567004639706
7	216	490.122794661966	53.659436290891
7	217	490.450411652032	43.111399281632
7	218	493.214355948686	32.529794506895
7	219	493.760846837978	31.55158619247
7	220	493.794824802475	21.994597956915
7	221	496.597482459496	14.472940395756
7	224	501.94602011595	0
7	227	504.728998160446	0.576124776509
7	230	506.764314853358	0
7	233	516.720497587459	0
7	236	525.084643806652	0
7	247	540.898349834745	5.170481567088
7	248	541.46555785308	4.447153803537
7	251	549.634151508763	0
7	256	558.177005693448	6.614224966338
7	259	560.354597067236	8.403620882178
7	260	562.354337733927	3.314602512676
7	276	569.601464196771	7.001606033046
7	279	571.381901904046	8.504671078499
7	280	574.760991808856	11.806207693295
7	281	578.248571380706	13.240009661949
7	282	578.934841821645	13.504112066679
7	285	581.659160612678	13.56322890989
7	288	583.072525386997	11.727465271995
7	289	586.540706451998	6.804873061822
7	298	602.126174259071	19.486329110523
7	299	603.13797184067	15.3011133555
7	305	608.459123519515	0
7	314	622.936509287057	0
7	320	626.570480311854	0.001268354171
7	323	631.689727490417	0
7	326	649.355915719029	13.862141855913
7	345	706.25585502405	46.847950067729
7	346	708.428827081937	28.771030541588
7	347	709.394490662706	8.067297363835
7	350	713.90688556752	0
7	353	720.086850441601	0
7	359	728.335718759196	0.8778231725
7	362	737.137909933516	3.824600694451
7	390	802.801898762698	53.447158214611
7	391	803.00736208599	26.730853722582
7	392	803.720846583173	26.433278819023
7	393	804.485746179988	17.10734955434
7	394	805.168096481233	14.52445312108
7	395	806.727841958934	6.685570505586
7	398	810.570050040013	0
7	401	817.725022293353	0
7	412	857.449744352612	17.933836565155
7	413	859.638223204385	17.950166184096
7	416	862.791215186079	0
7	419	869.66179205242	0
7	422	876.497427822597	0
7	425	877.513300832293	0
7	428	886.270071100297	0
7	434	897.930110713504	11.054197285973
7	437	902.631208475954	0
7	440	908.06059576687	1.89077757424
7	443	920.651580677701	0
7	446	936.116745149452	0
7	452	945.211657223258	0
7	455	958.429144938276	0
7	458	965.565444506313	0
7	461	965.738090244711	0
7	466	970.152228243297	3.899229430766
7	475	981.891204977044	12.827968049809
7	476	983.529400294031	11.426971700162
7	477	984.859990569868	11.154794174057
7	480	989.24526432616	13.850402474395
7	481	989.392485009399	8.300257061772
7	482	991.323063482395	5.710118728357
7	485	995.983326147832	3.546539825634
7	488	997.320396551664	0
7	491	998.847659453747	0.667775776832
7	498	1014.719556470249	12.247141783944
7	499	1016.717869688649	12.586689682903
7	500	1017.589005976583	7.780146408781
7	503	1018.660412887363	0.73002426543
7	506	1022.419777073105	0
7	509	1025.300882535409	0
7	517	1041.317935686792	3.378462616631
7	518	1042.389833343478	3.160405087016
7	521	1049.658067412039	0
7	532	1083.679353300373	22.609555073393
7	533	1084.142981708077	12.223452973358
7	536	1095.56391038071	0
7	539	1103.766454948256	0
7	542	1110.542400832551	0
7	545	1123.489569023027	0
7	548	1124.218693505945	0
7	551	1152.481030913731	0
7	554	1158.036682929179	0
7	563	1197.501637819124	0
7	566	1200.101138425325	0
7	569	1211.222097662782	0
7	574	1214.306284422127	2.819134429774
7	575	1215.774960137696	3.110453367261
7	578	1222.187040243271	0
7	581	1229.137359880271	0
7	584	1230.742420810067	0
7	590	1241.579059115042	0
7	593	1243.485386794217	0
7	596	1259.835760388708	0
7	599	1261.215077139916	0
7	648	1337.156264911054	56.011493365092
7	649	1340.023926891671	53.210409562742
7	650	1340.531557892107	49.934768200952
7	653	1344.897212224887	38.934759092843
7	654	1347.520786979223	34.525358531249
7	655	1347.619223597584	30.242536566476
7	656	1347.881582139126	27.665488223909
7	657	1352.273176932472	27.742552427562
7	658	1354.682808307746	28.801652627161
7	659	1355.583605156632	20.311525653719
7	660	1357.686980562681	21.880380797485
7	661	1358.716598329867	22.20084912586
7	664	1361.256919301887	19.138009549782
7	665	1361.365114377421	2.214558691197
7	671	1384.84673323077	0
7	674	1387.287289763773	0.394196400989
7	677	1391.798389368981	0
7	680	1403.202839834223	0
7	683	1404.629926944869	0.70947012156
7	686	1420.273671390911	0
7	689	1440.173971765543	0
7	695	1449.518260083194	0
7	701	1458.620137081661	8.175095990171
7	706	1463.347374884437	2.80740069669
7	707	1465.15719420135	4.148674436131
7	710	1467.848024405061	0
7	715	1474.196860480518	5.101629993966
7	716	1474.447302079127	4.461337835996
7	719	1480.056475120775	0
7	722	1482.986345606936	1.71824960136
7	728	1497.204046517625	0
7	734	1518.875082245208	0
7	742	1529.570503611471	3.946537774612
7	745	1529.751036836821	1.968941113342
7	748	1533.768631310478	4.172008910013
7	749	1536.413248287679	5.073318738577
7	752	1539.152779654656	0
7	755	1541.992617431918	1.09731973689
7	758	1552.853280549139	0
7	764	1556.664075318141	2.280564670832
7	767	1572.961662525789	0
7	770	1573.600837228158	0.046201224708
7	773	1576.776440560019	1.061969753806
7	776	1583.828528454689	0
7	779	1598.809142560443	0
7	782	1613.696400737282	0
7	792	1636.256046102989	14.348228996903
7	793	1639.343201614918	17.033172362068
7	794	1639.789567567307	15.431122986515
7	807	1674.298066252488	10.54025420742
7	808	1674.548921098136	8.132366161948
7	809	1678.882677323755	6.238428731305
7	812	1680.526224448561	0
7	824	1713.061136113138	2.743003269526
7	827	1716.084571348201	1.791231370366
7	830	1720.53063212478	2.445826195234
7	833	1725.484517705623	0
7	836	1727.083612679372	0.107936298258
7	857	1767.337433857547	24.043043929773
7	858	1767.615763447343	23.194103417941
7	859	1769.468033746566	13.526661637265
7	860	1770.009154575312	6.340978121981
7	863	1771.123921347804	0.902011234959
7	876	1801.736336421762	11.622903283483
7	877	1802.669041788452	11.08604047462
7	878	1803.003749949262	1.821681329586
7	881	1804.051889999432	0
7	884	1816.993400954675	0
7	887	1819.834835112653	0
7	890	1821.339737626092	0
7	893	1825.14610524439	0
7	896	1828.541154669257	0
7	899	1829.202387132726	0.485079409848
7	902	1831.423005164935	1.998740785691
7	905	1834.356170940404	0.186286796513
7	908	1839.70340363286	0
7	911	1843.468980196812	0
7	919	1864.111507854464	8.395270926641
7	920	1865.653670361887	3.847420538698
7	923	1869.715884528952	0
7	926	1871.377560180694	0
7	929	1873.028429102896	0
7	932	1877.997101666317	0
7	941	1903.84832920382	0
7	947	1910.23864665529	0
7	950	1923.432083544034	0
7	958	1972.394384885881	12.355018978147
7	967	1984.184017440829	15.895059250838
7	968	1984.830986417259	12.018515531075
7	969	1988.737050582102	13.410944451177
7	970	1990.731530339336	9.751440295211
7	971	1991.14937130476	8.465300305585
7	974	1999.747928399395	0
7	977	2010.133410106158	0
7	985	2019.550945837422	3.030174407785
7	986	2023.553710746357	6.799967259256
7	996	2029.048594739697	1.40636714969
7	997	2030.224813489687	2.258286989795
7	998	2031.2199400793	2.450442002832
7	1001	2033.860208532856	0
7	1004	2049.487973869718	0
7	1007	2060.097357441063	0
7	1010	2069.15897862647	0
7	1019	2134.481129799226	0
7	1022	2142.074008915878	0
7	1025	2146.781749050434	0
7	1028	2147.258082619682	0.473547581407
7	1031	2148.461803327078	0.374988879157
7	1034	2158.500431566153	0
7	1046	2177.132411439339	0
7	1049	2177.932821135859	0.133164656943
7	1055	2193.954006118779	0
7	1058	2206.945878337797	0
7	1061	2208.441259711246	0
7	1064	2209.854623402569	0
7	1070	2237.548623821418	0
7	1076	2241.407922421277	0
7	1079	2243.657410935581	1.8981171754
7	1082	2246.235444648767	2.098540438503
7	1088	2258.445932998195	0
7	1091	2259.027230672889	0.362166666974
7	1094	2297.678040884525	0
7	1099	2303.304264519797	4.333963846452
7	1100	2303.426321318388	1.318967419245
7	1103	2309.250515592818	0
7	1106	2319.217539614216	0
7	1109	2341.010863998471	0
7	1114	2355.460201277653	11.672641129125
7	1117	2357.177128383271	11.798620628874
7	1122	2359.104050791755	2.834912635124
7	1123	2360.065678030319	2.640989490103
7	1124	2363.725676377551	4.825344144695
7	1130	2380.868795017123	9.034564957583
7	1133	2405.260191258795	0
7	1136	2409.872830752608	0
7	1145	2435.258806490311	0
7	1154	2465.030252498576	0
7	1157	2475.340337087485	0
7	1163	2481.350023540811	1.053411349733
7	1166	2486.589377076387	0
7	1169	2495.328009140238	0
8	162	398.845194798138	38
8	168	411.49912876239	39
8	171	420.933587140537	40
8	214	488.591290372093	41
8	215	489.564464190302	42
8	216	490.122794661966	43
8	217	490.450411652032	44
8	218	493.214355948686	45
8	219	493.760846837978	46
8	220	493.794824802475	47
8	221	496.597482459496	48
8	222	497.902372625569	49
8	227	504.728998160446	50
8	228	506.119135323385	51
8	231	509.167988086224	52
8	234	519.548629520452	53
8	237	529.236411102613	54
8	248	541.46555785308	55
8	249	541.832718419497	56
8	259	560.354597067236	57
8	260	562.354337733927	58
8	279	571.381901904046	59
8	280	574.760991808856	60
8	281	578.248571380706	61
8	282	578.934841821645	62
8	288	583.072525386997	63
8	289	586.540706451998	64
8	299	603.13797184067	65
8	300	604.064202012628	66
8	306	610.387630921294	67
8	315	624.226705519484	68
8	321	627.693773523867	69
8	327	651.690845111766	70
8	346	708.428827081937	71
8	347	709.394490662706	72
8	348	709.76920733566	73
8	351	715.141325145905	74
8	354	722.157684907896	75
8	362	737.137909933516	76
8	363	739.334886135188	77
8	391	803.00736208599	78
8	392	803.720846583173	79
8	393	804.485746179988	80
8	394	805.168096481233	81
8	395	806.727841958934	82
8	396	809.244914672661	83
8	399	810.595219915127	84
8	402	817.9499281534	85
8	413	859.638223204385	86
8	414	861.126921214098	87
8	417	862.874782251257	88
8	420	873.500907126537	89
8	423	876.93152559975	90
8	426	878.023269984304	91
8	435	898.546085148105	92
8	441	911.148448702317	93
8	444	921.352270303474	94
8	447	936.262926281534	95
8	453	946.098553409941	96
8	456	960.33707641872	97
8	459	965.650869080414	98
8	466	970.152228243297	99
8	476	983.529400294031	100
8	477	984.859990569868	101
8	481	989.392485009399	102
8	482	991.323063482395	103
8	486	996.877295541722	104
8	499	1016.717869688649	105
8	500	1017.589005976583	106
8	503	1018.660412887363	107
8	504	1021.204829978035	108
8	507	1022.663611146245	109
8	510	1026.971275185331	110
8	518	1042.389833343478	111
8	519	1042.668815874492	112
8	522	1050.829451189124	113
8	533	1084.142981708077	114
8	534	1084.150375211512	115
8	537	1098.617404669342	116
8	540	1104.326092841426	117
8	543	1110.793557126114	118
8	546	1123.601530395867	119
8	549	1128.090323270545	120
8	552	1153.217475681244	121
8	555	1161.910887068128	122
8	564	1198.863551167627	123
8	567	1200.30652356486	124
8	575	1215.774960137696	125
8	576	1216.647802812339	126
8	579	1223.652837026114	127
8	582	1230.180992738323	128
8	585	1231.487425068431	129
8	591	1243.096047130171	130
8	594	1246.585665414797	131
8	597	1260.858805941452	132
8	600	1264.961093429861	133
8	649	1340.023926891671	134
8	650	1340.531557892107	135
8	653	1344.897212224887	136
8	654	1347.520786979223	137
8	655	1347.619223597584	138
8	656	1347.881582139126	139
8	657	1352.273176932472	140
8	658	1354.682808307746	141
8	659	1355.583605156632	142
8	660	1357.686980562681	143
8	661	1358.716598329867	144
8	665	1361.365114377421	145
8	666	1361.787972694148	146
8	674	1387.287289763773	147
8	675	1387.393337458079	148
8	678	1398.894457787332	149
8	683	1404.629926944869	150
8	684	1405.192204362923	151
8	687	1420.871151074248	152
8	690	1440.223273463598	153
8	707	1465.15719420135	154
8	708	1465.792225064028	155
8	715	1474.196860480518	156
8	716	1474.447302079127	157
8	717	1474.785038702379	158
8	722	1482.986345606936	159
8	723	1485.229113519354	160
8	729	1498.366283478487	161
8	735	1519.603931230423	162
8	745	1529.751036836821	163
8	748	1533.768631310478	164
8	749	1536.413248287679	165
8	750	1538.555332642972	166
8	755	1541.992617431918	167
8	756	1542.130589725385	168
8	759	1553.17898093596	169
8	765	1557.425268792875	170
8	773	1576.776440560019	171
8	774	1579.38476674196	172
8	777	1584.790449312448	173
8	780	1600.669728789739	174
8	783	1613.984102086267	175
8	793	1639.343201614918	176
8	794	1639.789567567307	177
8	795	1640.062779826829	178
8	808	1674.548921098136	179
8	809	1678.882677323755	180
8	810	1680.150276073805	181
8	813	1681.005688477754	182
8	827	1716.084571348201	183
8	830	1720.53063212478	184
8	831	1722.576683190395	185
8	836	1727.083612679372	186
8	837	1728.329348469841	187
8	858	1767.615763447343	188
8	859	1769.468033746566	189
8	860	1770.009154575312	190
8	863	1771.123921347804	191
8	864	1771.514567671839	192
8	877	1802.669041788452	193
8	878	1803.003749949262	194
8	879	1803.505234336142	195
8	882	1804.390600965306	196
8	885	1818.657487605528	197
8	888	1820.602728265223	198
8	891	1821.774386310246	199
8	894	1825.351559360665	200
8	899	1829.202387132726	201
8	902	1831.423005164935	202
8	905	1834.356170940404	203
8	906	1834.378632081691	204
8	909	1840.403457807128	205
8	912	1846.361377308028	206
8	920	1865.653670361887	207
8	921	1866.555105472826	208
8	924	1870.054302004311	209
8	927	1872.079497503295	210
8	930	1873.241477329075	211
8	933	1878.292242907152	212
8	942	1903.995989760846	213
8	948	1911.173347227525	214
8	951	1923.535872168554	215
8	968	1984.830986417259	216
8	969	1988.737050582102	217
8	970	1990.731530339336	218
8	971	1991.14937130476	219
8	972	1994.044052366098	220
8	975	2000.022823184008	221
8	978	2011.132104878264	222
8	986	2023.553710746357	223
8	987	2024.635621592727	224
8	997	2030.224813489687	225
8	998	2031.2199400793	226
8	999	2031.687774571256	227
8	1002	2035.151438067931	228
8	1005	2049.691474618331	229
8	1008	2060.999115135798	230
8	1011	2071.577207415569	231
8	1020	2140.392584853472	232
8	1023	2144.28534637871	233
8	1028	2147.258082619682	234
8	1031	2148.461803327078	235
8	1032	2150.55729343301	236
8	1035	2158.542672309265	237
8	1049	2177.932821135859	238
8	1050	2178.325618203479	239
8	1056	2196.009481972103	240
8	1059	2208.25167244219	241
8	1062	2209.039239095839	242
8	1065	2211.356744187572	243
8	1071	2238.78917250125	244
8	1079	2243.657410935581	245
8	1082	2246.235444648767	246
8	1083	2247.914007653472	247
8	1091	2259.027230672889	248
8	1092	2259.628223657519	249
8	1099	2303.304264519797	250
8	1100	2303.426321318388	251
8	1101	2304.897755948622	252
8	1104	2309.64321635141	253
8	1107	2321.729630714165	254
8	1117	2357.177128383271	255
8	1123	2360.065678030319	256
8	1124	2363.725676377551	257
8	1125	2363.844002506861	258
8	1131	2382.775514052705	259
8	1134	2405.467180422866	260
8	1137	2411.657697132427	261
8	1146	2435.535977963931	262
8	1155	2465.560540848836	263
8	1158	2477.547890636336	264
8	1164	2483.932710339269	265
8	1167	2487.150445908487	266
8	1170	2497.033115883881	267
9	162	398.845194798138	0.895297635229
9	168	411.49912876239	0.027559968282
9	171	420.933587140537	0.703063245222
9	214	488.591290372093	62.177493100561
9	215	489.564464190302	55.585442789241
9	216	490.122794661966	55.12533511137
9	217	490.450411652032	53.987053280957
9	218	493.214355948686	45.875343578286
9	219	493.760846837978	33.076285396187
9	220	493.794824802475	31.585564156967
9	221	496.597482459496	24.797255613936
9	222	497.902372625569	15.777830561829
9	227	504.728998160446	2.782978044496
9	228	506.119135323385	1.966261939448
9	231	509.167988086224	2.403673232866
9	234	519.548629520452	2.828131932993
9	237	529.236411102613	4.151767295961
9	248	541.46555785308	5.737689585423
9	249	541.832718419497	4.814314369954
9	259	560.354597067236	8.791816340126
9	260	562.354337733927	10.403361548869
9	279	571.381901904046	8.782043740321
9	280	574.760991808856	11.883760983309
9	281	578.248571380706	15.293787265145
9	282	578.934841821645	13.926280102888
9	288	583.072525386997	14.976593684209
9	289	586.540706451998	15.195646336996
9	299	603.13797184067	20.498126692122
9	300	604.064202012628	16.227343527458
9	306	610.387630921294	1.928507401779
9	315	624.226705519484	1.290196232427
9	321	627.693773523867	1.124561566184
9	327	651.690845111766	16.19707124865
9	346	708.428827081937	49.020922125616
9	347	709.394490662706	29.736694122357
9	348	709.76920733566	8.442014036789
9	351	715.141325145905	1.234439578385
9	354	722.157684907896	2.070834466295
9	362	737.137909933516	9.68001434682
9	363	739.334886135188	6.021576896123
9	391	803.00736208599	53.652621537903
9	392	803.720846583173	27.444338219765
9	393	804.485746179988	27.198178415838
9	394	805.168096481233	17.789699855585
9	395	806.727841958934	16.084198598781
9	396	809.244914672661	9.202643219313
9	399	810.595219915127	0.025169875114
9	402	817.9499281534	0.224905860047
9	413	859.638223204385	20.122315416928
9	414	861.126921214098	19.438864193809
9	417	862.874782251257	0.083567065178
9	420	873.500907126537	3.839115074117
9	423	876.93152559975	0.434097777153
9	426	878.023269984304	0.509969152011
9	435	898.546085148105	11.670171720574
9	441	911.148448702317	4.978630509687
9	444	921.352270303474	0.700689625773
9	447	936.262926281534	0.146181132082
9	453	946.098553409941	0.886896186683
9	456	960.33707641872	1.907931480444
9	459	965.650869080414	0.085424574101
9	466	970.152228243297	4.414137998586
9	476	983.529400294031	14.466163366796
9	477	984.859990569868	12.757561975999
9	481	989.392485009399	13.997623157634
9	482	991.323063482395	10.230835534768
9	486	996.877295541722	4.440509219524
9	499	1016.717869688649	14.245455002344
9	500	1017.589005976583	13.457825970837
9	503	1018.660412887363	8.851553319561
9	504	1021.204829978035	3.274441356102
9	507	1022.663611146245	0.24383407314
9	510	1026.971275185331	1.670392649922
9	518	1042.389833343478	4.450360273317
9	519	1042.668815874492	3.43938761803
9	522	1050.829451189124	1.171383777085
9	533	1084.142981708077	23.073183481097
9	534	1084.150375211512	12.230846476793
9	537	1098.617404669342	3.053494288632
9	540	1104.326092841426	0.55963789317
9	543	1110.793557126114	0.251156293563
9	546	1123.601530395867	0.11196137284
9	549	1128.090323270545	3.8716297646
9	552	1153.217475681244	0.736444767513
9	555	1161.910887068128	3.874204138949
9	564	1198.863551167627	1.361913348503
9	567	1200.30652356486	0.205385139535
9	575	1215.774960137696	4.287810145343
9	576	1216.647802812339	3.983296041904
9	579	1223.652837026114	1.465796782843
9	582	1230.180992738323	1.043632858052
9	585	1231.487425068431	0.745004258364
9	591	1243.096047130171	1.516988015129
9	594	1246.585665414797	3.10027862058
9	597	1260.858805941452	1.023045552744
9	600	1264.961093429861	3.746016289945
9	649	1340.023926891671	58.879155345709
9	650	1340.531557892107	53.718040563178
9	653	1344.897212224887	54.300422533732
9	654	1347.520786979223	41.558333847179
9	655	1347.619223597584	34.62379514961
9	656	1347.881582139126	30.504895108018
9	657	1352.273176932472	32.057083017255
9	658	1354.682808307746	30.152183802836
9	659	1355.583605156632	29.702449476047
9	660	1357.686980562681	22.414901059768
9	661	1358.716598329867	22.909998564671
9	665	1361.365114377421	19.246204625316
9	666	1361.787972694148	2.637417007924
9	674	1387.287289763773	2.440556533003
9	675	1387.393337458079	0.500244095295
9	678	1398.894457787332	7.096068418351
9	683	1404.629926944869	1.427087110646
9	684	1405.192204362923	1.271747539614
9	687	1420.871151074248	0.597479683337
9	690	1440.223273463598	0.049301698055
9	707	1465.15719420135	4.617220013603
9	708	1465.792225064028	4.783705298809
9	715	1474.196860480518	6.348836075457
9	716	1474.447302079127	5.352071592575
9	717	1474.785038702379	4.799074459248
9	722	1482.986345606936	2.929870486161
9	723	1485.229113519354	3.961017513778
9	729	1498.366283478487	1.162236960862
9	735	1519.603931230423	0.728848985215
9	745	1529.751036836821	4.127070999962
9	748	1533.768631310478	5.986535586999
9	749	1536.413248287679	6.816625887214
9	750	1538.555332642972	7.21540309387
9	755	1541.992617431918	2.839837777262
9	756	1542.130589725385	1.235292030357
9	759	1553.17898093596	0.325700386821
9	765	1557.425268792875	3.041758145566
9	773	1576.776440560019	3.221804556569
9	774	1579.38476674196	3.670295935747
9	777	1584.790449312448	0.961920857759
9	780	1600.669728789739	1.860586229296
9	783	1613.984102086267	0.287701348985
9	793	1639.343201614918	17.435384508832
9	794	1639.789567567307	17.479538314457
9	795	1640.062779826829	15.704335246037
9	808	1674.548921098136	10.791109053068
9	809	1678.882677323755	12.466122387567
9	810	1680.150276073805	7.506027481355
9	813	1681.005688477754	0.479464029193
9	827	1716.084571348201	5.766438504589
9	830	1720.53063212478	6.237292146945
9	831	1722.576683190395	4.491877260849
9	836	1727.083612679372	1.599094973749
9	837	1728.329348469841	1.353672088727
9	858	1767.615763447343	24.321373519569
9	859	1769.468033746566	25.046373717164
9	860	1770.009154575312	14.067782466011
9	863	1771.123921347804	7.455744894473
9	864	1771.514567671839	1.292657558994
9	877	1802.669041788452	12.555608650173
9	878	1803.003749949262	11.42074863543
9	879	1803.505234336142	2.323165716466
9	882	1804.390600965306	0.338710965874
9	885	1818.657487605528	1.664086650853
9	888	1820.602728265223	0.76789315257
9	891	1821.774386310246	0.434648684154
9	894	1825.351559360665	0.205454116275
9	899	1829.202387132726	0.661232463469
9	902	1831.423005164935	2.705697442057
9	905	1834.356170940404	4.93190656116
9	906	1834.378632081691	0.2087479378
9	909	1840.403457807128	0.700054174268
9	912	1846.361377308028	2.892397111216
9	920	1865.653670361887	9.937433434064
9	921	1866.555105472826	4.748855649637
9	924	1870.054302004311	0.338417475359
9	927	1872.079497503295	0.701937322601
9	930	1873.241477329075	0.213048226179
9	933	1878.292242907152	0.295141240835
9	942	1903.995989760846	0.147660557026
9	948	1911.173347227525	0.934700572235
9	951	1923.535872168554	0.10378862452
9	968	1984.830986417259	16.542028227268
9	969	1988.737050582102	15.924579695918
9	970	1990.731530339336	15.405424208411
9	971	1991.14937130476	10.169281260635
9	972	1994.044052366098	11.359981366923
9	975	2000.022823184008	0.274894784613
9	978	2011.132104878264	0.998694772106
9	986	2023.553710746357	7.03293931672
9	987	2024.635621592727	7.881878105626
9	997	2030.224813489687	2.58258589968
9	998	2031.2199400793	3.253413579408
9	999	2031.687774571256	2.918276494788
9	1002	2035.151438067931	1.291229535075
9	1005	2049.691474618331	0.203500748613
9	1008	2060.999115135798	0.901757694735
9	1011	2071.577207415569	2.418228789099
9	1020	2140.392584853472	5.911455054246
9	1023	2144.28534637871	2.211337462832
9	1028	2147.258082619682	0.476333569248
9	1031	2148.461803327078	1.677268288803
9	1032	2150.55729343301	2.470478985089
9	1035	2158.542672309265	0.042240743112
9	1049	2177.932821135859	0.80040969652
9	1050	2178.325618203479	0.525961724563
9	1056	2196.009481972103	2.055475853324
9	1059	2208.25167244219	1.305794104393
9	1062	2209.039239095839	0.597979384593
9	1065	2211.356744187572	1.502120785003
9	1071	2238.78917250125	1.240548679832
9	1079	2243.657410935581	2.249488514304
9	1082	2246.235444648767	4.476150888586
9	1083	2247.914007653472	3.777103443208
9	1091	2259.027230672889	0.581297674694
9	1092	2259.628223657519	0.963159651604
9	1099	2303.304264519797	5.626223635272
9	1100	2303.426321318388	4.456020645043
9	1101	2304.897755948622	2.790402049479
9	1104	2309.64321635141	0.392700758592
9	1107	2321.729630714165	2.512091099949
9	1117	2357.177128383271	13.389568234743
9	1123	2360.065678030319	3.796539873688
9	1124	2363.725676377551	6.300987837335
9	1125	2363.844002506861	4.943670274005
9	1131	2382.775514052705	10.941283993165
9	1134	2405.467180422866	0.206989164071
9	1137	2411.657697132427	1.784866379819
9	1146	2435.535977963931	0.27717147362
9	1155	2465.560540848836	0.53028835026
9	1158	2477.547890636336	2.207553548851
9	1164	2483.932710339269	3.636098148191
9	1167	2487.150445908487	0.5610688321
9	1170	2497.033115883881	1.705106743643
10	175	426.413797271532	3
10	255	551.950976185058	4
10	262	562.599858163725	5
10	284	579.735833390176	6
10	291	587.83685848517	7
10	325	635.493773863116	8
10	430	886.875913427531	9
10	439	906.16981819263	10
10	468	972.102428593869	11
10	479	985.612944754038	12
10	484	992.436786322198	13
10	490	998.179883676915	14
10	493	1002.472414686305	15
10	573	1212.664506770435	16
10	663	1359.150555686224	17
10	697	1450.44504109149	18
10	705	1461.008519765219	19
10	769	1573.55463600345	20
10	960	1972.812470886184	21
10	1113	2345.378507754397	22
10	1121	2358.900332232856	23
11	1171	2500	0.1068
12	1171	2500	0.0492

