version 2
run experiments_easy_game_mode1-775-20230308-12:04:36-22330
attr configname experiments_easy_game_mode1
attr datetime 20230308-12:04:36
attr experiment experiments_easy_game_mode1
attr inifile omnetpp.ini
attr iterationvars "$0=6, $1=1, $2=100"
attr iterationvarsf 6,1,100-
attr measurement "$0=6, $1=1, $2=100"
attr network Network
attr processid 22330
attr repetition 25
attr replication #25
attr resultdir results
attr runnumber 775
attr seedset 25
param *.boss.arrival_mean 20
param *.boss.service_mean 6
param *.minion.arrival_mean 10
param *.minion.service_mean 1
param *.player.recover_rate_x 100
param **.minion.arrival_distribution 0
param **.minion.service_distribution 0
param **.boss.arrival_distribution 0
param **.boss.service_distribution 0

vector 0 Network.player minion_jobs_number_stat:vector ETV
attr source signal_minion_jobs_number
vector 1 Network.player minion_jobs_queue_number_stat:vector ETV
attr source signal_minion_jobs_queue_number
vector 2 Network.player minion_waiting_time_stat:vector ETV
attr source signal_minion_waiting_time
vector 3 Network.player minion_defeated_stat:vector ETV
attr source signal_minion_defeated
vector 4 Network.player minion_response_time_stat:vector ETV
attr source signal_minion_response_time
vector 5 Network.player boss_jobs_number_stat:vector ETV
attr source signal_boss_jobs_number
vector 6 Network.player boss_jobs_queue_number_stat:vector ETV
attr source signal_boss_jobs_queue_number
vector 7 Network.player boss_waiting_time_stat:vector ETV
attr source signal_boss_waiting_time
vector 8 Network.player boss_defeated_stat:vector ETV
attr source signal_boss_defeated
vector 9 Network.player boss_response_time_stat:vector ETV
attr source signal_boss_response_time
vector 10 Network.player minion_recovered_stat:vector ETV
attr source signal_minion_recovered
vector 11 Network.player minion_throughput:vector ETV
attr source signal_minion_throughput
vector 12 Network.player boss_throughput:vector ETV
attr source signal_boss_throughput
0	191	362.268301555052	1
0	194	372.539545306647	1
0	197	389.5577846975	1
0	203	414.818044092872	1
0	206	418.914461495836	1
0	209	422.465171795664	1
0	212	424.393867145197	1
0	215	432.804436750576	1
0	218	437.469845809978	1
0	220	439.43759280015	2
0	222	439.494640283028	3
0	227	447.099776189344	1
0	230	450.009000750263	1
0	239	460.413136447785	1
0	247	476.292959556537	2
0	249	477.825233390619	3
0	251	477.978958605117	4
0	257	486.687089681864	5
0	260	495.821123181817	6
0	264	502.344821873946	6
0	272	511.603297954585	1
0	275	516.487729742531	1
0	278	517.598695609658	1
0	285	523.405186700692	1
0	288	528.216939838918	2
0	296	533.404800948007	1
0	298	533.776380340601	2
0	302	539.614897092334	1
0	305	561.725131358257	1
0	307	562.030994378217	2
0	317	601.622588852045	1
0	330	616.583918304718	1
0	332	617.202055236483	2
0	334	625.20845208981	3
0	341	647.330956320507	1
0	346	652.128642281043	1
0	352	660.730144932448	1
0	355	668.264761222758	2
0	359	681.831327910446	1
0	372	713.268292223129	1
0	379	723.215787602191	1
0	383	725.14946673918	1
0	386	733.868430710604	1
0	389	735.127497066748	1
0	391	735.334006060362	2
0	400	755.207784703715	1
0	402	757.56534454334	2
0	404	758.343520951228	3
0	410	766.211176156565	1
0	416	783.646291317493	1
0	419	798.304653878913	1
0	427	816.391582886859	1
0	429	819.277677665164	2
0	432	820.061563309576	3
0	437	823.42882570197	1
0	439	823.543488412463	2
0	443	842.67564930696	1
0	445	843.171970421776	2
0	458	880.063361957828	1
0	461	884.481376070648	1
0	470	906.096858491925	1
0	473	917.053825168664	1
0	476	921.509009293989	1
0	479	921.623558985843	1
0	482	930.757980628926	1
0	485	931.899950272343	1
0	488	936.281831491434	1
0	494	959.409509175819	1
0	497	963.567546048599	1
0	500	979.409086802269	1
0	503	981.370220921466	1
0	506	998.054723841462	1
0	509	1000.768798821923	1
0	512	1010.993038112039	1
0	514	1011.452035498437	2
0	518	1021.254450093468	1
0	521	1028.295144927556	1
0	524	1029.867620550508	1
0	527	1034.587716186418	1
0	533	1043.032439090477	1
0	536	1052.017080031089	1
0	538	1052.690370788896	2
0	545	1062.631322734337	1
0	549	1066.391539861803	2
0	553	1067.93005079115	2
0	557	1070.377116493317	1
0	568	1097.534105512189	1
0	572	1105.019655488875	1
0	578	1134.27796456258	1
0	581	1139.848551853526	1
0	584	1149.06904089752	1
0	593	1189.599395587986	1
0	596	1194.505807403182	1
0	599	1196.01928749176	1
0	602	1200.532095542279	1
0	614	1214.331704468146	1
0	620	1216.617603927497	1
0	625	1232.169014153108	1
0	630	1235.4092257353	2
0	637	1248.517259157264	1
0	639	1251.34799789722	2
0	650	1270.031272383515	1
0	653	1271.93813285379	1
0	660	1280.061728632661	1
0	666	1314.056626373889	2
0	668	1314.642060538589	3
0	683	1346.110542516041	1
0	689	1367.889872199002	1
0	692	1377.002249574517	1
0	695	1380.777105870427	1
0	698	1393.91873141806	1
0	703	1402.137446976738	1
0	707	1406.298439893118	1
0	710	1409.22892971003	1
0	713	1410.194651094536	1
0	719	1437.522502562912	1
0	722	1443.749352849394	1
0	725	1444.09780329844	1
0	728	1451.204784155259	1
0	734	1462.805777634181	1
0	737	1463.731977581261	1
0	740	1469.511161625262	1
0	745	1477.019670783198	1
0	755	1515.060756568655	1
0	761	1563.543419170754	1
0	764	1570.03250521935	1
0	767	1575.058367380463	1
0	769	1577.78896422583	2
0	773	1581.877619595059	1
0	782	1608.811795845907	1
0	785	1625.182484363768	1
0	788	1626.652589770851	1
0	794	1640.691024145245	1
0	797	1642.577573599617	1
0	800	1646.33275066046	1
0	805	1653.325499605877	1
0	810	1663.377721449981	2
0	812	1663.952454281951	3
0	816	1671.726541129088	4
0	818	1675.260018520552	5
0	821	1678.781068984512	6
0	833	1705.05225861694	1
0	836	1706.226453516503	1
0	839	1711.11377483187	1
0	842	1714.8627502655	1
0	845	1721.06404982859	1
0	848	1727.17012513038	1
0	851	1735.812540871975	1
0	854	1746.56951169048	1
0	856	1747.778998890395	2
0	859	1750.71274830933	2
0	863	1755.30795447233	1
0	866	1765.555104458504	1
0	872	1770.029676397522	1
0	875	1772.262657099428	1
0	885	1793.466833075335	1
0	890	1804.185314060336	1
0	893	1807.394835518921	1
0	899	1822.458650725485	1
0	902	1825.002170506213	1
0	905	1840.125209822443	1
0	908	1856.943854044585	1
0	913	1866.36835717076	1
0	915	1866.967988551273	2
0	917	1870.664148085307	3
0	926	1883.763165252108	1
0	929	1895.727674013799	1
0	931	1896.05992377377	2
0	935	1915.693824578514	1
0	941	1924.856412670584	1
0	944	1934.673342550855	1
0	947	1934.983514581488	1
0	955	1975.386526062438	1
0	959	1995.019471867634	1
0	965	2032.527073200167	1
0	974	2038.321321843496	1
0	977	2040.144866994231	1
0	980	2048.364783550259	1
0	982	2048.599293271919	2
0	991	2065.604154607833	1
0	995	2067.356556141222	2
0	997	2068.288749076046	3
0	1004	2093.992979575455	1
0	1007	2106.082421873943	1
0	1016	2136.776177976287	1
0	1019	2141.646815259144	1
0	1022	2144.016431336242	1
0	1024	2144.192192413957	2
0	1027	2148.663273855185	2
0	1029	2149.186389597899	3
0	1034	2157.157593129116	3
0	1040	2162.868158370205	1
0	1043	2166.040377421226	1
0	1057	2203.69533380782	1
0	1059	2209.868342587088	2
0	1061	2210.853110882239	3
0	1067	2222.765702767109	1
0	1070	2230.784603645069	1
0	1075	2237.723195822719	1
0	1077	2248.02628028613	2
0	1085	2260.616590731246	1
0	1088	2266.419323782936	1
0	1091	2273.883873674355	1
0	1097	2289.436867201682	1
0	1099	2289.450867187436	2
0	1108	2301.640294843342	1
0	1112	2306.660610274913	2
0	1121	2319.4066505354	1
0	1124	2326.182676171753	1
0	1127	2333.049889534637	1
0	1130	2338.206266866647	1
0	1133	2351.433664253972	1
0	1136	2355.807840710371	1
0	1139	2376.564926396232	1
0	1142	2383.508692131047	1
0	1147	2391.716211887763	1
0	1151	2397.607266565843	1
0	1154	2409.014576527272	1
0	1157	2409.962440350145	1
0	1160	2414.557918742161	1
0	1163	2417.753952768565	1
0	1168	2426.6975034803	1
0	1178	2455.428597487807	1
0	1181	2461.949854324953	1
0	1184	2462.218887467808	1
0	1191	2468.204834621618	2
0	1193	2468.6130409442	3
0	1195	2471.443904714921	4
0	1201	2474.772656864287	2
0	1208	2490.223068541484	1
0	1211	2498.954044201238	1
1	191	362.268301555052	0
1	192	362.997837801052	0
1	194	372.539545306647	0
1	195	374.108927892919	0
1	197	389.5577846975	0
1	198	389.607484035569	0
1	203	414.818044092872	0
1	204	415.427774195273	0
1	206	418.914461495836	0
1	207	419.062809818163	0
1	209	422.465171795664	0
1	210	424.217776769587	0
1	212	424.393867145197	0
1	213	424.600851252138	0
1	215	432.804436750576	0
1	216	432.962541414457	0
1	218	437.469845809978	0
1	220	439.43759280015	1
1	222	439.494640283028	2
1	223	442.640280848449	2
1	224	443.563172035188	1
1	225	444.298528415124	0
1	227	447.099776189344	0
1	228	447.994488909528	0
1	230	450.009000750263	0
1	231	450.873623412408	0
1	239	460.413136447785	0
1	247	476.292959556537	1
1	249	477.825233390619	2
1	251	477.978958605117	3
1	257	486.687089681864	4
1	260	495.821123181817	5
1	262	501.354662776599	5
1	264	502.344821873946	5
1	265	502.682005655935	5
1	266	503.359311081475	4
1	267	504.140113711346	3
1	268	505.455053643281	2
1	269	507.89866734174	1
1	270	509.64943051279	0
1	272	511.603297954585	0
1	273	513.253142081938	0
1	275	516.487729742531	0
1	276	516.561392640372	0
1	278	517.598695609658	0
1	279	518.114530146572	0
1	285	523.405186700692	0
1	288	528.216939838918	1
1	293	532.418099611647	1
1	294	532.860059127912	0
1	296	533.404800948007	0
1	298	533.776380340601	1
1	299	534.543295855815	1
1	300	537.598283798047	0
1	302	539.614897092334	0
1	303	540.861768985238	0
1	305	561.725131358257	0
1	307	562.030994378217	1
1	308	562.146164383713	1
1	309	563.206886867121	0
1	317	601.622588852045	0
1	321	606.005522292107	0
1	330	616.583918304718	0
1	332	617.202055236483	1
1	334	625.20845208981	2
1	337	640.801457440017	2
1	338	642.5750492292	1
1	339	642.726291298569	0
1	341	647.330956320507	0
1	342	648.103496238582	0
1	346	652.128642281043	0
1	348	653.370459084335	0
1	352	660.730144932448	0
1	355	668.264761222758	1
1	356	669.904532685411	1
1	357	670.313340800909	0
1	359	681.831327910446	0
1	360	681.933522857427	0
1	372	713.268292223129	0
1	375	721.339275833518	0
1	379	723.215787602191	0
1	381	724.675896699943	0
1	383	725.14946673918	0
1	384	727.133826072811	0
1	386	733.868430710604	0
1	387	735.077440510008	0
1	389	735.127497066748	0
1	391	735.334006060362	1
1	392	735.644538501958	1
1	393	737.856185386609	0
1	400	755.207784703715	0
1	402	757.56534454334	1
1	404	758.343520951228	2
1	406	765.948726384738	2
1	407	766.122556457774	1
1	408	766.190357162872	0
1	410	766.211176156565	0
1	411	766.533549803995	0
1	416	783.646291317493	0
1	417	785.727711758547	0
1	419	798.304653878913	0
1	420	799.420895254644	0
1	427	816.391582886859	0
1	429	819.277677665164	1
1	432	820.061563309576	2
1	433	820.115556176437	2
1	434	820.295045502116	1
1	435	820.304378397999	0
1	437	823.42882570197	0
1	439	823.543488412463	1
1	440	824.637379433373	1
1	441	825.218000390231	0
1	443	842.67564930696	0
1	445	843.171970421776	1
1	446	843.344367760789	1
1	447	844.304683469612	0
1	458	880.063361957828	0
1	459	881.204916513899	0
1	461	884.481376070648	0
1	462	885.268266160475	0
1	470	906.096858491925	0
1	471	906.834058280828	0
1	473	917.053825168664	0
1	474	917.592508387102	0
1	476	921.509009293989	0
1	477	921.553375785866	0
1	479	921.623558985843	0
1	480	922.931608146083	0
1	482	930.757980628926	0
1	483	931.011501699819	0
1	485	931.899950272343	0
1	486	932.048534140525	0
1	488	936.281831491434	0
1	489	937.137980275521	0
1	494	959.409509175819	0
1	495	961.648812919183	0
1	497	963.567546048599	0
1	498	963.695872335694	0
1	500	979.409086802269	0
1	501	979.679596344247	0
1	503	981.370220921466	0
1	504	982.063601568074	0
1	506	998.054723841462	0
1	507	998.117843344603	0
1	509	1000.768798821923	0
1	510	1000.917309931936	0
1	512	1010.993038112039	0
1	514	1011.452035498437	1
1	515	1012.177110051214	1
1	516	1012.23136393731	0
1	518	1021.254450093468	0
1	519	1022.205109826605	0
1	521	1028.295144927556	0
1	522	1028.491496757277	0
1	524	1029.867620550508	0
1	525	1030.556047456578	0
1	527	1034.587716186418	0
1	528	1035.17177244852	0
1	533	1043.032439090477	0
1	534	1043.833719104064	0
1	536	1052.017080031089	0
1	538	1052.690370788896	1
1	539	1054.117437343389	1
1	543	1061.391962119259	0
1	545	1062.631322734337	0
1	549	1066.391539861803	1
1	551	1067.523868498324	1
1	553	1067.93005079115	1
1	554	1068.615381121771	1
1	555	1069.265789588307	0
1	557	1070.377116493317	0
1	558	1070.7127641755	0
1	568	1097.534105512189	0
1	570	1098.962609309586	0
1	572	1105.019655488875	0
1	573	1105.633140840768	0
1	578	1134.27796456258	0
1	579	1135.292113554233	0
1	581	1139.848551853526	0
1	582	1141.577174213852	0
1	584	1149.06904089752	0
1	585	1149.461502907931	0
1	593	1189.599395587986	0
1	594	1191.079905354559	0
1	596	1194.505807403182	0
1	597	1194.630892385243	0
1	599	1196.01928749176	0
1	600	1196.730171049778	0
1	602	1200.532095542279	0
1	603	1200.584548449069	0
1	614	1214.331704468146	0
1	615	1215.33895180719	0
1	620	1216.617603927497	0
1	621	1217.632772481381	0
1	625	1232.169014153108	0
1	630	1235.4092257353	1
1	632	1236.844553703856	1
1	633	1238.517282326861	0
1	637	1248.517259157264	0
1	639	1251.34799789722	1
1	644	1255.47509959323	1
1	645	1257.359400239656	0
1	650	1270.031272383515	0
1	651	1271.57074398521	0
1	653	1271.93813285379	0
1	654	1272.993018364953	0
1	660	1280.061728632661	0
1	666	1314.056626373889	1
1	668	1314.642060538589	2
1	670	1317.223091972527	2
1	671	1317.775727821524	1
1	672	1321.924926213508	0
1	683	1346.110542516041	0
1	684	1347.179388262229	0
1	689	1367.889872199002	0
1	690	1368.164436064019	0
1	692	1377.002249574517	0
1	693	1377.236911082904	0
1	695	1380.777105870427	0
1	696	1380.954067324728	0
1	698	1393.91873141806	0
1	699	1394.997319097752	0
1	703	1402.137446976738	0
1	705	1405.577269605069	0
1	707	1406.298439893118	0
1	708	1407.052661521554	0
1	710	1409.22892971003	0
1	711	1409.552263342891	0
1	713	1410.194651094536	0
1	714	1411.575044373388	0
1	719	1437.522502562912	0
1	720	1438.038429182206	0
1	722	1443.749352849394	0
1	723	1443.84780049331	0
1	725	1444.09780329844	0
1	726	1444.295273346522	0
1	728	1451.204784155259	0
1	729	1452.739679935189	0
1	734	1462.805777634181	0
1	735	1463.120610629623	0
1	737	1463.731977581261	0
1	738	1464.89430324675	0
1	740	1469.511161625262	0
1	741	1471.548569359542	0
1	745	1477.019670783198	0
1	753	1503.221891847943	0
1	755	1515.060756568655	0
1	756	1515.935361590769	0
1	761	1563.543419170754	0
1	762	1564.230318954508	0
1	764	1570.03250521935	0
1	765	1570.509802908127	0
1	767	1575.058367380463	0
1	769	1577.78896422583	1
1	770	1578.761797409251	1
1	771	1579.35970964372	0
1	773	1581.877619595059	0
1	774	1582.105182417111	0
1	782	1608.811795845907	0
1	783	1610.539916830555	0
1	785	1625.182484363768	0
1	786	1625.537760880063	0
1	788	1626.652589770851	0
1	789	1626.661862275651	0
1	794	1640.691024145245	0
1	795	1640.949349233577	0
1	797	1642.577573599617	0
1	798	1643.770435663765	0
1	800	1646.33275066046	0
1	801	1646.382118323592	0
1	805	1653.325499605877	0
1	810	1663.377721449981	1
1	812	1663.952454281951	2
1	816	1671.726541129088	3
1	818	1675.260018520552	4
1	821	1678.781068984512	5
1	823	1680.566451454069	5
1	827	1690.525151621013	4
1	828	1690.608645773792	3
1	829	1693.97840968975	2
1	830	1694.912905812347	1
1	831	1697.039621612146	0
1	833	1705.05225861694	0
1	834	1705.569371623684	0
1	836	1706.226453516503	0
1	837	1707.222996814349	0
1	839	1711.11377483187	0
1	840	1711.439104867639	0
1	842	1714.8627502655	0
1	843	1715.337472105652	0
1	845	1721.06404982859	0
1	846	1721.600305909418	0
1	848	1727.17012513038	0
1	849	1727.183454587467	0
1	851	1735.812540871975	0
1	852	1736.364950873695	0
1	854	1746.56951169048	0
1	856	1747.778998890395	1
1	857	1748.416061582738	1
1	859	1750.71274830933	1
1	860	1751.166928213955	1
1	861	1751.652960001563	0
1	863	1755.30795447233	0
1	864	1756.505091489093	0
1	866	1765.555104458504	0
1	870	1767.063188327861	0
1	872	1770.029676397522	0
1	873	1770.447236757108	0
1	875	1772.262657099428	0
1	876	1773.502388813662	0
1	885	1793.466833075335	0
1	888	1800.428169222105	0
1	890	1804.185314060336	0
1	891	1805.310102545049	0
1	893	1807.394835518921	0
1	894	1807.511323623048	0
1	899	1822.458650725485	0
1	900	1823.644667924415	0
1	902	1825.002170506213	0
1	903	1825.296325815939	0
1	905	1840.125209822443	0
1	906	1840.544454593515	0
1	908	1856.943854044585	0
1	909	1857.330489262922	0
1	913	1866.36835717076	0
1	915	1866.967988551273	1
1	917	1870.664148085307	2
1	919	1871.649452675096	2
1	920	1872.352132316262	1
1	921	1872.62629415693	0
1	926	1883.763165252108	0
1	927	1884.654068961961	0
1	929	1895.727674013799	0
1	931	1896.05992377377	1
1	932	1899.196164827318	1
1	933	1899.949207342986	0
1	935	1915.693824578514	0
1	936	1916.034284557567	0
1	941	1924.856412670584	0
1	942	1928.089087312603	0
1	944	1934.673342550855	0
1	945	1934.832703656132	0
1	947	1934.983514581488	0
1	948	1938.302529816283	0
1	955	1975.386526062438	0
1	957	1976.498084598093	0
1	959	1995.019471867634	0
1	960	1998.733666300808	0
1	965	2032.527073200167	0
1	972	2037.955893009393	0
1	974	2038.321321843496	0
1	975	2038.541412339467	0
1	977	2040.144866994231	0
1	978	2040.577858903491	0
1	980	2048.364783550259	0
1	982	2048.599293271919	1
1	983	2049.107784750804	1
1	984	2050.43041951936	0
1	991	2065.604154607833	0
1	995	2067.356556141222	1
1	997	2068.288749076046	2
1	1000	2073.628040455861	2
1	1001	2076.080164621194	1
1	1002	2078.675767050152	0
1	1004	2093.992979575455	0
1	1005	2095.200249449889	0
1	1007	2106.082421873943	0
1	1008	2107.853367322683	0
1	1016	2136.776177976287	0
1	1017	2137.268069439475	0
1	1019	2141.646815259144	0
1	1020	2142.541345011034	0
1	1022	2144.016431336242	0
1	1024	2144.192192413957	1
1	1025	2146.868224072376	1
1	1027	2148.663273855185	1
1	1029	2149.186389597899	2
1	1030	2149.638386103356	2
1	1034	2157.157593129116	2
1	1036	2160.38702111708	2
1	1037	2161.710201992611	1
1	1038	2161.982620336066	0
1	1040	2162.868158370205	0
1	1041	2163.323119511789	0
1	1043	2166.040377421226	0
1	1047	2169.649041075938	0
1	1057	2203.69533380782	0
1	1059	2209.868342587088	1
1	1061	2210.853110882239	2
1	1063	2212.383609484522	2
1	1064	2213.813285128163	1
1	1065	2214.503670558825	0
1	1067	2222.765702767109	0
1	1068	2223.267748836426	0
1	1070	2230.784603645069	0
1	1071	2230.933402451923	0
1	1075	2237.723195822719	0
1	1077	2248.02628028613	1
1	1079	2253.113432715731	1
1	1080	2253.680652725443	0
1	1085	2260.616590731246	0
1	1086	2261.863458758261	0
1	1088	2266.419323782936	0
1	1089	2267.392575935557	0
1	1091	2273.883873674355	0
1	1092	2275.75019868971	0
1	1097	2289.436867201682	0
1	1099	2289.450867187436	1
1	1100	2290.375663634343	1
1	1101	2290.835553057955	0
1	1108	2301.640294843342	0
1	1112	2306.660610274913	1
1	1118	2309.917701990362	1
1	1119	2310.492142328346	0
1	1121	2319.4066505354	0
1	1122	2320.810926394048	0
1	1124	2326.182676171753	0
1	1125	2326.623661211482	0
1	1127	2333.049889534637	0
1	1128	2333.418538374218	0
1	1130	2338.206266866647	0
1	1131	2338.480358254709	0
1	1133	2351.433664253972	0
1	1134	2351.497960247394	0
1	1136	2355.807840710371	0
1	1137	2356.867361548793	0
1	1139	2376.564926396232	0
1	1140	2377.59697629409	0
1	1142	2383.508692131047	0
1	1143	2384.003708708337	0
1	1147	2391.716211887763	0
1	1149	2396.111963747541	0
1	1151	2397.607266565843	0
1	1152	2398.679576871457	0
1	1154	2409.014576527272	0
1	1155	2409.211981597439	0
1	1157	2409.962440350145	0
1	1158	2410.412285892271	0
1	1160	2414.557918742161	0
1	1161	2415.552285417105	0
1	1163	2417.753952768565	0
1	1164	2418.194789146987	0
1	1168	2426.6975034803	0
1	1170	2429.066808355775	0
1	1178	2455.428597487807	0
1	1179	2455.645823087848	0
1	1181	2461.949854324953	0
1	1182	2462.178539055456	0
1	1184	2462.218887467808	0
1	1191	2468.204834621618	1
1	1193	2468.6130409442	2
1	1195	2471.443904714921	3
1	1197	2474.511721264849	3
1	1198	2474.737060289696	2
1	1199	2474.760641654511	1
1	1201	2474.772656864287	1
1	1202	2475.034636764565	1
1	1206	2489.532293971026	0
1	1208	2490.223068541484	0
1	1209	2490.451287941001	0
1	1211	2498.954044201238	0
1	1212	2499.777090288556	0
2	191	362.268301555052	0
2	194	372.539545306647	0
2	197	389.5577846975	0
2	203	414.818044092872	0
2	206	418.914461495836	0
2	209	422.465171795664	0
2	212	424.393867145197	0
2	215	432.804436750576	0
2	218	437.469845809978	0
2	223	442.640280848449	3.202688048299
2	224	443.563172035188	4.06853175216
2	227	447.099776189344	0
2	230	450.009000750263	0
2	261	500.771829258485	40.3586928107
2	262	501.354662776599	25.061703220062
2	265	502.682005655935	24.856772265316
2	266	503.359311081475	25.380352476358
2	267	504.140113711346	17.453024029482
2	268	505.455053643281	9.633930461464
2	269	507.89866734174	5.553845467794
2	272	511.603297954585	0
2	275	516.487729742531	0
2	278	517.598695609658	0
2	292	532.163660410778	8.758473710086
2	293	532.418099611647	4.201159772729
2	296	533.404800948007	0
2	299	534.543295855815	0.766915515214
2	302	539.614897092334	0
2	305	561.725131358257	0
2	308	562.146164383713	0.115170005496
2	317	601.622588852045	0
2	320	605.144082332673	2.009132062065
2	336	638.97222462433	22.388306319612
2	337	640.801457440017	23.599402203534
2	338	642.5750492292	17.36659713939
2	341	647.330956320507	0
2	347	653.355148002353	1.22650572131
2	353	667.347450432589	6.617305500141
2	356	669.904532685411	1.639771462653
2	359	681.831327910446	0
2	374	719.743452969609	6.47516074648
2	380	724.567367288275	1.351579686084
2	383	725.14946673918	0
2	386	733.868430710604	0
2	389	735.127497066748	0
2	392	735.644538501958	0.310532441596
2	405	763.952482628832	8.744697925117
2	406	765.948726384738	8.383381841398
2	407	766.122556457774	7.779035506546
2	410	766.211176156565	0
2	416	783.646291317493	0
2	419	798.304653878913	0
2	430	819.880110925204	3.488528038345
2	433	820.115556176437	0.837878511273
2	434	820.295045502116	0.23348219254
2	437	823.42882570197	0
2	440	824.637379433373	1.09389102091
2	443	842.67564930696	0
2	446	843.344367760789	0.172397339013
2	458	880.063361957828	0
2	461	884.481376070648	0
2	470	906.096858491925	0
2	473	917.053825168664	0
2	476	921.509009293989	0
2	479	921.623558985843	0
2	482	930.757980628926	0
2	485	931.899950272343	0
2	488	936.281831491434	0
2	494	959.409509175819	0
2	497	963.567546048599	0
2	500	979.409086802269	0
2	503	981.370220921466	0
2	506	998.054723841462	0
2	509	1000.768798821923	0
2	512	1010.993038112039	0
2	515	1012.177110051214	0.725074552777
2	518	1021.254450093468	0
2	521	1028.295144927556	0
2	524	1029.867620550508	0
2	527	1034.587716186418	0
2	533	1043.032439090477	0
2	536	1052.017080031089	0
2	539	1054.117437343389	1.427066554493
2	542	1061.100980452497	5.345002706851
2	545	1062.631322734337	0
2	550	1066.454667382586	1.435946506265
2	551	1067.523868498324	1.132328636521
2	554	1068.615381121771	0.685330330621
2	557	1070.377116493317	0
2	569	1098.344348166916	0.810242654727
2	572	1105.019655488875	0
2	578	1134.27796456258	0
2	581	1139.848551853526	0
2	584	1149.06904089752	0
2	593	1189.599395587986	0
2	596	1194.505807403182	0
2	599	1196.01928749176	0
2	602	1200.532095542279	0
2	614	1214.331704468146	0
2	620	1216.617603927497	0
2	626	1233.629441079016	1.460426925908
2	631	1236.268765861187	2.021439010222
2	632	1236.844553703856	1.435327968556
2	640	1251.63022540077	3.112966243506
2	643	1254.365647519562	3.017649622342
2	644	1255.47509959323	2.088926925474
2	650	1270.031272383515	0
2	653	1271.93813285379	0
2	669	1316.800924138386	36.739195505725
2	670	1317.223091972527	3.166465598638
2	671	1317.775727821524	3.133667282935
2	683	1346.110542516041	0
2	689	1367.889872199002	0
2	692	1377.002249574517	0
2	695	1380.777105870427	0
2	698	1393.91873141806	0
2	704	1404.724318995002	2.586872018264
2	707	1406.298439893118	0
2	710	1409.22892971003	0
2	713	1410.194651094536	0
2	719	1437.522502562912	0
2	722	1443.749352849394	0
2	725	1444.09780329844	0
2	728	1451.204784155259	0
2	734	1462.805777634181	0
2	737	1463.731977581261	0
2	740	1469.511161625262	0
2	752	1502.034190943526	25.014520160328
2	755	1515.060756568655	0
2	761	1563.543419170754	0
2	764	1570.03250521935	0
2	767	1575.058367380463	0
2	770	1578.761797409251	0.972833183421
2	773	1581.877619595059	0
2	782	1608.811795845907	0
2	785	1625.182484363768	0
2	788	1626.652589770851	0
2	794	1640.691024145245	0
2	797	1642.577573599617	0
2	800	1646.33275066046	0
2	822	1680.113392450324	26.787892844447
2	823	1680.566451454069	17.188730004088
2	826	1689.036313022789	25.083858740838
2	827	1690.525151621013	18.798610491925
2	828	1690.608645773792	15.34862725324
2	829	1693.97840968975	15.197340705238
2	830	1694.912905812347	13.634392345331
2	833	1705.05225861694	0
2	836	1706.226453516503	0
2	839	1711.11377483187	0
2	842	1714.8627502655	0
2	845	1721.06404982859	0
2	848	1727.17012513038	0
2	851	1735.812540871975	0
2	854	1746.56951169048	0
2	857	1748.416061582738	0.637062692343
2	860	1751.166928213955	0.454179904625
2	863	1755.30795447233	0
2	866	1765.555104458504	0
2	869	1766.562633082744	0.515596128174
2	872	1770.029676397522	0
2	875	1772.262657099428	0
2	887	1798.731671282255	5.26483820692
2	890	1804.185314060336	0
2	893	1807.394835518921	0
2	899	1822.458650725485	0
2	902	1825.002170506213	0
2	905	1840.125209822443	0
2	908	1856.943854044585	0
2	918	1871.117759901427	4.749402730667
2	919	1871.649452675096	4.681464123823
2	920	1872.352132316262	1.687984230955
2	926	1883.763165252108	0
2	929	1895.727674013799	0
2	932	1899.196164827318	3.136241053548
2	935	1915.693824578514	0
2	941	1924.856412670584	0
2	944	1934.673342550855	0
2	947	1934.983514581488	0
2	956	1976.35958035924	0.973054296802
2	959	1995.019471867634	0
2	965	2032.527073200167	0
2	968	2034.816224568077	0.47711207865
2	971	2037.453192007647	1.16497155178
2	974	2038.321321843496	0
2	977	2040.144866994231	0
2	980	2048.364783550259	0
2	983	2049.107784750804	0.508491478885
2	999	2073.159962274528	7.555807666695
2	1000	2073.628040455861	6.271484314639
2	1001	2076.080164621194	7.791415545148
2	1004	2093.992979575455	0
2	1007	2106.082421873943	0
2	1016	2136.776177976287	0
2	1019	2141.646815259144	0
2	1022	2144.016431336242	0
2	1025	2146.868224072376	2.676031658419
2	1030	2149.638386103356	0.975112248171
2	1035	2160.195294667825	11.008905069926
2	1036	2160.38702111708	10.630365346832
2	1037	2161.710201992611	4.552608863495
2	1040	2162.868158370205	0
2	1043	2166.040377421226	0
2	1046	2168.643655077825	1.477083824023
2	1062	2212.167299218317	8.471965410497
2	1063	2212.383609484522	2.515266897434
2	1064	2213.813285128163	2.960174245924
2	1067	2222.765702767109	0
2	1070	2230.784603645069	0
2	1078	2252.890054237538	15.166858414819
2	1079	2253.113432715731	5.087152429601
2	1085	2260.616590731246	0
2	1088	2266.419323782936	0
2	1091	2273.883873674355	0
2	1097	2289.436867201682	0
2	1100	2290.375663634343	0.924796446907
2	1117	2309.723392712004	8.083097868662
2	1118	2309.917701990362	3.257091715449
2	1121	2319.4066505354	0
2	1124	2326.182676171753	0
2	1127	2333.049889534637	0
2	1130	2338.206266866647	0
2	1133	2351.433664253972	0
2	1136	2355.807840710371	0
2	1139	2376.564926396232	0
2	1142	2383.508692131047	0
2	1148	2395.512106871786	3.795894984023
2	1151	2397.607266565843	0
2	1154	2409.014576527272	0
2	1157	2409.962440350145	0
2	1160	2414.557918742161	0
2	1163	2417.753952768565	0
2	1169	2428.659835513872	1.962332033572
2	1178	2455.428597487807	0
2	1181	2461.949854324953	0
2	1184	2462.218887467808	0
2	1187	2465.843763855821	2.089123651366
2	1196	2471.722853089289	3.885750796844
2	1197	2474.511721264849	6.306886643231
2	1198	2474.737060289696	6.124019345496
2	1199	2474.760641654511	3.31673693959
2	1202	2475.034636764565	0.261979900278
2	1205	2488.747130305236	13.627536463099
2	1208	2490.223068541484	0
2	1211	2498.954044201238	0
3	192	362.997837801052	43
3	195	374.108927892919	44
3	198	389.607484035569	45
3	204	415.427774195273	46
3	207	419.062809818163	47
3	210	424.217776769587	48
3	213	424.600851252138	49
3	216	432.962541414457	50
3	223	442.640280848449	51
3	224	443.563172035188	52
3	225	444.298528415124	53
3	228	447.994488909528	54
3	231	450.873623412408	55
3	262	501.354662776599	56
3	265	502.682005655935	57
3	266	503.359311081475	58
3	267	504.140113711346	59
3	268	505.455053643281	60
3	269	507.89866734174	61
3	270	509.64943051279	62
3	273	513.253142081938	63
3	276	516.561392640372	64
3	279	518.114530146572	65
3	293	532.418099611647	66
3	294	532.860059127912	67
3	299	534.543295855815	68
3	300	537.598283798047	69
3	303	540.861768985238	70
3	308	562.146164383713	71
3	309	563.206886867121	72
3	321	606.005522292107	73
3	337	640.801457440017	74
3	338	642.5750492292	75
3	339	642.726291298569	76
3	342	648.103496238582	77
3	348	653.370459084335	78
3	356	669.904532685411	79
3	357	670.313340800909	80
3	360	681.933522857427	81
3	375	721.339275833518	82
3	381	724.675896699943	83
3	384	727.133826072811	84
3	387	735.077440510008	85
3	392	735.644538501958	86
3	393	737.856185386609	87
3	406	765.948726384738	88
3	407	766.122556457774	89
3	408	766.190357162872	90
3	411	766.533549803995	91
3	417	785.727711758547	92
3	420	799.420895254644	93
3	433	820.115556176437	94
3	434	820.295045502116	95
3	435	820.304378397999	96
3	440	824.637379433373	97
3	441	825.218000390231	98
3	446	843.344367760789	99
3	447	844.304683469612	100
3	459	881.204916513899	101
3	462	885.268266160475	102
3	471	906.834058280828	103
3	474	917.592508387102	104
3	477	921.553375785866	105
3	480	922.931608146083	106
3	483	931.011501699819	107
3	486	932.048534140525	108
3	489	937.137980275521	109
3	495	961.648812919183	110
3	498	963.695872335694	111
3	501	979.679596344247	112
3	504	982.063601568074	113
3	507	998.117843344603	114
3	510	1000.917309931936	115
3	515	1012.177110051214	116
3	516	1012.23136393731	117
3	519	1022.205109826605	118
3	522	1028.491496757277	119
3	525	1030.556047456578	120
3	528	1035.17177244852	121
3	534	1043.833719104064	122
3	539	1054.117437343389	123
3	543	1061.391962119259	124
3	551	1067.523868498324	125
3	554	1068.615381121771	126
3	555	1069.265789588307	127
3	558	1070.7127641755	128
3	570	1098.962609309586	129
3	573	1105.633140840768	130
3	579	1135.292113554233	131
3	582	1141.577174213852	132
3	585	1149.461502907931	133
3	594	1191.079905354559	134
3	597	1194.630892385243	135
3	600	1196.730171049778	136
3	603	1200.584548449069	137
3	615	1215.33895180719	138
3	621	1217.632772481381	139
3	632	1236.844553703856	140
3	633	1238.517282326861	141
3	644	1255.47509959323	142
3	645	1257.359400239656	143
3	651	1271.57074398521	144
3	654	1272.993018364953	145
3	670	1317.223091972527	146
3	671	1317.775727821524	147
3	672	1321.924926213508	148
3	684	1347.179388262229	149
3	690	1368.164436064019	150
3	693	1377.236911082904	151
3	696	1380.954067324728	152
3	699	1394.997319097752	153
3	705	1405.577269605069	154
3	708	1407.052661521554	155
3	711	1409.552263342891	156
3	714	1411.575044373388	157
3	720	1438.038429182206	158
3	723	1443.84780049331	159
3	726	1444.295273346522	160
3	729	1452.739679935189	161
3	735	1463.120610629623	162
3	738	1464.89430324675	163
3	741	1471.548569359542	164
3	753	1503.221891847943	165
3	756	1515.935361590769	166
3	762	1564.230318954508	167
3	765	1570.509802908127	168
3	770	1578.761797409251	169
3	771	1579.35970964372	170
3	774	1582.105182417111	171
3	783	1610.539916830555	172
3	786	1625.537760880063	173
3	789	1626.661862275651	174
3	795	1640.949349233577	175
3	798	1643.770435663765	176
3	801	1646.382118323592	177
3	823	1680.566451454069	178
3	827	1690.525151621013	179
3	828	1690.608645773792	180
3	829	1693.97840968975	181
3	830	1694.912905812347	182
3	831	1697.039621612146	183
3	834	1705.569371623684	184
3	837	1707.222996814349	185
3	840	1711.439104867639	186
3	843	1715.337472105652	187
3	846	1721.600305909418	188
3	849	1727.183454587467	189
3	852	1736.364950873695	190
3	857	1748.416061582738	191
3	860	1751.166928213955	192
3	861	1751.652960001563	193
3	864	1756.505091489093	194
3	870	1767.063188327861	195
3	873	1770.447236757108	196
3	876	1773.502388813662	197
3	888	1800.428169222105	198
3	891	1805.310102545049	199
3	894	1807.511323623048	200
3	900	1823.644667924415	201
3	903	1825.296325815939	202
3	906	1840.544454593515	203
3	909	1857.330489262922	204
3	919	1871.649452675096	205
3	920	1872.352132316262	206
3	921	1872.62629415693	207
3	927	1884.654068961961	208
3	932	1899.196164827318	209
3	933	1899.949207342986	210
3	936	1916.034284557567	211
3	942	1928.089087312603	212
3	945	1934.832703656132	213
3	948	1938.302529816283	214
3	957	1976.498084598093	215
3	960	1998.733666300808	216
3	972	2037.955893009393	217
3	975	2038.541412339467	218
3	978	2040.577858903491	219
3	983	2049.107784750804	220
3	984	2050.43041951936	221
3	1000	2073.628040455861	222
3	1001	2076.080164621194	223
3	1002	2078.675767050152	224
3	1005	2095.200249449889	225
3	1008	2107.853367322683	226
3	1017	2137.268069439475	227
3	1020	2142.541345011034	228
3	1025	2146.868224072376	229
3	1030	2149.638386103356	230
3	1036	2160.38702111708	231
3	1037	2161.710201992611	232
3	1038	2161.982620336066	233
3	1041	2163.323119511789	234
3	1047	2169.649041075938	235
3	1063	2212.383609484522	236
3	1064	2213.813285128163	237
3	1065	2214.503670558825	238
3	1068	2223.267748836426	239
3	1071	2230.933402451923	240
3	1079	2253.113432715731	241
3	1080	2253.680652725443	242
3	1086	2261.863458758261	243
3	1089	2267.392575935557	244
3	1092	2275.75019868971	245
3	1100	2290.375663634343	246
3	1101	2290.835553057955	247
3	1118	2309.917701990362	248
3	1119	2310.492142328346	249
3	1122	2320.810926394048	250
3	1125	2326.623661211482	251
3	1128	2333.418538374218	252
3	1131	2338.480358254709	253
3	1134	2351.497960247394	254
3	1137	2356.867361548793	255
3	1140	2377.59697629409	256
3	1143	2384.003708708337	257
3	1149	2396.111963747541	258
3	1152	2398.679576871457	259
3	1155	2409.211981597439	260
3	1158	2410.412285892271	261
3	1161	2415.552285417105	262
3	1164	2418.194789146987	263
3	1170	2429.066808355775	264
3	1179	2455.645823087848	265
3	1182	2462.178539055456	266
3	1197	2474.511721264849	267
3	1198	2474.737060289696	268
3	1199	2474.760641654511	269
3	1202	2475.034636764565	270
3	1206	2489.532293971026	271
3	1209	2490.451287941001	272
3	1212	2499.777090288556	273
4	192	362.997837801052	0.729536246
4	195	374.108927892919	1.569382586272
4	198	389.607484035569	0.049699338069
4	204	415.427774195273	0.609730102401
4	207	419.062809818163	0.148348322327
4	210	424.217776769587	1.752604973923
4	213	424.600851252138	0.206984106941
4	216	432.962541414457	0.158104663881
4	223	442.640280848449	5.170435038471
4	224	443.563172035188	4.125579235038
4	225	444.298528415124	4.803888132096
4	228	447.994488909528	0.894712720184
4	231	450.873623412408	0.864622662145
4	262	501.354662776599	40.941526328814
4	265	502.682005655935	26.389046099398
4	266	503.359311081475	25.534077690856
4	267	504.140113711346	26.161155106229
4	268	505.455053643281	18.767963961417
4	269	507.89866734174	12.077544159923
4	270	509.64943051279	7.304608638844
4	273	513.253142081938	1.649844127353
4	276	516.561392640372	0.073662897841
4	279	518.114530146572	0.515834536914
4	293	532.418099611647	9.012912910955
4	294	532.860059127912	4.643119288994
4	299	534.543295855815	1.138494907808
4	300	537.598283798047	3.821903457446
4	303	540.861768985238	1.246871892904
4	308	562.146164383713	0.421033025456
4	309	563.206886867121	1.175892488904
4	321	606.005522292107	2.870572021499
4	337	640.801457440017	24.217539135299
4	338	642.5750492292	25.372993992717
4	339	642.726291298569	17.517839208759
4	342	648.103496238582	0.772539918075
4	348	653.370459084335	1.241816803292
4	356	669.904532685411	9.174387752963
4	357	670.313340800909	2.048579578151
4	360	681.933522857427	0.102194946981
4	375	721.339275833518	8.070983610389
4	381	724.675896699943	1.460109097752
4	384	727.133826072811	1.984359333631
4	387	735.077440510008	1.209009799404
4	392	735.644538501958	0.51704143521
4	393	737.856185386609	2.522179326247
4	406	765.948726384738	10.740941681023
4	407	766.122556457774	8.557211914434
4	408	766.190357162872	7.846836211644
4	411	766.533549803995	0.32237364743
4	417	785.727711758547	2.081420441054
4	420	799.420895254644	1.116241375731
4	433	820.115556176437	3.723973289578
4	434	820.295045502116	1.017367836952
4	435	820.304378397999	0.242815088423
4	440	824.637379433373	1.208553731403
4	441	825.218000390231	1.674511977768
4	446	843.344367760789	0.668718453829
4	447	844.304683469612	1.132713047836
4	459	881.204916513899	1.141554556071
4	462	885.268266160475	0.786890089827
4	471	906.834058280828	0.737199788903
4	474	917.592508387102	0.538683218438
4	477	921.553375785866	0.044366491877
4	480	922.931608146083	1.30804916024
4	483	931.011501699819	0.253521070893
4	486	932.048534140525	0.148583868182
4	489	937.137980275521	0.856148784087
4	495	961.648812919183	2.239303743364
4	498	963.695872335694	0.128326287095
4	501	979.679596344247	0.270509541978
4	504	982.063601568074	0.693380646608
4	507	998.117843344603	0.063119503141
4	510	1000.917309931936	0.148511110013
4	515	1012.177110051214	1.184071939175
4	516	1012.23136393731	0.779328438873
4	519	1022.205109826605	0.950659733137
4	522	1028.491496757277	0.196351829721
4	525	1030.556047456578	0.68842690607
4	528	1035.17177244852	0.584056262102
4	534	1043.833719104064	0.801280013587
4	539	1054.117437343389	2.1003573123
4	543	1061.391962119259	5.635984373613
4	551	1067.523868498324	2.505147622003
4	554	1068.615381121771	2.223841259968
4	555	1069.265789588307	1.335738797157
4	558	1070.7127641755	0.335647682183
4	570	1098.962609309586	1.428503797397
4	573	1105.633140840768	0.613485351893
4	579	1135.292113554233	1.014148991653
4	582	1141.577174213852	1.728622360326
4	585	1149.461502907931	0.392462010411
4	594	1191.079905354559	1.480509766573
4	597	1194.630892385243	0.125084982061
4	600	1196.730171049778	0.710883558018
4	603	1200.584548449069	0.05245290679
4	615	1215.33895180719	1.007247339044
4	621	1217.632772481381	1.015168553884
4	632	1236.844553703856	2.597226852891
4	633	1238.517282326861	3.108056591561
4	644	1255.47509959323	4.12710169601
4	645	1257.359400239656	3.9732275719
4	651	1271.57074398521	1.539471601695
4	654	1272.993018364953	1.054885511163
4	670	1317.223091972527	37.161363339866
4	671	1317.775727821524	3.719101447635
4	672	1321.924926213508	7.282865674919
4	684	1347.179388262229	1.068845746188
4	690	1368.164436064019	0.274563865017
4	693	1377.236911082904	0.234661508387
4	696	1380.954067324728	0.176961454301
4	699	1394.997319097752	1.078587679692
4	705	1405.577269605069	3.439822628331
4	708	1407.052661521554	0.754221628436
4	711	1409.552263342891	0.323333632861
4	714	1411.575044373388	1.380393278852
4	720	1438.038429182206	0.515926619294
4	723	1443.84780049331	0.098447643916
4	726	1444.295273346522	0.197470048082
4	729	1452.739679935189	1.53489577993
4	735	1463.120610629623	0.314832995442
4	738	1464.89430324675	1.162325665489
4	741	1471.548569359542	2.03740773428
4	753	1503.221891847943	26.202221064745
4	756	1515.935361590769	0.874605022114
4	762	1564.230318954508	0.686899783754
4	765	1570.509802908127	0.477297688777
4	770	1578.761797409251	3.703430028788
4	771	1579.35970964372	1.57074541789
4	774	1582.105182417111	0.227562822052
4	783	1610.539916830555	1.728120984648
4	786	1625.537760880063	0.355276516295
4	789	1626.661862275651	0.0092725048
4	795	1640.949349233577	0.258325088332
4	798	1643.770435663765	1.192862064148
4	801	1646.382118323592	0.049367663132
4	823	1680.566451454069	27.240951848192
4	827	1690.525151621013	26.572697339062
4	828	1690.608645773792	18.882104644704
4	829	1693.97840968975	18.718391169198
4	830	1694.912905812347	16.131836827835
4	831	1697.039621612146	15.76110814513
4	834	1705.569371623684	0.517113006744
4	837	1707.222996814349	0.996543297846
4	840	1711.439104867639	0.325330035769
4	843	1715.337472105652	0.474721840152
4	846	1721.600305909418	0.536256080828
4	849	1727.183454587467	0.013329457087
4	852	1736.364950873695	0.55241000172
4	857	1748.416061582738	1.846549892258
4	860	1751.166928213955	3.38792932356
4	861	1751.652960001563	0.940211692233
4	864	1756.505091489093	1.197137016763
4	870	1767.063188327861	1.016151373291
4	873	1770.447236757108	0.417560359586
4	876	1773.502388813662	1.239731714234
4	888	1800.428169222105	6.96133614677
4	891	1805.310102545049	1.124788484713
4	894	1807.511323623048	0.116488104127
4	900	1823.644667924415	1.18601719893
4	903	1825.296325815939	0.294155309726
4	906	1840.544454593515	0.419244771072
4	909	1857.330489262922	0.386635218337
4	919	1871.649452675096	5.281095504336
4	920	1872.352132316262	5.384143764989
4	921	1872.62629415693	1.962146071623
4	927	1884.654068961961	0.890903709853
4	932	1899.196164827318	3.468490813519
4	933	1899.949207342986	3.889283569216
4	936	1916.034284557567	0.340459979053
4	942	1928.089087312603	3.232674642019
4	945	1934.832703656132	0.159361105277
4	948	1938.302529816283	3.319015234795
4	957	1976.498084598093	1.111558535655
4	960	1998.733666300808	3.714194433174
4	972	2037.955893009393	1.667672553526
4	975	2038.541412339467	0.220090495971
4	978	2040.577858903491	0.43299190926
4	983	2049.107784750804	0.743001200545
4	984	2050.43041951936	1.831126247441
4	1000	2073.628040455861	8.023885848028
4	1001	2076.080164621194	8.723608479972
4	1002	2078.675767050152	10.387017974106
4	1005	2095.200249449889	1.207269874434
4	1008	2107.853367322683	1.77094544874
4	1017	2137.268069439475	0.491891463188
4	1020	2142.541345011034	0.89452975189
4	1025	2146.868224072376	2.851792736134
4	1030	2149.638386103356	5.446193689399
4	1036	2160.38702111708	11.200631519181
4	1037	2161.710201992611	11.953546222363
4	1038	2161.982620336066	4.82502720695
4	1041	2163.323119511789	0.454961141584
4	1047	2169.649041075938	2.482469822136
4	1063	2212.383609484522	8.688275676702
4	1064	2213.813285128163	3.944942541075
4	1065	2214.503670558825	3.650559676586
4	1068	2223.267748836426	0.502046069317
4	1071	2230.933402451923	0.148798806854
4	1079	2253.113432715731	15.390236893012
4	1080	2253.680652725443	5.654372439313
4	1086	2261.863458758261	1.246868027015
4	1089	2267.392575935557	0.973252152621
4	1092	2275.75019868971	1.866325015355
4	1100	2290.375663634343	0.938796432661
4	1101	2290.835553057955	1.384685870519
4	1118	2309.917701990362	8.27740714702
4	1119	2310.492142328346	3.831532053433
4	1122	2320.810926394048	1.404275858648
4	1125	2326.623661211482	0.440985039729
4	1128	2333.418538374218	0.368648839581
4	1131	2338.480358254709	0.274091388062
4	1134	2351.497960247394	0.064295993422
4	1137	2356.867361548793	1.059520838422
4	1140	2377.59697629409	1.032049897858
4	1143	2384.003708708337	0.49501657729
4	1149	2396.111963747541	4.395751859778
4	1152	2398.679576871457	1.072310305614
4	1155	2409.211981597439	0.197405070167
4	1158	2410.412285892271	0.449845542126
4	1161	2415.552285417105	0.994366674944
4	1164	2418.194789146987	0.440836378422
4	1170	2429.066808355775	2.369304875475
4	1179	2455.645823087848	0.217225600041
4	1182	2462.178539055456	0.228684730503
4	1197	2474.511721264849	6.674618972404
4	1198	2474.737060289696	6.532225668078
4	1199	2474.760641654511	6.147600710311
4	1202	2475.034636764565	3.590732049644
4	1206	2489.532293971026	14.412700128889
4	1209	2490.451287941001	0.228219399517
4	1212	2499.777090288556	0.823046087318
5	200	407.023051346512	1
5	233	451.986862219571	1
5	235	452.241254781419	2
5	237	456.269153484022	3
5	241	462.788085686888	4
5	244	471.750175842528	4
5	255	485.838955213216	2
5	281	519.115936014759	1
5	283	522.251961692532	2
5	290	530.364669045925	2
5	311	572.603760894772	1
5	313	587.239462929909	2
5	319	603.134950270608	1
5	323	609.200889985245	1
5	325	610.173953034799	2
5	328	612.980541173579	2
5	344	652.09946073414	1
5	350	654.711139710773	1
5	362	686.391080063499	1
5	365	702.435029905981	1
5	368	711.955453553369	1
5	370	712.551934658254	2
5	377	721.347548185523	1
5	395	739.812602447366	1
5	398	744.908658692014	1
5	413	772.705257103947	1
5	422	806.13012311482	1
5	425	811.858998937252	1
5	449	863.28509472209	1
5	451	867.68999344566	2
5	454	876.537854406773	2
5	464	893.602110190585	1
5	467	901.844889125823	1
5	491	948.259548206261	1
5	530	1041.233624618206	1
5	541	1055.755977745646	1
5	547	1065.018720876321	1
5	560	1075.275228128681	1
5	563	1078.450599689527	1
5	565	1093.025662129838	2
5	575	1106.189148516697	1
5	587	1161.606097471778	1
5	590	1163.578442419488	1
5	605	1201.575345488697	1
5	607	1205.21468365384	2
5	610	1209.074318248075	2
5	617	1216.39044955247	1
5	623	1231.062298958818	1
5	628	1234.247326850965	1
5	635	1248.342184019664	1
5	642	1253.386172667756	1
5	647	1261.957583257431	1
5	656	1277.467176934737	1
5	658	1278.936722892472	2
5	663	1306.576914852068	2
5	674	1323.736502562113	1
5	677	1334.919738381796	1
5	680	1345.193422541783	1
5	686	1347.404884195096	1
5	701	1395.880752839439	1
5	716	1423.878087902705	1
5	731	1456.975740307744	1
5	743	1475.209722097707	1
5	747	1478.042304220319	2
5	750	1491.383258494281	2
5	758	1516.479068035088	1
5	776	1590.50042477963	1
5	779	1599.013666144167	1
5	791	1631.434037847915	1
5	803	1650.493728198422	1
5	807	1658.593476369919	2
5	814	1665.372692648625	2
5	825	1681.278513467016	1
5	868	1766.04703695457	1
5	878	1773.520726651988	1
5	880	1779.875668708269	2
5	882	1781.162383615031	3
5	896	1815.390857124158	1
5	911	1862.080332632237	1
5	923	1880.381953975635	1
5	938	1919.782592244217	1
5	950	1945.274415883366	1
5	953	1965.142792458315	1
5	962	2029.457987501145	1
5	967	2034.339112489427	1
5	970	2036.288220455867	1
5	986	2052.514086448142	1
5	989	2064.672210610458	1
5	993	2066.987813455407	2
5	1010	2109.822365075834	1
5	1013	2125.829693711752	1
5	1032	2149.756655770248	1
5	1045	2167.166571253802	1
5	1049	2174.916574713006	1
5	1052	2192.895363616005	1
5	1055	2201.892852908397	1
5	1073	2232.882083632135	1
5	1082	2259.340022759345	1
5	1094	2277.162737970621	1
5	1103	2296.648678655655	1
5	1105	2298.575357641728	2
5	1110	2303.500581520958	2
5	1114	2307.262137981784	3
5	1145	2388.40867807511	1
5	1166	2422.686534544323	1
5	1172	2432.913250480392	1
5	1175	2438.546595932053	1
5	1186	2463.754640204455	1
5	1189	2467.837102292445	1
5	1204	2475.119593842137	1
6	200	407.023051346512	0
6	201	409.610549188379	0
6	233	451.986862219571	0
6	235	452.241254781419	1
6	237	456.269153484022	2
6	241	462.788085686888	3
6	242	469.713175574069	3
6	244	471.750175842528	3
6	245	474.972306097414	3
6	252	481.763045648253	2
6	253	482.262484181995	1
6	255	485.838955213216	1
6	258	487.896388433897	1
6	261	500.771829258485	0
6	281	519.115936014759	0
6	283	522.251961692532	1
6	286	525.811036696026	1
6	290	530.364669045925	1
6	291	532.115572589129	1
6	292	532.163660410778	0
6	311	572.603760894772	0
6	313	587.239462929909	1
6	314	588.238923254771	1
6	315	590.700823632622	0
6	319	603.134950270608	0
6	320	605.144082332673	0
6	323	609.200889985245	0
6	325	610.173953034799	1
6	326	611.85309500545	1
6	328	612.980541173579	1
6	335	634.978332240647	1
6	336	638.97222462433	0
6	344	652.09946073414	0
6	347	653.355148002353	0
6	350	654.711139710773	0
6	353	667.347450432589	0
6	362	686.391080063499	0
6	363	694.903734116991	0
6	365	702.435029905981	0
6	366	710.871776575546	0
6	368	711.955453553369	0
6	370	712.551934658254	1
6	373	713.770394890775	1
6	374	719.743452969609	0
6	377	721.347548185523	0
6	380	724.567367288275	0
6	395	739.812602447366	0
6	396	742.646884485743	0
6	398	744.908658692014	0
6	405	763.952482628832	0
6	413	772.705257103947	0
6	414	778.057211091084	0
6	422	806.13012311482	0
6	423	808.873996535825	0
6	425	811.858998937252	0
6	430	819.880110925204	0
6	449	863.28509472209	0
6	451	867.68999344566	1
6	452	872.605723159599	1
6	454	876.537854406773	1
6	455	878.045941055592	1
6	456	880.015979508655	0
6	464	893.602110190585	0
6	465	894.18434581241	0
6	467	901.844889125823	0
6	468	902.825427306515	0
6	491	948.259548206261	0
6	492	951.34725465737	0
6	530	1041.233624618206	0
6	531	1041.486692281551	0
6	541	1055.755977745646	0
6	542	1061.100980452497	0
6	547	1065.018720876321	0
6	550	1066.454667382586	0
6	560	1075.275228128681	0
6	561	1076.011033782962	0
6	563	1078.450599689527	0
6	565	1093.025662129838	1
6	566	1095.396305396962	1
6	569	1098.344348166916	0
6	575	1106.189148516697	0
6	576	1107.787486153962	0
6	587	1161.606097471778	0
6	588	1161.975827445053	0
6	590	1163.578442419488	0
6	591	1163.594534478358	0
6	605	1201.575345488697	0
6	607	1205.21468365384	1
6	608	1206.837157672289	1
6	610	1209.074318248075	1
6	611	1211.613669810068	1
6	612	1212.708022065161	0
6	617	1216.39044955247	0
6	618	1216.597810641967	0
6	623	1231.062298958818	0
6	626	1233.629441079016	0
6	628	1234.247326850965	0
6	631	1236.268765861187	0
6	635	1248.342184019664	0
6	640	1251.63022540077	0
6	642	1253.386172667756	0
6	643	1254.365647519562	0
6	647	1261.957583257431	0
6	648	1263.679468118747	0
6	656	1277.467176934737	0
6	658	1278.936722892472	1
6	661	1299.313002817013	1
6	663	1306.576914852068	1
6	664	1308.129827492964	1
6	669	1316.800924138386	0
6	674	1323.736502562113	0
6	675	1328.545043756219	0
6	677	1334.919738381796	0
6	678	1339.772279815449	0
6	680	1345.193422541783	0
6	681	1345.353285766983	0
6	686	1347.404884195096	0
6	687	1365.990924561843	0
6	701	1395.880752839439	0
6	704	1404.724318995002	0
6	716	1423.878087902705	0
6	717	1426.230266260538	0
6	731	1456.975740307744	0
6	732	1457.562856342991	0
6	743	1475.209722097707	0
6	747	1478.042304220319	1
6	748	1488.164542789087	1
6	750	1491.383258494281	1
6	751	1495.444565866853	1
6	752	1502.034190943526	0
6	758	1516.479068035088	0
6	759	1521.677486917394	0
6	776	1590.50042477963	0
6	777	1592.91534017784	0
6	779	1599.013666144167	0
6	780	1604.499689096357	0
6	791	1631.434037847915	0
6	792	1638.459155590159	0
6	803	1650.493728198422	0
6	807	1658.593476369919	1
6	808	1662.174530111536	1
6	814	1665.372692648625	1
6	819	1675.306730659341	1
6	822	1680.113392450324	0
6	825	1681.278513467016	0
6	826	1689.036313022789	0
6	868	1766.04703695457	0
6	869	1766.562633082744	0
6	878	1773.520726651988	0
6	880	1779.875668708269	1
6	882	1781.162383615031	2
6	883	1787.76403214618	2
6	886	1795.698223754199	1
6	887	1798.731671282255	0
6	896	1815.390857124158	0
6	897	1819.970442070536	0
6	911	1862.080332632237	0
6	918	1871.117759901427	0
6	923	1880.381953975635	0
6	924	1882.894068188282	0
6	938	1919.782592244217	0
6	939	1924.557653171606	0
6	950	1945.274415883366	0
6	951	1949.101952237783	0
6	953	1965.142792458315	0
6	956	1976.35958035924	0
6	962	2029.457987501145	0
6	963	2030.960860768071	0
6	967	2034.339112489427	0
6	968	2034.816224568077	0
6	970	2036.288220455867	0
6	971	2037.453192007647	0
6	986	2052.514086448142	0
6	987	2052.749937600753	0
6	989	2064.672210610458	0
6	993	2066.987813455407	1
6	998	2068.533052537191	1
6	999	2073.159962274528	0
6	1010	2109.822365075834	0
6	1011	2112.511698062624	0
6	1013	2125.829693711752	0
6	1014	2130.745239029207	0
6	1032	2149.756655770248	0
6	1035	2160.195294667825	0
6	1045	2167.166571253802	0
6	1046	2168.643655077825	0
6	1049	2174.916574713006	0
6	1050	2175.863520187308	0
6	1052	2192.895363616005	0
6	1053	2194.190642446713	0
6	1055	2201.892852908397	0
6	1062	2212.167299218317	0
6	1073	2232.882083632135	0
6	1078	2252.890054237538	0
6	1082	2259.340022759345	0
6	1083	2260.559104907972	0
6	1094	2277.162737970621	0
6	1095	2280.512769260747	0
6	1103	2296.648678655655	0
6	1105	2298.575357641728	1
6	1106	2301.615793131995	1
6	1110	2303.500581520958	1
6	1114	2307.262137981784	2
6	1115	2307.913653420922	2
6	1116	2308.708591246112	1
6	1117	2309.723392712004	0
6	1145	2388.40867807511	0
6	1148	2395.512106871786	0
6	1166	2422.686534544323	0
6	1169	2428.659835513872	0
6	1172	2432.913250480392	0
6	1173	2433.14548206807	0
6	1175	2438.546595932053	0
6	1176	2441.920487527042	0
6	1186	2463.754640204455	0
6	1187	2465.843763855821	0
6	1189	2467.837102292445	0
6	1196	2471.722853089289	0
6	1204	2475.119593842137	0
6	1205	2488.747130305236	0
7	200	407.023051346512	0
7	233	451.986862219571	0
7	242	469.713175574069	17.47192079265
7	245	474.972306097414	18.703152613392
7	252	481.763045648253	18.974959961365
7	253	482.262484181995	10.512308339467
7	258	487.896388433897	2.057433220681
7	281	519.115936014759	0
7	286	525.811036696026	3.559075003494
7	291	532.115572589129	1.750903543204
7	311	572.603760894772	0
7	314	588.238923254771	0.999460324862
7	319	603.134950270608	0
7	323	609.200889985245	0
7	326	611.85309500545	1.679141970651
7	335	634.978332240647	21.997791067068
7	344	652.09946073414	0
7	350	654.711139710773	0
7	362	686.391080063499	0
7	365	702.435029905981	0
7	368	711.955453553369	0
7	373	713.770394890775	1.218460232521
7	377	721.347548185523	0
7	395	739.812602447366	0
7	398	744.908658692014	0
7	413	772.705257103947	0
7	422	806.13012311482	0
7	425	811.858998937252	0
7	449	863.28509472209	0
7	452	872.605723159599	4.915729713939
7	455	878.045941055592	1.508086648819
7	464	893.602110190585	0
7	467	901.844889125823	0
7	491	948.259548206261	0
7	530	1041.233624618206	0
7	541	1055.755977745646	0
7	547	1065.018720876321	0
7	560	1075.275228128681	0
7	563	1078.450599689527	0
7	566	1095.396305396962	2.370643267124
7	575	1106.189148516697	0
7	587	1161.606097471778	0
7	590	1163.578442419488	0
7	605	1201.575345488697	0
7	608	1206.837157672289	1.622474018449
7	611	1211.613669810068	2.539351561993
7	617	1216.39044955247	0
7	623	1231.062298958818	0
7	628	1234.247326850965	0
7	635	1248.342184019664	0
7	642	1253.386172667756	0
7	647	1261.957583257431	0
7	656	1277.467176934737	0
7	661	1299.313002817013	20.376279924541
7	664	1308.129827492964	1.552912640896
7	674	1323.736502562113	0
7	677	1334.919738381796	0
7	680	1345.193422541783	0
7	686	1347.404884195096	0
7	701	1395.880752839439	0
7	716	1423.878087902705	0
7	731	1456.975740307744	0
7	743	1475.209722097707	0
7	748	1488.164542789087	10.122238568768
7	751	1495.444565866853	4.061307372572
7	758	1516.479068035088	0
7	776	1590.50042477963	0
7	779	1599.013666144167	0
7	791	1631.434037847915	0
7	803	1650.493728198422	0
7	808	1662.174530111536	3.581053741617
7	819	1675.306730659341	9.934038010716
7	825	1681.278513467016	0
7	868	1766.04703695457	0
7	878	1773.520726651988	0
7	883	1787.76403214618	7.888363437911
7	886	1795.698223754199	14.535840139168
7	896	1815.390857124158	0
7	911	1862.080332632237	0
7	923	1880.381953975635	0
7	938	1919.782592244217	0
7	950	1945.274415883366	0
7	953	1965.142792458315	0
7	962	2029.457987501145	0
7	967	2034.339112489427	0
7	970	2036.288220455867	0
7	986	2052.514086448142	0
7	989	2064.672210610458	0
7	998	2068.533052537191	1.545239081784
7	1010	2109.822365075834	0
7	1013	2125.829693711752	0
7	1032	2149.756655770248	0
7	1045	2167.166571253802	0
7	1049	2174.916574713006	0
7	1052	2192.895363616005	0
7	1055	2201.892852908397	0
7	1073	2232.882083632135	0
7	1082	2259.340022759345	0
7	1094	2277.162737970621	0
7	1103	2296.648678655655	0
7	1106	2301.615793131995	3.040435490267
7	1115	2307.913653420922	4.413071899964
7	1116	2308.708591246112	1.446453264328
7	1145	2388.40867807511	0
7	1166	2422.686534544323	0
7	1172	2432.913250480392	0
7	1175	2438.546595932053	0
7	1186	2463.754640204455	0
7	1189	2467.837102292445	0
7	1204	2475.119593842137	0
8	201	409.610549188379	22
8	242	469.713175574069	23
8	245	474.972306097414	24
8	252	481.763045648253	25
8	253	482.262484181995	26
8	258	487.896388433897	27
8	261	500.771829258485	28
8	286	525.811036696026	29
8	291	532.115572589129	30
8	292	532.163660410778	31
8	314	588.238923254771	32
8	315	590.700823632622	33
8	320	605.144082332673	34
8	326	611.85309500545	35
8	335	634.978332240647	36
8	336	638.97222462433	37
8	347	653.355148002353	38
8	353	667.347450432589	39
8	363	694.903734116991	40
8	366	710.871776575546	41
8	373	713.770394890775	42
8	374	719.743452969609	43
8	380	724.567367288275	44
8	396	742.646884485743	45
8	405	763.952482628832	46
8	414	778.057211091084	47
8	423	808.873996535825	48
8	430	819.880110925204	49
8	452	872.605723159599	50
8	455	878.045941055592	51
8	456	880.015979508655	52
8	465	894.18434581241	53
8	468	902.825427306515	54
8	492	951.34725465737	55
8	531	1041.486692281551	56
8	542	1061.100980452497	57
8	550	1066.454667382586	58
8	561	1076.011033782962	59
8	566	1095.396305396962	60
8	569	1098.344348166916	61
8	576	1107.787486153962	62
8	588	1161.975827445053	63
8	591	1163.594534478358	64
8	608	1206.837157672289	65
8	611	1211.613669810068	66
8	612	1212.708022065161	67
8	618	1216.597810641967	68
8	626	1233.629441079016	69
8	631	1236.268765861187	70
8	640	1251.63022540077	71
8	643	1254.365647519562	72
8	648	1263.679468118747	73
8	661	1299.313002817013	74
8	664	1308.129827492964	75
8	669	1316.800924138386	76
8	675	1328.545043756219	77
8	678	1339.772279815449	78
8	681	1345.353285766983	79
8	687	1365.990924561843	80
8	704	1404.724318995002	81
8	717	1426.230266260538	82
8	732	1457.562856342991	83
8	748	1488.164542789087	84
8	751	1495.444565866853	85
8	752	1502.034190943526	86
8	759	1521.677486917394	87
8	777	1592.91534017784	88
8	780	1604.499689096357	89
8	792	1638.459155590159	90
8	808	1662.174530111536	91
8	819	1675.306730659341	92
8	822	1680.113392450324	93
8	826	1689.036313022789	94
8	869	1766.562633082744	95
8	883	1787.76403214618	96
8	886	1795.698223754199	97
8	887	1798.731671282255	98
8	897	1819.970442070536	99
8	918	1871.117759901427	100
8	924	1882.894068188282	101
8	939	1924.557653171606	102
8	951	1949.101952237783	103
8	956	1976.35958035924	104
8	963	2030.960860768071	105
8	968	2034.816224568077	106
8	971	2037.453192007647	107
8	987	2052.749937600753	108
8	998	2068.533052537191	109
8	999	2073.159962274528	110
8	1011	2112.511698062624	111
8	1014	2130.745239029207	112
8	1035	2160.195294667825	113
8	1046	2168.643655077825	114
8	1050	2175.863520187308	115
8	1053	2194.190642446713	116
8	1062	2212.167299218317	117
8	1078	2252.890054237538	118
8	1083	2260.559104907972	119
8	1095	2280.512769260747	120
8	1106	2301.615793131995	121
8	1115	2307.913653420922	122
8	1116	2308.708591246112	123
8	1117	2309.723392712004	124
8	1148	2395.512106871786	125
8	1169	2428.659835513872	126
8	1173	2433.14548206807	127
8	1176	2441.920487527042	128
8	1187	2465.843763855821	129
8	1196	2471.722853089289	130
8	1205	2488.747130305236	131
9	201	409.610549188379	2.587497841867
9	242	469.713175574069	17.726313354498
9	245	474.972306097414	22.731051315995
9	252	481.763045648253	25.493892164231
9	253	482.262484181995	19.474398495107
9	258	487.896388433897	16.146212591369
9	261	500.771829258485	14.932874045269
9	286	525.811036696026	6.695100681267
9	291	532.115572589129	9.863610896597
9	292	532.163660410778	1.798991364853
9	314	588.238923254771	15.635162359999
9	315	590.700823632622	3.461360702713
9	320	605.144082332673	2.009132062065
9	326	611.85309500545	2.652205020205
9	335	634.978332240647	24.804379205848
9	336	638.97222462433	25.991683450751
9	347	653.355148002353	1.255687268213
9	353	667.347450432589	12.636310721816
9	363	694.903734116991	8.512654053492
9	366	710.871776575546	8.436746669565
9	373	713.770394890775	1.814941337406
9	374	719.743452969609	7.191518311355
9	380	724.567367288275	3.219819102752
9	396	742.646884485743	2.834282038377
9	405	763.952482628832	19.043823936818
9	414	778.057211091084	5.351953987137
9	423	808.873996535825	2.743873421005
9	430	819.880110925204	8.021111987952
9	452	872.605723159599	9.320628437509
9	455	878.045941055592	10.355947609932
9	456	880.015979508655	3.478125101882
9	465	894.18434581241	0.582235621825
9	468	902.825427306515	0.980538180692
9	492	951.34725465737	3.087706451109
9	531	1041.486692281551	0.253067663345
9	542	1061.100980452497	5.345002706851
9	550	1066.454667382586	1.435946506265
9	561	1076.011033782962	0.735805654281
9	566	1095.396305396962	16.945705707435
9	569	1098.344348166916	5.318686037078
9	576	1107.787486153962	1.598337637265
9	588	1161.975827445053	0.369729973275
9	591	1163.594534478358	0.01609205887
9	608	1206.837157672289	5.261812183592
9	611	1211.613669810068	6.398986156228
9	612	1212.708022065161	3.633703817086
9	618	1216.597810641967	0.207361089497
9	626	1233.629441079016	2.567142120198
9	631	1236.268765861187	2.021439010222
9	640	1251.63022540077	3.288041381106
9	643	1254.365647519562	0.979474851806
9	648	1263.679468118747	1.721884861316
9	661	1299.313002817013	21.845825882276
9	664	1308.129827492964	29.193104600492
9	669	1316.800924138386	10.224009286318
9	675	1328.545043756219	4.808541194106
9	678	1339.772279815449	4.852541433653
9	681	1345.353285766983	0.1598632252
9	687	1365.990924561843	18.586040366747
9	704	1404.724318995002	8.843566155563
9	717	1426.230266260538	2.352178357833
9	732	1457.562856342991	0.587116035247
9	748	1488.164542789087	12.95482069138
9	751	1495.444565866853	17.402261646534
9	752	1502.034190943526	10.650932449245
9	759	1521.677486917394	5.198418882306
9	777	1592.91534017784	2.41491539821
9	780	1604.499689096357	5.48602295219
9	792	1638.459155590159	7.025117742244
9	808	1662.174530111536	11.680801913114
9	819	1675.306730659341	16.713254289422
9	822	1680.113392450324	14.740699801699
9	826	1689.036313022789	7.757799555773
9	869	1766.562633082744	0.515596128174
9	883	1787.76403214618	14.243305494192
9	886	1795.698223754199	15.82255504593
9	887	1798.731671282255	17.569287667224
9	897	1819.970442070536	4.579584946378
9	918	1871.117759901427	9.03742726919
9	924	1882.894068188282	2.512114212647
9	939	1924.557653171606	4.775060927389
9	951	1949.101952237783	3.827536354417
9	956	1976.35958035924	11.216787900925
9	963	2030.960860768071	1.502873266926
9	968	2034.816224568077	0.47711207865
9	971	2037.453192007647	1.16497155178
9	987	2052.749937600753	0.235851152611
9	998	2068.533052537191	3.860841926733
9	999	2073.159962274528	6.172148819121
9	1011	2112.511698062624	2.68933298679
9	1014	2130.745239029207	4.915545317455
9	1035	2160.195294667825	10.438638897577
9	1046	2168.643655077825	1.477083824023
9	1050	2175.863520187308	0.946945474302
9	1053	2194.190642446713	1.295278830708
9	1062	2212.167299218317	10.27444630992
9	1078	2252.890054237538	20.007970605403
9	1083	2260.559104907972	1.219082148627
9	1095	2280.512769260747	3.350031290126
9	1106	2301.615793131995	4.96711447634
9	1115	2307.913653420922	9.338295779194
9	1116	2308.708591246112	5.208009725154
9	1117	2309.723392712004	2.46125473022
9	1148	2395.512106871786	7.103428796676
9	1169	2428.659835513872	5.973300969549
9	1173	2433.14548206807	0.232231587678
9	1176	2441.920487527042	3.373891594989
9	1187	2465.843763855821	2.089123651366
9	1196	2471.722853089289	3.885750796844
9	1205	2488.747130305236	13.627536463099
10	319	603.134950270608	7
10	541	1055.755977745646	8
10	547	1065.018720876321	9
10	628	1234.247326850965	10
10	642	1253.386172667756	11
10	825	1681.278513467016	12
10	868	1766.04703695457	13
10	967	2034.339112489427	14
10	970	2036.288220455867	15
10	1032	2149.756655770248	16
10	1045	2167.166571253802	17
10	1186	2463.754640204455	18
10	1189	2467.837102292445	19
10	1204	2475.119593842137	20
11	1213	2500	0.1092
12	1213	2500	0.0524

