version 2
run experiments_easy_game_mode1-1793-20230308-12:08:31-27754
attr configname experiments_easy_game_mode1
attr datetime 20230308-12:08:31
attr experiment experiments_easy_game_mode1
attr inifile omnetpp.ini
attr iterationvars "$0=7, $1=3.5, $2=100"
attr iterationvarsf 7,3.5,100-
attr measurement "$0=7, $1=3.5, $2=100"
attr network Network
attr processid 27754
attr repetition 23
attr replication #23
attr resultdir results
attr runnumber 1793
attr seedset 23
param *.boss.arrival_mean 20
param *.boss.service_mean 7
param *.minion.arrival_mean 10
param *.minion.service_mean 3.5
param *.player.recover_rate_x 100
param **.minion.arrival_distribution 0
param **.minion.service_distribution 0
param **.boss.arrival_distribution 0
param **.boss.service_distribution 0

vector 0 Network.player minion_jobs_number_stat:vector ETV
attr source signal_minion_jobs_number
vector 1 Network.player minion_jobs_queue_number_stat:vector ETV
attr source signal_minion_jobs_queue_number
vector 2 Network.player boss_defeated_stat:vector ETV
attr source signal_boss_defeated
vector 3 Network.player boss_jobs_queue_number_stat:vector ETV
attr source signal_boss_jobs_queue_number
vector 4 Network.player boss_response_time_stat:vector ETV
attr source signal_boss_response_time
vector 5 Network.player minion_waiting_time_stat:vector ETV
attr source signal_minion_waiting_time
vector 6 Network.player minion_defeated_stat:vector ETV
attr source signal_minion_defeated
vector 7 Network.player minion_response_time_stat:vector ETV
attr source signal_minion_response_time
vector 8 Network.player boss_jobs_number_stat:vector ETV
attr source signal_boss_jobs_number
vector 9 Network.player boss_waiting_time_stat:vector ETV
attr source signal_boss_waiting_time
vector 10 Network.player minion_recovered_stat:vector ETV
attr source signal_minion_recovered
vector 11 Network.player minion_throughput:vector ETV
attr source signal_minion_throughput
vector 12 Network.player boss_throughput:vector ETV
attr source signal_boss_throughput
0	162	351.409402957577	2
0	169	370.777473116595	1
0	173	378.488229332204	1
0	176	391.078058889789	1
0	179	397.97888353961	1
0	182	413.278209427464	1
0	184	414.494555353125	2
0	190	434.906945211122	1
0	194	437.0912865596	1
0	196	438.966175237987	2
0	202	474.26066636912	1
0	206	480.065795011029	1
0	210	497.231086362742	2
0	217	512.07678505048	1
0	220	518.945557114013	2
0	226	544.217495540561	1
0	251	623.258149908015	1
0	253	627.605220061232	2
0	255	628.739338523454	3
0	257	630.00688768246	4
0	262	647.708836715768	5
0	266	652.384505225663	6
0	270	664.273518268876	6
0	272	666.288154121382	7
0	277	674.347348270964	5
0	279	674.425555408986	6
0	281	675.899256176373	7
0	285	700.760062923818	6
0	295	710.865589497593	6
0	298	724.828608809006	7
0	300	730.709122944328	8
0	302	731.848271043627	9
0	313	749.208050082966	2
0	317	760.492420943954	3
0	319	765.748292279184	4
0	327	773.490385942751	5
0	329	780.212356192121	6
0	331	787.654960188613	7
0	333	788.323488024282	8
0	337	797.85556685412	9
0	339	798.413781185913	10
0	341	811.294243343722	11
0	343	813.120722125919	12
0	345	813.826106259941	13
0	348	816.68276717622	14
0	355	822.977483888458	11
0	359	824.741693647157	10
0	364	830.931395268176	10
0	366	834.658069146762	11
0	378	852.005555808404	12
0	385	869.703654029265	8
0	387	874.30463029789	9
0	395	900.13962826778	4
0	399	904.889434806243	3
0	402	918.145831209117	3
0	404	918.838667467392	4
0	410	930.432183228779	1
0	412	934.017006555342	2
0	414	934.29913745827	3
0	422	954.82279783654	1
0	427	961.626707293467	2
0	430	968.280150071091	2
0	432	971.793722177781	3
0	434	974.151422278521	4
0	437	976.9459914137	4
0	440	978.394934346698	4
0	446	986.421336995351	1
0	448	987.326568608815	2
0	452	1001.036176797824	3
0	458	1016.748146059837	4
0	462	1020.510218106742	3
0	470	1033.999585119216	3
0	473	1043.756563453189	4
0	477	1051.620915736899	3
0	494	1088.408374112451	1
0	496	1090.63607194241	2
0	500	1095.507883561552	1
0	503	1108.151485015426	1
0	506	1119.147686660366	1
0	508	1119.446801457123	2
0	512	1123.425782964743	3
0	516	1126.517568189753	3
0	520	1131.053028010706	2
0	524	1151.019326435675	1
0	527	1152.885612349416	1
0	533	1169.793818019991	1
0	536	1172.430706127412	1
0	540	1176.785421987816	2
0	543	1183.600650372988	3
0	549	1198.630166700021	4
0	560	1232.03765163287	1
0	567	1249.526440271864	1
0	573	1254.309630554597	2
0	577	1263.305969080765	3
0	582	1267.464390136375	4
0	586	1282.299306329868	5
0	591	1287.698133590899	6
0	595	1293.601948324288	7
0	604	1323.21393942098	8
0	610	1329.212402018474	8
0	625	1363.610044111697	6
0	632	1369.946213549631	7
0	637	1382.460755315621	8
0	639	1384.501614716769	9
0	641	1387.20796223363	10
0	643	1387.325471994752	11
0	647	1393.722248568077	12
0	656	1425.17509749129	10
0	658	1425.196467057224	11
0	666	1453.829994229033	6
0	674	1490.750988451092	1
0	676	1491.240197052635	2
0	680	1496.543116832561	1
0	688	1525.251530865329	1
0	690	1526.464473774889	2
0	696	1534.15076374501	2
0	698	1538.820365119803	3
0	700	1540.897024957448	4
0	703	1561.95395168398	5
0	705	1565.233562054768	6
0	708	1566.62855413384	6
0	713	1575.187227612997	4
0	722	1588.772610919627	1
0	726	1595.274226142937	2
0	731	1601.208194458292	1
0	734	1622.917714708643	1
0	737	1623.024578515748	1
0	740	1625.660580289895	1
0	742	1633.273764316155	2
0	755	1678.424632632454	1
0	765	1697.969204775388	1
0	770	1707.218097800071	1
0	773	1712.437322052799	1
0	780	1734.191289418866	2
0	784	1740.94459471947	2
0	789	1746.967370311295	3
0	794	1757.017947266365	4
0	800	1768.826021958188	1
0	802	1771.13144291321	2
0	808	1800.299456396917	1
0	810	1802.158581269757	2
0	812	1805.623758910247	3
0	815	1806.711460360698	4
0	822	1817.133171535299	3
0	827	1825.812863346784	1
0	832	1827.864274009818	1
0	836	1833.258109085254	1
0	840	1838.116738802052	2
0	842	1848.699091873847	3
0	844	1848.942959488875	4
0	848	1855.407628382954	4
0	850	1863.515189732285	5
0	852	1867.17014373062	6
0	859	1883.03084663504	2
0	866	1918.146279260694	1
0	869	1924.655666632118	1
0	871	1925.505450703021	2
0	873	1925.829975339095	3
0	878	1935.226545363888	1
0	880	1935.58879072287	2
0	882	1935.70359640184	3
0	890	1977.715694456812	1
0	893	1999.230398836984	1
0	899	2011.407925776068	1
0	902	2034.806196267955	1
0	907	2055.555497537374	1
0	914	2089.775272916261	1
0	918	2090.88877186885	2
0	920	2095.110096941955	3
0	924	2102.439649176249	3
0	927	2106.021876466934	3
0	929	2109.291786164653	4
0	931	2114.395459772272	5
0	933	2115.168904883532	6
0	935	2116.267823271359	7
0	940	2122.901772868527	7
0	942	2123.062148492924	8
0	952	2148.457985402315	9
0	954	2151.828213339695	10
0	958	2160.367110380213	11
0	962	2162.102240589715	12
0	964	2162.187808588662	13
0	966	2166.088356402654	14
0	975	2189.531676080038	9
0	983	2194.994834075687	7
0	986	2197.694611454535	7
0	991	2209.48532261622	8
0	994	2211.311621876526	8
0	1000	2221.220665968171	5
0	1008	2243.478928328736	2
0	1010	2246.199873964957	3
0	1012	2250.397060634754	4
0	1018	2260.291567120752	5
0	1024	2273.128379691331	2
0	1027	2278.94146497112	2
0	1030	2283.518189796709	2
0	1034	2292.05464674669	1
0	1037	2322.682949916442	1
0	1043	2365.592731081332	1
0	1046	2367.633303705858	1
0	1055	2394.973432391493	1
0	1060	2396.233325765036	1
0	1062	2396.432639650882	2
0	1068	2406.724507506172	3
0	1070	2415.544886743746	4
0	1072	2427.390809023039	5
0	1074	2432.409733102057	6
0	1087	2460.200756621562	7
0	1089	2460.798367668201	8
0	1094	2463.437583920972	9
0	1098	2468.036643076955	10
0	1100	2468.171923063472	11
0	1102	2469.518480614558	12
0	1104	2483.984285460263	13
0	1106	2485.431446660174	14
0	1115	2495.212845808239	12
1	162	351.409402957577	1
1	164	361.996288720806	1
1	165	362.609563269747	0
1	169	370.777473116595	0
1	171	377.986068877164	0
1	173	378.488229332204	0
1	174	378.879932531011	0
1	176	391.078058889789	0
1	177	394.293998554348	0
1	179	397.97888353961	0
1	180	398.190443617101	0
1	182	413.278209427464	0
1	184	414.494555353125	1
1	185	420.404061453287	1
1	186	422.978830600485	0
1	190	434.906945211122	0
1	192	436.855401333113	0
1	194	437.0912865596	0
1	196	438.966175237987	1
1	197	443.44649105065	1
1	198	446.39278047189	0
1	202	474.26066636912	0
1	204	477.47605160961	0
1	206	480.065795011029	0
1	210	497.231086362742	1
1	212	504.472337648559	1
1	213	506.916925489631	0
1	217	512.07678505048	0
1	220	518.945557114013	1
1	221	523.471154924216	1
1	222	523.64881634429	0
1	226	544.217495540561	0
1	228	550.099211112599	0
1	251	623.258149908015	0
1	253	627.605220061232	1
1	255	628.739338523454	2
1	257	630.00688768246	3
1	262	647.708836715768	4
1	266	652.384505225663	5
1	268	661.345657032656	5
1	270	664.273518268876	5
1	272	666.288154121382	6
1	273	666.624685325316	6
1	274	670.216459109057	5
1	275	670.556311219172	4
1	277	674.347348270964	4
1	279	674.425555408986	5
1	281	675.899256176373	6
1	282	677.593538148743	6
1	283	688.788524894466	5
1	285	700.760062923818	5
1	286	703.58492309369	5
1	295	710.865589497593	5
1	298	724.828608809006	6
1	300	730.709122944328	7
1	302	731.848271043627	8
1	304	734.496193840831	8
1	305	735.605722439187	7
1	306	736.03581094525	6
1	307	738.307801891017	5
1	308	744.161084158269	4
1	309	744.439556269947	3
1	310	746.711843302202	2
1	311	748.38751351785	1
1	313	749.208050082966	1
1	317	760.492420943954	2
1	319	765.748292279184	3
1	327	773.490385942751	4
1	329	780.212356192121	5
1	331	787.654960188613	6
1	333	788.323488024282	7
1	337	797.85556685412	8
1	339	798.413781185913	9
1	341	811.294243343722	10
1	343	813.120722125919	11
1	345	813.826106259941	12
1	348	816.68276717622	13
1	350	818.121621874647	13
1	351	818.907223885784	12
1	352	821.12130597262	11
1	353	821.444302978079	10
1	355	822.977483888458	10
1	356	823.090339849244	10
1	357	823.635496309681	9
1	359	824.741693647157	9
1	360	824.778504204088	9
1	364	830.931395268176	9
1	366	834.658069146762	10
1	378	852.005555808404	11
1	379	852.034393171697	11
1	380	857.884672232697	10
1	381	860.750369925921	9
1	382	861.304970394829	8
1	383	868.196493277488	7
1	385	869.703654029265	7
1	387	874.30463029789	8
1	388	876.461488223241	8
1	389	886.805679936551	7
1	390	894.946305766096	6
1	391	896.14992487302	5
1	392	898.272722553858	4
1	393	898.285942215337	3
1	395	900.13962826778	3
1	396	900.479809871497	3
1	397	904.079409584601	2
1	399	904.889434806243	2
1	400	913.244900967893	2
1	402	918.145831209117	2
1	404	918.838667467392	3
1	405	922.342481177999	3
1	406	922.820066769945	2
1	407	923.292316729644	1
1	408	923.971829870371	0
1	410	930.432183228779	0
1	412	934.017006555342	1
1	414	934.29913745827	2
1	415	939.133660943178	2
1	419	947.708865589569	1
1	420	949.482665029861	0
1	422	954.82279783654	0
1	427	961.626707293467	1
1	428	968.00020274022	1
1	430	968.280150071091	1
1	432	971.793722177781	2
1	434	974.151422278521	3
1	435	974.233290357066	3
1	437	976.9459914137	3
1	438	977.259637709394	3
1	440	978.394934346698	3
1	441	983.924244573899	3
1	442	983.929402586978	2
1	443	985.323263149497	1
1	444	985.471066102816	0
1	446	986.421336995351	0
1	448	987.326568608815	1
1	452	1001.036176797824	2
1	458	1016.748146059837	3
1	459	1017.026627878356	3
1	460	1018.50122637354	2
1	462	1020.510218106742	2
1	463	1020.621735424992	2
1	470	1033.999585119216	2
1	473	1043.756563453189	3
1	474	1044.665266994828	3
1	475	1048.793922272646	2
1	477	1051.620915736899	2
1	478	1054.414652640596	2
1	488	1068.339810512631	1
1	489	1076.42344023479	0
1	494	1088.408374112451	0
1	496	1090.63607194241	1
1	497	1092.3890862895	1
1	498	1092.729042069466	0
1	500	1095.507883561552	0
1	501	1103.824263331358	0
1	503	1108.151485015426	0
1	504	1110.277048399614	0
1	506	1119.147686660366	0
1	508	1119.446801457123	1
1	512	1123.425782964743	2
1	514	1124.413778286563	2
1	516	1126.517568189753	2
1	517	1127.119053344684	2
1	518	1127.164339242334	1
1	520	1131.053028010706	1
1	521	1131.411663448302	1
1	522	1140.266517050231	0
1	524	1151.019326435675	0
1	525	1151.852752539063	0
1	527	1152.885612349416	0
1	528	1153.52986822296	0
1	533	1169.793818019991	0
1	534	1169.901817978898	0
1	536	1172.430706127412	0
1	540	1176.785421987816	1
1	543	1183.600650372988	2
1	549	1198.630166700021	3
1	552	1219.668353526083	3
1	553	1220.359389565845	2
1	557	1225.421663390646	1
1	558	1228.159635027351	0
1	560	1232.03765163287	0
1	561	1234.077396380803	0
1	567	1249.526440271864	0
1	573	1254.309630554597	1
1	577	1263.305969080765	2
1	582	1267.464390136375	3
1	586	1282.299306329868	4
1	591	1287.698133590899	5
1	595	1293.601948324288	6
1	604	1323.21393942098	7
1	608	1326.1822862192	7
1	610	1329.212402018474	7
1	611	1334.364896494073	7
1	612	1336.770665888042	6
1	613	1337.935914207439	5
1	625	1363.610044111697	5
1	632	1369.946213549631	6
1	637	1382.460755315621	7
1	639	1384.501614716769	8
1	641	1387.20796223363	9
1	643	1387.325471994752	10
1	647	1393.722248568077	11
1	652	1422.461280989472	11
1	653	1423.324294251922	10
1	654	1424.123024258945	9
1	656	1425.17509749129	9
1	658	1425.196467057224	10
1	659	1430.273177047656	10
1	660	1433.657998424498	9
1	661	1435.573319640446	8
1	662	1436.237980868686	7
1	663	1437.968284640924	6
1	664	1443.144271292764	5
1	666	1453.829994229033	5
1	667	1463.934406989919	5
1	668	1464.530553818621	4
1	669	1465.782881123118	3
1	670	1470.662458430235	2
1	671	1471.51360378488	1
1	672	1476.9384391288	0
1	674	1490.750988451092	0
1	676	1491.240197052635	1
1	677	1491.887969858589	1
1	678	1493.915248452809	0
1	680	1496.543116832561	0
1	681	1499.348218547132	0
1	688	1525.251530865329	0
1	690	1526.464473774889	1
1	692	1528.959079904047	1
1	696	1534.15076374501	1
1	698	1538.820365119803	2
1	700	1540.897024957448	3
1	703	1561.95395168398	4
1	705	1565.233562054768	5
1	706	1566.231639562618	5
1	708	1566.62855413384	5
1	709	1567.50512574455	5
1	710	1570.794424655975	4
1	711	1573.726199346007	3
1	713	1575.187227612997	3
1	714	1578.889594786646	3
1	715	1580.798592496345	2
1	716	1580.942359231426	1
1	717	1581.017763194408	0
1	722	1588.772610919627	0
1	726	1595.274226142937	1
1	728	1596.089394423482	1
1	729	1596.130262348621	0
1	731	1601.208194458292	0
1	732	1607.959439205177	0
1	734	1622.917714708643	0
1	735	1622.971636692274	0
1	737	1623.024578515748	0
1	738	1623.475604069684	0
1	740	1625.660580289895	0
1	742	1633.273764316155	1
1	743	1634.439803882875	1
1	744	1634.601850666185	0
1	755	1678.424632632454	0
1	759	1689.690661765233	0
1	765	1697.969204775388	0
1	768	1702.014501223103	0
1	770	1707.218097800071	0
1	771	1707.315700686679	0
1	773	1712.437322052799	0
1	780	1734.191289418866	1
1	782	1736.638133948514	1
1	784	1740.94459471947	1
1	789	1746.967370311295	2
1	794	1757.017947266365	3
1	795	1760.604970499387	3
1	796	1763.967869054091	2
1	797	1764.811093347555	1
1	798	1764.815141869723	0
1	800	1768.826021958188	0
1	802	1771.13144291321	1
1	803	1772.595857428639	1
1	804	1774.203629434648	0
1	808	1800.299456396917	0
1	810	1802.158581269757	1
1	812	1805.623758910247	2
1	815	1806.711460360698	3
1	819	1816.531708059794	3
1	820	1816.921739515071	2
1	822	1817.133171535299	2
1	823	1817.279797538634	2
1	824	1817.751393060434	1
1	825	1820.808899927931	0
1	827	1825.812863346784	0
1	828	1826.145739355094	0
1	832	1827.864274009818	0
1	834	1830.793719358808	0
1	836	1833.258109085254	0
1	840	1838.116738802052	1
1	842	1848.699091873847	2
1	844	1848.942959488875	3
1	846	1853.880749701485	3
1	848	1855.407628382954	3
1	850	1863.515189732285	4
1	852	1867.17014373062	5
1	853	1871.746569099714	5
1	854	1873.989084599027	4
1	855	1878.796937881704	3
1	856	1878.920688680072	2
1	857	1879.98922877864	1
1	859	1883.03084663504	1
1	860	1885.610336842337	1
1	861	1887.743277978778	0
1	866	1918.146279260694	0
1	867	1919.781225380629	0
1	869	1924.655666632118	0
1	871	1925.505450703021	1
1	873	1925.829975339095	2
1	874	1927.669044711321	2
1	875	1932.402118910621	1
1	876	1933.254094177014	0
1	878	1935.226545363888	0
1	880	1935.58879072287	1
1	882	1935.70359640184	2
1	883	1939.801683865459	2
1	884	1940.825310409404	1
1	885	1946.027018141871	0
1	890	1977.715694456812	0
1	891	1980.979648451321	0
1	893	1999.230398836984	0
1	894	2003.369466814196	0
1	899	2011.407925776068	0
1	900	2011.483972242273	0
1	902	2034.806196267955	0
1	903	2034.853616228116	0
1	907	2055.555497537374	0
1	909	2064.023174276616	0
1	914	2089.775272916261	0
1	918	2090.88877186885	1
1	920	2095.110096941955	2
1	922	2100.519283623918	2
1	924	2102.439649176249	2
1	925	2103.686104331779	2
1	927	2106.021876466934	2
1	929	2109.291786164653	3
1	931	2114.395459772272	4
1	933	2115.168904883532	5
1	935	2116.267823271359	6
1	936	2116.462450778203	6
1	940	2122.901772868527	6
1	942	2123.062148492924	7
1	952	2148.457985402315	8
1	954	2151.828213339695	9
1	958	2160.367110380213	10
1	962	2162.102240589715	11
1	964	2162.187808588662	12
1	966	2166.088356402654	13
1	968	2176.800216808193	13
1	969	2182.960146657827	12
1	970	2184.65543000841	11
1	971	2185.138830544799	10
1	972	2185.978622898044	9
1	973	2186.699143595062	8
1	975	2189.531676080038	8
1	976	2192.336750809457	8
1	980	2194.173643706206	7
1	981	2194.269592243968	6
1	983	2194.994834075687	6
1	984	2196.726771889516	6
1	986	2197.694611454535	6
1	991	2209.48532261622	7
1	992	2209.736117545014	7
1	994	2211.311621876526	7
1	995	2211.556356560614	7
1	996	2213.830090814423	6
1	997	2216.117082923594	5
1	998	2219.599214016195	4
1	1000	2221.220665968171	4
1	1001	2225.163593261899	4
1	1002	2228.218755379202	3
1	1003	2231.733066764313	2
1	1004	2238.11991470814	1
1	1008	2243.478928328736	1
1	1010	2246.199873964957	2
1	1012	2250.397060634754	3
1	1018	2260.291567120752	4
1	1019	2266.849693314297	4
1	1020	2267.184754877899	3
1	1021	2267.557835088531	2
1	1022	2272.933042599967	1
1	1024	2273.128379691331	1
1	1025	2273.807273500268	1
1	1027	2278.94146497112	1
1	1028	2281.294630435859	1
1	1030	2283.518189796709	1
1	1031	2283.681012367338	1
1	1032	2285.280852834507	0
1	1034	2292.05464674669	0
1	1035	2293.071997842403	0
1	1037	2322.682949916442	0
1	1038	2325.820300983383	0
1	1043	2365.592731081332	0
1	1044	2366.311767112951	0
1	1046	2367.633303705858	0
1	1047	2368.168680592922	0
1	1055	2394.973432391493	0
1	1056	2395.072586556224	0
1	1060	2396.233325765036	0
1	1062	2396.432639650882	1
1	1068	2406.724507506172	2
1	1070	2415.544886743746	3
1	1072	2427.390809023039	4
1	1074	2432.409733102057	5
1	1087	2460.200756621562	6
1	1089	2460.798367668201	7
1	1094	2463.437583920972	8
1	1098	2468.036643076955	9
1	1100	2468.171923063472	10
1	1102	2469.518480614558	11
1	1104	2483.984285460263	12
1	1106	2485.431446660174	13
1	1109	2486.928720567607	13
1	1110	2487.036213748855	12
1	1111	2487.686372746397	11
1	1115	2495.212845808239	11
2	163	361.74877774732	19
2	170	374.578350258251	20
2	191	436.666113607357	21
2	203	476.144008415024	22
2	211	503.753666741977	23
2	218	517.793855874732	24
2	227	544.713238765117	25
2	231	553.176707484872	26
2	234	562.770349275506	27
2	237	573.112638997987	28
2	240	578.10950882978	29
2	243	587.562166299449	30
2	260	634.953747810829	31
2	263	649.644472549481	32
2	264	651.715304709983	33
2	267	660.678971689527	34
2	293	709.25244462443	35
2	296	721.296711995859	36
2	303	733.679466939835	37
2	322	767.721614697765	38
2	323	771.130092729437	39
2	346	815.206395929065	40
2	349	817.051501998064	41
2	369	840.452396077241	42
2	374	845.766980260471	43
2	375	848.024150362335	44
2	376	850.659909060772	45
2	418	947.274942924996	46
2	425	960.23914639556	47
2	455	1012.580280347089	48
2	456	1015.10759714272	49
2	468	1030.080825412411	50
2	471	1041.344366673552	51
2	485	1061.972681261829	52
2	486	1064.118178400494	53
2	487	1064.736155310988	54
2	492	1082.992791347422	55
2	513	1123.609226983143	56
2	531	1162.386833438343	57
2	541	1182.71132962198	58
2	550	1216.561797242015	59
2	551	1219.545395428415	60
2	556	1224.409943542418	61
2	580	1266.194578151314	62
2	587	1282.741641373157	63
2	596	1294.904009645455	64
2	599	1298.104646966005	65
2	600	1308.988533961057	66
2	601	1312.052595965698	67
2	602	1319.482876179407	68
2	605	1323.713775767033	69
2	606	1325.308484168171	70
2	607	1325.34499482962	71
2	630	1369.242041025126	72
2	633	1375.392937997074	73
2	634	1379.212688056794	74
2	635	1379.682865629869	75
2	644	1391.496062695934	76
2	645	1392.582078991834	77
2	650	1415.034970290935	78
2	651	1417.664464524296	79
2	684	1506.961734494535	80
2	691	1527.719362673052	81
2	701	1552.157695196403	82
2	720	1587.836683500126	83
2	727	1595.665058565532	84
2	747	1638.776448696254	85
2	750	1659.150373851098	86
2	753	1667.813108632345	87
2	758	1680.590619743419	88
2	766	1699.04099763686	89
2	767	1699.944228888455	90
2	778	1733.192187457361	91
2	781	1734.820391663965	92
2	787	1746.434769233845	93
2	792	1751.102609158212	94
2	813	1806.319784585304	95
2	818	1809.981724836032	96
2	833	1830.099631066834	97
2	845	1853.82471310006	98
2	864	1889.879071170331	99
2	888	1952.77718051204	100
2	897	2010.944781830346	101
2	908	2063.030445201018	102
2	912	2074.735155200793	103
2	921	2097.939334042665	104
2	947	2141.706454569867	105
2	948	2146.048135164335	106
2	955	2154.331931743961	107
2	956	2155.671285017164	108
2	967	2176.616295526451	109
2	979	2193.14729417011	110
2	989	2205.609424577945	111
2	1013	2250.628217399151	112
2	1016	2258.958115237285	113
2	1041	2357.57961154859	114
2	1050	2370.150088855248	115
2	1053	2389.020050407438	116
2	1079	2435.98354353044	117
2	1082	2444.862537502298	118
2	1083	2445.640111282682	119
2	1084	2453.61598536061	120
2	1085	2458.401830299888	121
2	1090	2460.828829831763	122
2	1107	2485.934691216549	123
2	1108	2486.132309158616	124
3	163	361.74877774732	0
3	167	370.280462470171	0
3	170	374.578350258251	0
3	188	431.695952669617	0
3	191	436.666113607357	0
3	200	474.147170758762	0
3	203	476.144008415024	0
3	208	481.480691986513	0
3	211	503.753666741977	0
3	215	510.24761767968	0
3	218	517.793855874732	0
3	224	539.94106415391	0
3	227	544.713238765117	0
3	230	550.161117734889	0
3	231	553.176707484872	0
3	233	557.673753371508	0
3	234	562.770349275506	0
3	236	567.956109043973	0
3	237	573.112638997987	0
3	239	575.15768250753	0
3	240	578.10950882978	0
3	242	580.804250949928	0
3	243	587.562166299449	0
3	245	610.465880879532	0
3	247	612.633669047796	1
3	249	621.078268320571	2
3	259	631.86060202898	3
3	260	634.953747810829	3
3	263	649.644472549481	2
3	264	651.715304709983	1
3	267	660.678971689527	0
3	288	705.638349697495	0
3	290	706.665987554936	1
3	292	707.236119425818	2
3	293	709.25244462443	2
3	296	721.296711995859	1
3	303	733.679466939835	0
3	315	751.530606146162	0
3	321	766.408258009834	1
3	322	767.721614697765	1
3	323	771.130092729437	0
3	325	771.611960097243	0
3	335	795.70823994459	1
3	346	815.206395929065	1
3	349	817.051501998064	0
3	362	828.587694700615	0
3	368	835.695198389493	1
3	369	840.452396077241	1
3	371	841.24604760731	1
3	373	842.50405940262	2
3	374	845.766980260471	2
3	375	848.024150362335	1
3	376	850.659909060772	0
3	417	940.112090574546	0
3	418	947.274942924996	0
3	424	959.878403606532	0
3	425	960.23914639556	0
3	450	995.112056211267	0
3	454	1009.65256758039	1
3	455	1012.580280347089	1
3	456	1015.10759714272	0
3	465	1021.842623488271	0
3	467	1022.186221008682	1
3	468	1030.080825412411	1
3	471	1041.344366673552	0
3	480	1054.979966281205	0
3	482	1058.081305622748	1
3	484	1061.030308005097	2
3	485	1061.972681261829	2
3	486	1064.118178400494	1
3	487	1064.736155310988	0
3	491	1081.310136359704	0
3	492	1082.992791347422	0
3	510	1121.105252247653	0
3	513	1123.609226983143	0
3	530	1158.332650760421	0
3	531	1162.386833438343	0
3	538	1174.615342786981	0
3	541	1182.71132962198	0
3	545	1185.093400042341	0
3	547	1195.169701464507	1
3	550	1216.561797242015	1
3	551	1219.545395428415	0
3	555	1221.399061453619	0
3	556	1224.409943542418	0
3	563	1238.355828248703	0
3	565	1242.986426439704	1
3	569	1252.324057016316	2
3	571	1252.81041227046	3
3	575	1262.62134059803	4
3	579	1265.720375963125	5
3	580	1266.194578151314	5
3	584	1274.056234699699	5
3	587	1282.741641373157	5
3	589	1287.083915815885	5
3	593	1290.607169038882	6
3	596	1294.904009645455	6
3	598	1295.126534913334	6
3	599	1298.104646966005	6
3	600	1308.988533961057	5
3	601	1312.052595965698	4
3	602	1319.482876179407	3
3	605	1323.713775767033	2
3	606	1325.308484168171	1
3	607	1325.34499482962	0
3	615	1338.251262635238	0
3	617	1344.542083468712	1
3	619	1356.591721693122	2
3	621	1356.936211215667	3
3	623	1362.588580326634	4
3	627	1368.062489851398	5
3	629	1369.039045075951	6
3	630	1369.242041025126	6
3	633	1375.392937997074	5
3	634	1379.212688056794	4
3	635	1379.682865629869	3
3	644	1391.496062695934	2
3	645	1392.582078991834	1
3	649	1410.890176308349	1
3	650	1415.034970290935	1
3	651	1417.664464524296	0
3	683	1503.835474818698	0
3	684	1506.961734494535	0
3	686	1510.056245344328	0
3	691	1527.719362673052	0
3	694	1533.178873992729	0
3	701	1552.157695196403	0
3	719	1585.545449449645	0
3	720	1587.836683500126	0
3	724	1589.129463026233	0
3	727	1595.665058565532	0
3	746	1636.874992284231	0
3	747	1638.776448696254	0
3	749	1656.129627720702	0
3	750	1659.150373851098	0
3	752	1663.277407136755	0
3	753	1667.813108632345	0
3	757	1680.310452974527	0
3	758	1680.590619743419	0
3	761	1691.970041177819	0
3	763	1696.58688266278	1
3	766	1699.04099763686	1
3	767	1699.944228888455	0
3	775	1719.818776411279	0
3	777	1727.169572722012	1
3	778	1733.192187457361	1
3	781	1734.820391663965	0
3	786	1742.98295227048	0
3	787	1746.434769233845	0
3	791	1747.946618758475	0
3	792	1751.102609158212	0
3	806	1794.976383704355	0
3	813	1806.319784585304	0
3	817	1807.995699510076	0
3	818	1809.981724836032	0
3	830	1827.469922869166	0
3	833	1830.099631066834	0
3	838	1835.994284715025	0
3	845	1853.82471310006	0
3	863	1889.088743691529	0
3	864	1889.879071170331	0
3	887	1946.729588832254	0
3	888	1952.77718051204	0
3	896	2004.62429793366	0
3	897	2010.944781830346	0
3	905	2054.459779923515	0
3	908	2063.030445201018	0
3	911	2074.413488317576	0
3	912	2074.735155200793	0
3	916	2090.254935787689	0
3	921	2097.939334042665	0
3	938	2118.376201383707	0
3	944	2123.529966614318	1
3	946	2128.125391186792	2
3	947	2141.706454569867	2
3	948	2146.048135164335	1
3	950	2147.792189658182	1
3	955	2154.331931743961	1
3	956	2155.671285017164	0
3	960	2160.434193921626	0
3	967	2176.616295526451	0
3	978	2192.585280357836	0
3	979	2193.14729417011	0
3	988	2205.482816027784	0
3	989	2205.609424577945	0
3	1006	2242.158972086936	0
3	1013	2250.628217399151	0
3	1015	2252.357253508174	0
3	1016	2258.958115237285	0
3	1040	2349.783810657802	0
3	1041	2357.57961154859	0
3	1049	2369.802429443491	0
3	1050	2370.150088855248	0
3	1052	2381.692791746694	0
3	1053	2389.020050407438	0
3	1058	2395.775553395185	0
3	1064	2397.022295827693	1
3	1066	2397.996189404248	2
3	1076	2433.487883053021	3
3	1078	2433.832617070752	4
3	1079	2435.98354353044	4
3	1081	2437.057922805673	4
3	1082	2444.862537502298	4
3	1083	2445.640111282682	3
3	1084	2453.61598536061	2
3	1085	2458.401830299888	1
3	1090	2460.828829831763	0
3	1092	2461.518468346402	0
3	1096	2465.729271570205	1
3	1107	2485.934691216549	1
3	1108	2486.132309158616	0
3	1113	2493.276094709187	0
4	163	361.74877774732	25.749730966382
4	170	374.578350258251	4.29788778808
4	191	436.666113607357	4.97016093774
4	203	476.144008415024	1.996837656262
4	211	503.753666741977	22.272974755464
4	218	517.793855874732	7.546238195052
4	227	544.713238765117	4.772174611207
4	231	553.176707484872	3.015589749983
4	234	562.770349275506	5.096595903998
4	237	573.112638997987	5.156529954014
4	240	578.10950882978	2.95182632225
4	243	587.562166299449	6.757915349521
4	260	634.953747810829	24.487866931297
4	263	649.644472549481	37.010803501685
4	264	651.715304709983	30.637036389412
4	267	660.678971689527	28.818369660547
4	293	709.25244462443	3.614094926935
4	296	721.296711995859	14.630724440923
4	303	733.679466939835	26.443347514017
4	322	767.721614697765	16.191008551603
4	323	771.130092729437	4.721834719603
4	346	815.206395929065	43.594435831822
4	349	817.051501998064	21.343262053474
4	369	840.452396077241	11.864701376626
4	374	845.766980260471	10.071781870978
4	375	848.024150362335	6.778102755025
4	376	850.659909060772	8.155849658152
4	418	947.274942924996	7.16285235045
4	425	960.23914639556	0.360742789028
4	455	1012.580280347089	17.468224135822
4	456	1015.10759714272	5.45502956233
4	468	1030.080825412411	8.23820192414
4	471	1041.344366673552	19.15814566487
4	485	1061.972681261829	6.992714980624
4	486	1064.118178400494	6.036872777746
4	487	1064.736155310988	3.705847305891
4	492	1082.992791347422	1.682654987718
4	513	1123.609226983143	2.50397473549
4	531	1162.386833438343	4.054182677922
4	541	1182.71132962198	8.095986834999
4	550	1216.561797242015	31.468397199674
4	551	1219.545395428415	24.375693963908
4	556	1224.409943542418	3.010882088799
4	580	1266.194578151314	27.838749902611
4	587	1282.741641373157	39.755214933453
4	596	1294.904009645455	42.579952629139
4	599	1298.104646966005	45.294234695545
4	600	1308.988533961057	46.367193363027
4	601	1312.052595965698	46.332220002573
4	602	1319.482876179407	45.426641479708
4	605	1323.713775767033	36.629859951148
4	606	1325.308484168171	34.701315129289
4	607	1325.34499482962	30.218459916286
4	630	1369.242041025126	30.990778389888
4	633	1375.392937997074	30.850854528362
4	634	1379.212688056794	22.620966363672
4	635	1379.682865629869	22.746654414202
4	644	1391.496062695934	28.9074823693
4	645	1392.582078991834	24.519589140436
4	650	1415.034970290935	45.995925214984
4	651	1417.664464524296	6.774288215947
4	684	1506.961734494535	3.126259675837
4	691	1527.719362673052	17.663117328724
4	701	1552.157695196403	18.978821203674
4	720	1587.836683500126	2.291234050481
4	727	1595.665058565532	6.535595539299
4	747	1638.776448696254	1.901456412023
4	750	1659.150373851098	3.020746130396
4	753	1667.813108632345	4.53570149559
4	758	1680.590619743419	0.280166768892
4	766	1699.04099763686	7.070956459041
4	767	1699.944228888455	3.357346225675
4	778	1733.192187457361	13.373411046082
4	781	1734.820391663965	7.650818941953
4	787	1746.434769233845	3.451816963365
4	792	1751.102609158212	3.155990399737
4	813	1806.319784585304	11.343400880949
4	818	1809.981724836032	1.986025325956
4	833	1830.099631066834	2.629708197668
4	845	1853.82471310006	17.830428385035
4	864	1889.879071170331	0.790327478802
4	888	1952.77718051204	6.047591679786
4	897	2010.944781830346	6.320483896686
4	908	2063.030445201018	8.570665277503
4	912	2074.735155200793	0.321666883217
4	921	2097.939334042665	7.684398254976
4	947	2141.706454569867	23.33025318616
4	948	2146.048135164335	22.518168550017
4	955	2154.331931743961	26.206540557169
4	956	2155.671285017164	7.879095358982
4	967	2176.616295526451	16.182101604825
4	979	2193.14729417011	0.562013812274
4	989	2205.609424577945	0.126608550161
4	1013	2250.628217399151	8.469245312215
4	1016	2258.958115237285	6.600861729111
4	1041	2357.57961154859	7.795800890788
4	1050	2370.150088855248	0.347659411757
4	1053	2389.020050407438	7.327258660744
4	1079	2435.98354353044	40.207990135255
4	1082	2444.862537502298	47.840241674605
4	1083	2445.640111282682	47.643921878434
4	1084	2453.61598536061	20.128102307589
4	1085	2458.401830299888	24.569213229136
4	1090	2460.828829831763	23.77090702609
4	1107	2485.934691216549	24.416222870147
4	1108	2486.132309158616	20.403037588411
5	163	361.74877774732	16.345031273786
5	164	361.996288720806	10.586885763229
5	170	374.578350258251	3.800877141656
5	173	378.488229332204	0
5	176	391.078058889789	0
5	179	397.97888353961	0
5	182	413.278209427464	0
5	185	420.404061453287	5.909506100162
5	191	436.666113607357	1.759168396235
5	194	437.0912865596	0
5	197	443.44649105065	4.480315812663
5	203	476.144008415024	1.883342045904
5	206	480.065795011029	0
5	211	503.753666741977	22.272974755464
5	212	504.472337648559	7.241251285817
5	218	517.793855874732	5.717070824252
5	221	523.471154924216	4.525597810203
5	227	544.713238765117	0.495743224556
5	267	660.678971689527	37.420821781512
5	268	661.345657032656	33.740436971424
5	273	666.624685325316	37.885346801862
5	274	670.216459109057	40.209571426597
5	275	670.556311219172	22.847474503404
5	282	677.593538148743	25.20903292308
5	283	688.788524894466	24.51500662559
5	286	703.58492309369	37.296768972308
5	303	733.679466939835	59.332118668871
5	304	734.496193840831	60.070638431845
5	305	735.605722439187	59.706466262814
5	306	736.03581094525	35.275748021432
5	307	738.307801891017	32.669452193522
5	308	744.161084158269	33.295494660676
5	309	744.439556269947	19.610947460941
5	310	746.711843302202	16.002720357874
5	311	748.38751351785	16.539242474223
5	323	771.130092729437	21.922042646471
5	349	817.051501998064	65.520895851902
5	350	818.121621874647	57.629200930693
5	351	818.907223885784	53.1589316066
5	352	821.12130597262	49.509345875377
5	353	821.444302978079	47.953917035328
5	356	823.090339849244	42.877983657123
5	357	823.635496309681	35.980536121068
5	360	824.778504204088	36.455016179806
5	376	850.659909060772	52.804342206652
5	379	852.034393171697	53.620611985784
5	380	857.884672232697	46.590428888975
5	381	860.750369925921	47.629647800002
5	382	861.304970394829	47.478864134888
5	383	868.196493277488	51.513726101268
5	388	876.461488223241	53.484004334783
5	389	886.805679936551	62.063986289394
5	390	894.946305766096	66.358611065481
5	391	896.14992487302	65.218529604844
5	392	898.272722553858	63.614653407096
5	393	898.285942215337	46.280386406933
5	396	900.479809871497	30.776155842232
5	397	904.079409584601	29.774779286711
5	400	913.244900967893	13.105272700113
5	405	922.342481177999	17.453046371756
5	406	922.820066769945	4.674235560828
5	407	923.292316729644	4.453649262252
5	410	930.432183228779	0
5	415	939.133660943178	5.116654387836
5	418	947.274942924996	12.975805466726
5	419	947.708865589569	7.596775015023
5	422	954.82279783654	0
5	425	960.23914639556	0.360742789028
5	428	968.00020274022	6.373495446753
5	435	974.233290357066	5.953140285975
5	438	977.259637709394	5.465915531613
5	441	983.924244573899	9.772822295378
5	442	983.929402586978	6.983411173278
5	443	985.323263149497	6.928328802799
5	446	986.421336995351	0
5	456	1015.10759714272	27.781028533905
5	459	1017.026627878356	21.914571667089
5	460	1018.50122637354	17.465049575716
5	463	1020.621735424992	3.873589365155
5	471	1041.344366673552	20.83414856681
5	474	1044.665266994828	22.822643506557
5	475	1048.793922272646	14.79433715343
5	478	1054.414652640596	10.658089187407
5	487	1064.736155310988	13.115239574089
5	488	1068.339810512631	13.359844231426
5	494	1088.408374112451	0
5	497	1092.3890862895	1.75301434709
5	500	1095.507883561552	0
5	503	1108.151485015426	0
5	506	1119.147686660366	0
5	513	1123.609226983143	4.16242552602
5	514	1124.413778286563	3.30852603891
5	517	1127.119053344684	3.693270379941
5	518	1127.164339242334	0.646771052581
5	521	1131.411663448302	0.358635437596
5	524	1151.019326435675	0
5	527	1152.885612349416	0
5	533	1169.793818019991	0
5	536	1172.430706127412	0
5	541	1182.71132962198	8.095986834999
5	551	1219.545395428415	42.759973440599
5	552	1219.668353526083	36.067703153095
5	553	1220.359389565845	35.265989523504
5	556	1224.409943542418	25.779776842397
5	557	1225.421663390646	4.022601937027
5	560	1232.03765163287	0
5	607	1325.34499482962	75.818554557756
5	608	1326.1822862192	71.872655664603
5	611	1334.364896494073	71.058927413308
5	612	1336.770665888042	69.306275751667
5	613	1337.935914207439	55.636607877571
5	651	1417.664464524296	129.9663309334
5	652	1422.461280989472	128.85933266518
5	653	1423.324294251922	100.11035483094
5	654	1424.123024258945	94.910622240471
5	659	1430.273177047656	92.021914412418
5	660	1433.657998424498	70.047954312801
5	661	1435.573319640446	65.627106090815
5	662	1436.237980868686	53.777225553065
5	663	1437.968284640924	53.466669924155
5	664	1443.144271292764	55.936309059134
5	667	1463.934406989919	76.608934995167
5	668	1464.530553818621	70.808305250544
5	669	1465.782881123118	40.607783631828
5	670	1470.662458430235	45.465991373011
5	671	1471.51360378488	17.683609555847
5	674	1490.750988451092	0
5	677	1491.887969858589	0.647772805954
5	680	1496.543116832561	0
5	691	1527.719362673052	2.467831807723
5	692	1528.959079904047	2.494606129158
5	701	1552.157695196403	18.978821203674
5	706	1566.231639562618	32.080875817608
5	709	1567.50512574455	28.684760624747
5	710	1570.794424655975	29.897399698527
5	711	1573.726199346007	11.772247662027
5	714	1578.889594786646	13.656032731878
5	715	1580.798592496345	14.170038362505
5	716	1580.942359231426	5.755131618429
5	722	1588.772610919627	0
5	727	1595.665058565532	6.535595539299
5	728	1596.089394423482	0.815168280545
5	731	1601.208194458292	0
5	734	1622.917714708643	0
5	737	1623.024578515748	0
5	740	1625.660580289895	0
5	743	1634.439803882875	1.16603956672
5	755	1678.424632632454	0
5	758	1680.590619743419	0.280166768892
5	767	1699.944228888455	1.975024113067
5	770	1707.218097800071	0
5	773	1712.437322052799	0
5	781	1734.820391663965	15.001615252686
5	782	1736.638133948514	2.446844529648
5	787	1746.434769233845	5.490174514375
5	792	1751.102609158212	8.119656887732
5	795	1760.604970499387	13.637600188092
5	796	1763.967869054091	16.021250295616
5	797	1764.811093347555	7.79314608119
5	800	1768.826021958188	0
5	803	1772.595857428639	1.464414515429
5	813	1806.319784585304	6.020328188387
5	818	1809.981724836032	7.823143566275
5	819	1816.531708059794	10.907949149547
5	820	1816.921739515071	10.210279154373
5	823	1817.279797538634	9.284098028558
5	824	1817.751393060434	0.618221525135
5	827	1825.812863346784	0
5	833	1830.099631066834	2.235357057016
5	836	1833.258109085254	0
5	845	1853.82471310006	17.830428385035
5	846	1853.880749701485	15.764010899433
5	853	1871.746569099714	23.047477225867
5	854	1873.989084599027	25.046125110152
5	855	1878.796937881704	23.38930949875
5	856	1878.920688680072	15.405498947787
5	857	1879.98922877864	12.81908504802
5	860	1885.610336842337	2.579490207297
5	866	1918.146279260694	0
5	869	1924.655666632118	0
5	874	1927.669044711321	2.1635940083
5	875	1932.402118910621	6.572143571526
5	878	1935.226545363888	0
5	883	1939.801683865459	4.212893142589
5	884	1940.825310409404	5.121714007564
5	890	1977.715694456812	0
5	893	1999.230398836984	0
5	899	2011.407925776068	0
5	902	2034.806196267955	0
5	908	2063.030445201018	7.474947663644
5	914	2089.775272916261	0
5	921	2097.939334042665	7.684398254976
5	922	2100.519283623918	9.630511755068
5	925	2103.686104331779	8.576007389824
5	936	2116.462450778203	14.022801601954
5	956	2155.671285017164	49.64940855023
5	967	2176.616295526451	67.324509361798
5	968	2176.800216808193	62.404757035921
5	969	2182.960146657827	67.791241774295
5	970	2184.65543000841	68.387606737051
5	971	2185.138830544799	66.762629161092
5	972	2185.978622898044	63.076850029517
5	973	2186.699143595062	63.636995102138
5	976	2192.336750809457	43.878765407142
5	979	2193.14729417011	41.319080830415
5	980	2194.173643706206	33.806533325993
5	981	2194.269592243968	33.835398322342
5	984	2196.726771889516	34.624531299801
5	989	2205.609424577945	43.421615989283
5	992	2209.736117545014	43.64776114236
5	995	2211.556356560614	22.024680480576
5	996	2213.830090814423	21.244810456587
5	997	2216.117082923594	21.122248847907
5	998	2219.599214016195	21.90460256166
5	1001	2225.163593261899	19.680777234115
5	1002	2228.218755379202	18.733432762982
5	1003	2231.733066764313	20.421444887787
5	1004	2238.11991470814	16.899248739969
5	1013	2250.628217399151	8.469245312215
5	1016	2258.958115237285	15.479186908549
5	1019	2266.849693314297	20.64981934934
5	1020	2267.184754877899	16.787694243145
5	1021	2267.557835088531	15.200581580357
5	1022	2272.933042599967	12.641475479215
5	1025	2273.807273500268	0.678893808937
5	1028	2281.294630435859	2.353165464739
5	1031	2283.681012367338	0.162822570629
5	1034	2292.05464674669	0
5	1037	2322.682949916442	0
5	1043	2365.592731081332	0
5	1046	2367.633303705858	0
5	1055	2394.973432391493	0
5	1090	2460.828829831763	64.595504066727
5	1108	2486.132309158616	89.699669507734
5	1109	2486.928720567607	80.204213061435
5	1110	2487.036213748855	71.491327005109
5	1111	2487.686372746397	60.295563723358
6	164	361.996288720806	35
6	165	362.609563269747	36
6	171	377.986068877164	37
6	174	378.879932531011	38
6	177	394.293998554348	39
6	180	398.190443617101	40
6	185	420.404061453287	41
6	186	422.978830600485	42
6	192	436.855401333113	43
6	197	443.44649105065	44
6	198	446.39278047189	45
6	204	477.47605160961	46
6	212	504.472337648559	47
6	213	506.916925489631	48
6	221	523.471154924216	49
6	222	523.64881634429	50
6	228	550.099211112599	51
6	268	661.345657032656	52
6	273	666.624685325316	53
6	274	670.216459109057	54
6	275	670.556311219172	55
6	282	677.593538148743	56
6	283	688.788524894466	57
6	286	703.58492309369	58
6	304	734.496193840831	59
6	305	735.605722439187	60
6	306	736.03581094525	61
6	307	738.307801891017	62
6	308	744.161084158269	63
6	309	744.439556269947	64
6	310	746.711843302202	65
6	311	748.38751351785	66
6	350	818.121621874647	67
6	351	818.907223885784	68
6	352	821.12130597262	69
6	353	821.444302978079	70
6	356	823.090339849244	71
6	357	823.635496309681	72
6	360	824.778504204088	73
6	379	852.034393171697	74
6	380	857.884672232697	75
6	381	860.750369925921	76
6	382	861.304970394829	77
6	383	868.196493277488	78
6	388	876.461488223241	79
6	389	886.805679936551	80
6	390	894.946305766096	81
6	391	896.14992487302	82
6	392	898.272722553858	83
6	393	898.285942215337	84
6	396	900.479809871497	85
6	397	904.079409584601	86
6	400	913.244900967893	87
6	405	922.342481177999	88
6	406	922.820066769945	89
6	407	923.292316729644	90
6	408	923.971829870371	91
6	415	939.133660943178	92
6	419	947.708865589569	93
6	420	949.482665029861	94
6	428	968.00020274022	95
6	435	974.233290357066	96
6	438	977.259637709394	97
6	441	983.924244573899	98
6	442	983.929402586978	99
6	443	985.323263149497	100
6	444	985.471066102816	101
6	459	1017.026627878356	102
6	460	1018.50122637354	103
6	463	1020.621735424992	104
6	474	1044.665266994828	105
6	475	1048.793922272646	106
6	478	1054.414652640596	107
6	488	1068.339810512631	108
6	489	1076.42344023479	109
6	497	1092.3890862895	110
6	498	1092.729042069466	111
6	501	1103.824263331358	112
6	504	1110.277048399614	113
6	514	1124.413778286563	114
6	517	1127.119053344684	115
6	518	1127.164339242334	116
6	521	1131.411663448302	117
6	522	1140.266517050231	118
6	525	1151.852752539063	119
6	528	1153.52986822296	120
6	534	1169.901817978898	121
6	552	1219.668353526083	122
6	553	1220.359389565845	123
6	557	1225.421663390646	124
6	558	1228.159635027351	125
6	561	1234.077396380803	126
6	608	1326.1822862192	127
6	611	1334.364896494073	128
6	612	1336.770665888042	129
6	613	1337.935914207439	130
6	652	1422.461280989472	131
6	653	1423.324294251922	132
6	654	1424.123024258945	133
6	659	1430.273177047656	134
6	660	1433.657998424498	135
6	661	1435.573319640446	136
6	662	1436.237980868686	137
6	663	1437.968284640924	138
6	664	1443.144271292764	139
6	667	1463.934406989919	140
6	668	1464.530553818621	141
6	669	1465.782881123118	142
6	670	1470.662458430235	143
6	671	1471.51360378488	144
6	672	1476.9384391288	145
6	677	1491.887969858589	146
6	678	1493.915248452809	147
6	681	1499.348218547132	148
6	692	1528.959079904047	149
6	706	1566.231639562618	150
6	709	1567.50512574455	151
6	710	1570.794424655975	152
6	711	1573.726199346007	153
6	714	1578.889594786646	154
6	715	1580.798592496345	155
6	716	1580.942359231426	156
6	717	1581.017763194408	157
6	728	1596.089394423482	158
6	729	1596.130262348621	159
6	732	1607.959439205177	160
6	735	1622.971636692274	161
6	738	1623.475604069684	162
6	743	1634.439803882875	163
6	744	1634.601850666185	164
6	759	1689.690661765233	165
6	768	1702.014501223103	166
6	771	1707.315700686679	167
6	782	1736.638133948514	168
6	795	1760.604970499387	169
6	796	1763.967869054091	170
6	797	1764.811093347555	171
6	798	1764.815141869723	172
6	803	1772.595857428639	173
6	804	1774.203629434648	174
6	819	1816.531708059794	175
6	820	1816.921739515071	176
6	823	1817.279797538634	177
6	824	1817.751393060434	178
6	825	1820.808899927931	179
6	828	1826.145739355094	180
6	834	1830.793719358808	181
6	846	1853.880749701485	182
6	853	1871.746569099714	183
6	854	1873.989084599027	184
6	855	1878.796937881704	185
6	856	1878.920688680072	186
6	857	1879.98922877864	187
6	860	1885.610336842337	188
6	861	1887.743277978778	189
6	867	1919.781225380629	190
6	874	1927.669044711321	191
6	875	1932.402118910621	192
6	876	1933.254094177014	193
6	883	1939.801683865459	194
6	884	1940.825310409404	195
6	885	1946.027018141871	196
6	891	1980.979648451321	197
6	894	2003.369466814196	198
6	900	2011.483972242273	199
6	903	2034.853616228116	200
6	909	2064.023174276616	201
6	922	2100.519283623918	202
6	925	2103.686104331779	203
6	936	2116.462450778203	204
6	968	2176.800216808193	205
6	969	2182.960146657827	206
6	970	2184.65543000841	207
6	971	2185.138830544799	208
6	972	2185.978622898044	209
6	973	2186.699143595062	210
6	976	2192.336750809457	211
6	980	2194.173643706206	212
6	981	2194.269592243968	213
6	984	2196.726771889516	214
6	992	2209.736117545014	215
6	995	2211.556356560614	216
6	996	2213.830090814423	217
6	997	2216.117082923594	218
6	998	2219.599214016195	219
6	1001	2225.163593261899	220
6	1002	2228.218755379202	221
6	1003	2231.733066764313	222
6	1004	2238.11991470814	223
6	1019	2266.849693314297	224
6	1020	2267.184754877899	225
6	1021	2267.557835088531	226
6	1022	2272.933042599967	227
6	1025	2273.807273500268	228
6	1028	2281.294630435859	229
6	1031	2283.681012367338	230
6	1032	2285.280852834507	231
6	1035	2293.071997842403	232
6	1038	2325.820300983383	233
6	1044	2366.311767112951	234
6	1047	2368.168680592922	235
6	1056	2395.072586556224	236
6	1109	2486.928720567607	237
6	1110	2487.036213748855	238
6	1111	2487.686372746397	239
7	164	361.996288720806	16.592542247272
7	165	362.609563269747	11.20016031217
7	171	377.986068877164	7.208595760569
7	174	378.879932531011	0.391703198807
7	177	394.293998554348	3.215939664559
7	180	398.190443617101	0.211560077491
7	185	420.404061453287	7.125852025823
7	186	422.978830600485	8.48427524736
7	192	436.855401333113	1.948456121991
7	197	443.44649105065	6.35520449105
7	198	446.39278047189	7.426605233903
7	204	477.47605160961	3.21538524049
7	212	504.472337648559	22.991645662046
7	213	506.916925489631	9.685839126889
7	221	523.471154924216	11.394369873736
7	222	523.64881634429	4.703259230277
7	228	550.099211112599	5.881715572038
7	268	661.345657032656	38.087507124641
7	273	666.624685325316	39.019465264084
7	274	670.216459109057	41.477120585603
7	275	670.556311219172	40.549423536712
7	282	677.593538148743	29.884701432975
7	283	688.788524894466	36.404019668803
7	286	703.58492309369	39.311404824814
7	304	734.496193840831	60.148845569867
7	305	735.605722439187	61.180167030201
7	306	736.03581094525	60.136554768877
7	307	738.307801891017	37.547738967199
7	308	744.161084158269	38.522734460774
7	309	744.439556269947	33.573966772354
7	310	746.711843302202	21.883234493196
7	311	748.38751351785	17.678390573522
7	350	818.121621874647	66.591015728485
7	351	818.907223885784	58.41480294183
7	352	821.12130597262	55.373013693436
7	353	821.444302978079	49.832342880836
7	356	823.090339849244	49.599953906493
7	357	823.635496309681	43.42314011756
7	360	824.778504204088	37.123544015475
7	379	852.034393171697	54.178826317577
7	380	857.884672232697	59.470891046784
7	381	860.750369925921	49.456126582199
7	382	861.304970394829	48.18424826891
7	383	868.196493277488	54.370387017547
7	388	876.461488223241	59.778721047021
7	389	886.805679936551	63.828196048093
7	390	894.946305766096	70.204612118939
7	391	896.14992487302	67.562230172405
7	392	898.272722553858	67.341327285682
7	393	898.285942215337	63.627873068575
7	396	900.479809871497	48.474254063093
7	397	904.079409584601	34.375755555336
7	400	913.244900967893	38.940270670003
7	405	922.342481177999	22.202852910219
7	406	922.820066769945	17.930631963702
7	407	923.292316729644	5.146485520527
7	408	923.971829870371	5.133162402979
7	415	939.133660943178	8.701477714399
7	419	947.708865589569	13.409728131299
7	420	949.482665029861	9.370574455315
7	428	968.00020274022	8.121799133688
7	435	974.233290357066	12.606583063599
7	438	977.259637709394	8.979487638303
7	441	983.924244573899	12.130522396118
7	442	983.929402586978	9.777980308457
7	443	985.323263149497	8.377271735797
7	444	985.471066102816	7.076131756118
7	459	1017.026627878356	29.700059269541
7	460	1018.50122637354	23.389170162273
7	463	1020.621735424992	19.585558627168
7	474	1044.665266994828	24.155048888086
7	475	1048.793922272646	26.951298784375
7	478	1054.414652640596	20.41506752138
7	488	1068.339810512631	16.718894775732
7	489	1076.42344023479	21.443473953585
7	497	1092.3890862895	3.980712177049
7	498	1092.729042069466	2.092970127056
7	501	1103.824263331358	8.316379769806
7	504	1110.277048399614	2.125563384188
7	514	1124.413778286563	4.96697682944
7	517	1127.119053344684	6.013801097031
7	518	1127.164339242334	3.738556277591
7	521	1131.411663448302	4.894095258549
7	522	1140.266517050231	9.213489039525
7	525	1151.852752539063	0.833426103388
7	528	1153.52986822296	0.644255873544
7	534	1169.901817978898	0.107999958907
7	552	1219.668353526083	42.882931538267
7	553	1220.359389565845	36.758739192857
7	557	1225.421663390646	26.791496690625
7	558	1228.159635027351	6.760573573732
7	561	1234.077396380803	2.039744747933
7	608	1326.1822862192	76.655845947336
7	611	1334.364896494073	80.055265939476
7	612	1336.770665888042	73.464696807277
7	613	1337.935914207439	70.471524071064
7	652	1422.461280989472	134.76314739857
7	653	1423.324294251922	129.72234592763
7	654	1424.123024258945	100.90908483796
7	659	1430.273177047656	101.06077502918
7	660	1433.657998424498	95.40673578926
7	661	1435.573319640446	71.963275528749
7	662	1436.237980868686	66.291767319055
7	663	1437.968284640924	55.507529325303
7	664	1443.144271292764	58.642656575995
7	667	1463.934406989919	76.726444756289
7	668	1464.530553818621	77.205081823869
7	669	1465.782881123118	72.060632555041
7	670	1470.662458430235	45.487360938945
7	671	1471.51360378488	46.317136727656
7	672	1476.9384391288	23.108444899767
7	677	1491.887969858589	1.136981407497
7	678	1493.915248452809	2.675051400174
7	681	1499.348218547132	2.805101714571
7	692	1528.959079904047	3.707549038718
7	706	1566.231639562618	33.052765569889
7	709	1567.50512574455	33.35436199954
7	710	1570.794424655975	31.974059536172
7	711	1573.726199346007	32.829174388559
7	714	1578.889594786646	16.935643102666
7	715	1580.798592496345	15.565030441577
7	716	1580.942359231426	14.313805097586
7	717	1581.017763194408	5.830535581411
7	728	1596.089394423482	6.959931397249
7	729	1596.130262348621	0.856036205684
7	732	1607.959439205177	6.751244746885
7	735	1622.971636692274	0.053921983631
7	738	1623.475604069684	0.451025553936
7	743	1634.439803882875	8.77922359298
7	744	1634.601850666185	1.32808635003
7	759	1689.690661765233	9.380208790706
7	768	1702.014501223103	4.045296447715
7	771	1707.315700686679	0.097602886608
7	782	1736.638133948514	16.819357537235
7	795	1760.604970499387	17.622018228907
7	796	1763.967869054091	17.000498742796
7	797	1764.811093347555	16.86447458908
7	798	1764.815141869723	7.797194603358
7	803	1772.595857428639	3.769835470451
7	804	1774.203629434648	3.072186521438
7	819	1816.531708059794	14.373126790037
7	820	1816.921739515071	11.297980604824
7	823	1817.279797538634	10.568337177936
7	824	1817.751393060434	9.755693550358
7	825	1820.808899927931	3.675728392632
7	828	1826.145739355094	0.33287600831
7	834	1830.793719358808	2.92944534899
7	846	1853.880749701485	17.88646498646
7	853	1871.746569099714	33.629830297662
7	854	1873.989084599027	25.28999272518
7	855	1878.796937881704	29.853978392829
7	856	1878.920688680072	23.513060297118
7	857	1879.98922877864	16.474039046355
7	860	1885.610336842337	18.440193111717
7	861	1887.743277978778	4.712431343738
7	867	1919.781225380629	1.634946119935
7	874	1927.669044711321	3.013378079203
7	875	1932.402118910621	6.8966682076
7	876	1933.254094177014	7.424118837919
7	883	1939.801683865459	4.575138501571
7	884	1940.825310409404	5.236519686534
7	885	1946.027018141871	10.323421740031
7	891	1980.979648451321	3.263953994509
7	894	2003.369466814196	4.139067977212
7	900	2011.483972242273	0.076046466205
7	903	2034.853616228116	0.047419960161
7	909	2064.023174276616	8.467676739242
7	922	2100.519283623918	10.264347836229
7	925	2103.686104331779	12.797332462929
7	936	2116.462450778203	21.352353836248
7	968	2176.800216808193	67.50843064354
7	969	2182.960146657827	68.564686885555
7	970	2184.65543000841	69.486525124878
7	971	2185.138830544799	68.87100727344
7	972	2185.978622898044	67.602421514337
7	973	2186.699143595062	63.797370726535
7	976	2192.336750809457	69.274602316533
7	980	2194.173643706206	42.345430366511
7	981	2194.269592243968	33.902481863755
7	984	2196.726771889516	36.29257796789
7	992	2209.736117545014	47.548308956352
7	995	2211.556356560614	45.46800015796
7	996	2213.830090814423	24.298414734385
7	997	2216.117082923594	23.531802565758
7	998	2219.599214016195	24.604379940508
7	1001	2225.163593261899	27.468981807364
7	1002	2228.218755379202	22.735939351418
7	1003	2231.733066764313	22.247744148093
7	1004	2238.11991470814	26.808292831614
7	1019	2266.849693314297	23.370764985561
7	1020	2267.184754877899	20.984880912942
7	1021	2267.557835088531	17.160774453777
7	1022	2272.933042599967	20.575789091793
7	1025	2273.807273500268	13.515706379516
7	1028	2281.294630435859	8.166250744528
7	1031	2283.681012367338	4.739547396218
7	1032	2285.280852834507	1.762663037798
7	1035	2293.071997842403	1.017351095713
7	1038	2325.820300983383	3.137351066941
7	1044	2366.311767112951	0.719036031619
7	1047	2368.168680592922	0.535376887064
7	1056	2395.072586556224	0.099154164731
7	1109	2486.928720567607	90.496080916725
7	1110	2487.036213748855	80.311706242683
7	1111	2487.686372746397	72.141486002651
8	167	370.280462470171	1
8	188	431.695952669617	1
8	200	474.147170758762	1
8	208	481.480691986513	1
8	215	510.24761767968	1
8	224	539.94106415391	1
8	230	550.161117734889	1
8	233	557.673753371508	1
8	236	567.956109043973	1
8	239	575.15768250753	1
8	242	580.804250949928	1
8	245	610.465880879532	1
8	247	612.633669047796	2
8	249	621.078268320571	3
8	259	631.86060202898	4
8	288	705.638349697495	1
8	290	706.665987554936	2
8	292	707.236119425818	3
8	315	751.530606146162	1
8	321	766.408258009834	2
8	325	771.611960097243	1
8	335	795.70823994459	2
8	362	828.587694700615	1
8	368	835.695198389493	2
8	371	841.24604760731	2
8	373	842.50405940262	3
8	417	940.112090574546	1
8	424	959.878403606532	1
8	450	995.112056211267	1
8	454	1009.65256758039	2
8	465	1021.842623488271	1
8	467	1022.186221008682	2
8	480	1054.979966281205	1
8	482	1058.081305622748	2
8	484	1061.030308005097	3
8	491	1081.310136359704	1
8	510	1121.105252247653	1
8	530	1158.332650760421	1
8	538	1174.615342786981	1
8	545	1185.093400042341	1
8	547	1195.169701464507	2
8	555	1221.399061453619	1
8	563	1238.355828248703	1
8	565	1242.986426439704	2
8	569	1252.324057016316	3
8	571	1252.81041227046	4
8	575	1262.62134059803	5
8	579	1265.720375963125	6
8	584	1274.056234699699	6
8	589	1287.083915815885	6
8	593	1290.607169038882	7
8	598	1295.126534913334	7
8	615	1338.251262635238	1
8	617	1344.542083468712	2
8	619	1356.591721693122	3
8	621	1356.936211215667	4
8	623	1362.588580326634	5
8	627	1368.062489851398	6
8	629	1369.039045075951	7
8	649	1410.890176308349	2
8	683	1503.835474818698	1
8	686	1510.056245344328	1
8	694	1533.178873992729	1
8	719	1585.545449449645	1
8	724	1589.129463026233	1
8	746	1636.874992284231	1
8	749	1656.129627720702	1
8	752	1663.277407136755	1
8	757	1680.310452974527	1
8	761	1691.970041177819	1
8	763	1696.58688266278	2
8	775	1719.818776411279	1
8	777	1727.169572722012	2
8	786	1742.98295227048	1
8	791	1747.946618758475	1
8	806	1794.976383704355	1
8	817	1807.995699510076	1
8	830	1827.469922869166	1
8	838	1835.994284715025	1
8	863	1889.088743691529	1
8	887	1946.729588832254	1
8	896	2004.62429793366	1
8	905	2054.459779923515	1
8	911	2074.413488317576	1
8	916	2090.254935787689	1
8	938	2118.376201383707	1
8	944	2123.529966614318	2
8	946	2128.125391186792	3
8	950	2147.792189658182	2
8	960	2160.434193921626	1
8	978	2192.585280357836	1
8	988	2205.482816027784	1
8	1006	2242.158972086936	1
8	1015	2252.357253508174	1
8	1040	2349.783810657802	1
8	1049	2369.802429443491	1
8	1052	2381.692791746694	1
8	1058	2395.775553395185	1
8	1064	2397.022295827693	2
8	1066	2397.996189404248	3
8	1076	2433.487883053021	4
8	1078	2433.832617070752	5
8	1081	2437.057922805673	5
8	1092	2461.518468346402	1
8	1096	2465.729271570205	2
8	1113	2493.276094709187	1
9	167	370.280462470171	0
9	188	431.695952669617	0
9	200	474.147170758762	0
9	208	481.480691986513	0
9	215	510.24761767968	0
9	224	539.94106415391	0
9	230	550.161117734889	0
9	233	557.673753371508	0
9	236	567.956109043973	0
9	239	575.15768250753	0
9	242	580.804250949928	0
9	245	610.465880879532	0
9	260	634.953747810829	22.320078763033
9	263	649.644472549481	28.56620422891
9	264	651.715304709983	19.854702681003
9	288	705.638349697495	0
9	293	709.25244462443	2.586457069494
9	296	721.296711995859	14.060592570041
9	315	751.530606146162	0
9	322	767.721614697765	1.313356687931
9	325	771.611960097243	0
9	346	815.206395929065	19.498155984475
9	362	828.587694700615	0
9	369	840.452396077241	4.757197687748
9	374	845.766980260471	4.520932653161
9	375	848.024150362335	5.520090959715
9	417	940.112090574546	0
9	424	959.878403606532	0
9	450	995.112056211267	0
9	455	1012.580280347089	2.927712766699
9	465	1021.842623488271	0
9	468	1030.080825412411	7.894604403729
9	480	1054.979966281205	0
9	485	1061.972681261829	3.891375639081
9	486	1064.118178400494	3.087870395397
9	491	1081.310136359704	0
9	510	1121.105252247653	0
9	530	1158.332650760421	0
9	538	1174.615342786981	0
9	545	1185.093400042341	0
9	550	1216.561797242015	21.392095777508
9	555	1221.399061453619	0
9	563	1238.355828248703	0
9	580	1266.194578151314	23.20815171161
9	587	1282.741641373157	30.417584356841
9	596	1294.904009645455	42.093597374995
9	599	1298.104646966005	35.483306367975
9	600	1308.988533961057	43.268157997932
9	601	1312.052595965698	37.996361265999
9	602	1319.482876179407	32.398960363522
9	605	1323.713775767033	33.106606728151
9	606	1325.308484168171	30.181949254837
9	615	1338.251262635238	0
9	630	1369.242041025126	24.699957556414
9	633	1375.392937997074	18.801216303952
9	634	1379.212688056794	22.276476841127
9	635	1379.682865629869	17.094285303235
9	644	1391.496062695934	23.433572844536
9	645	1392.582078991834	23.543033915883
9	650	1415.034970290935	4.144793982586
9	683	1503.835474818698	0
9	686	1510.056245344328	0
9	694	1533.178873992729	0
9	719	1585.545449449645	0
9	724	1589.129463026233	0
9	746	1636.874992284231	0
9	749	1656.129627720702	0
9	752	1663.277407136755	0
9	757	1680.310452974527	0
9	761	1691.970041177819	0
9	766	1699.04099763686	2.45411497408
9	775	1719.818776411279	0
9	778	1733.192187457361	6.022614735349
9	786	1742.98295227048	0
9	791	1747.946618758475	0
9	806	1794.976383704355	0
9	817	1807.995699510076	0
9	830	1827.469922869166	0
9	838	1835.994284715025	0
9	863	1889.088743691529	0
9	887	1946.729588832254	0
9	896	2004.62429793366	0
9	905	2054.459779923515	0
9	911	2074.413488317576	0
9	916	2090.254935787689	0
9	938	2118.376201383707	0
9	947	2141.706454569867	18.176487955549
9	948	2146.048135164335	17.922743977543
9	955	2154.331931743961	6.539742085779
9	960	2160.434193921626	0
9	978	2192.585280357836	0
9	988	2205.482816027784	0
9	1006	2242.158972086936	0
9	1015	2252.357253508174	0
9	1040	2349.783810657802	0
9	1049	2369.802429443491	0
9	1052	2381.692791746694	0
9	1058	2395.775553395185	0
9	1079	2435.98354353044	38.961247702747
9	1082	2444.862537502298	46.86634809805
9	1083	2445.640111282682	12.152228229661
9	1084	2453.61598536061	19.783368289858
9	1085	2458.401830299888	21.343907494215
9	1092	2461.518468346402	0
9	1107	2485.934691216549	20.205419646344
9	1113	2493.276094709187	0
10	208	481.480691986513	9
10	288	705.638349697495	10
10	315	751.530606146162	11
10	325	771.611960097243	12
10	362	828.587694700615	13
10	417	940.112090574546	14
10	424	959.878403606532	15
10	450	995.112056211267	16
10	465	1021.842623488271	17
10	480	1054.979966281205	18
10	510	1121.105252247653	19
10	538	1174.615342786981	20
10	545	1185.093400042341	21
10	555	1221.399061453619	22
10	615	1338.251262635238	23
10	694	1533.178873992729	24
10	724	1589.129463026233	25
10	757	1680.310452974527	26
10	775	1719.818776411279	27
10	786	1742.98295227048	28
10	791	1747.946618758475	29
10	817	1807.995699510076	30
10	838	1835.994284715025	31
10	916	2090.254935787689	32
10	938	2118.376201383707	33
10	960	2160.434193921626	34
10	978	2192.585280357836	35
10	988	2205.482816027784	36
10	1006	2242.158972086936	37
10	1015	2252.357253508174	38
10	1092	2461.518468346402	39
10	1113	2493.276094709187	40
11	1116	2500	0.0956
12	1116	2500	0.0496

