file 61949 1678273755                                           
version 2
run experiments_easy_game_mode1-2150-20230308-12:09:15-29540
attr configname experiments_easy_game_mode1
attr datetime 20230308-12:09:15
attr experiment experiments_easy_game_mode1
attr inifile omnetpp.ini
attr iterationvars "$0=7.5, $1=3.5, $2=100"
attr iterationvarsf 7.5,3.5,100-
attr measurement "$0=7.5, $1=3.5, $2=100"
attr network Network
attr processid 29540
attr repetition 20
attr replication #20
attr resultdir results
attr runnumber 2150
attr seedset 20
param *.boss.arrival_mean 20
param *.boss.service_mean 7.5
param *.minion.arrival_mean 10
param *.minion.service_mean 3.5
param *.player.recover_rate_x 100
param **.minion.arrival_distribution 0
param **.minion.service_distribution 0
param **.boss.arrival_distribution 0
param **.boss.service_distribution 0

vector 0 Network.player minion_jobs_number_stat:vector ETV
attr source signal_minion_jobs_number
vector 1 Network.player minion_jobs_queue_number_stat:vector ETV
attr source signal_minion_jobs_queue_number
vector 2 Network.player minion_defeated_stat:vector ETV
attr source signal_minion_defeated
vector 3 Network.player minion_response_time_stat:vector ETV
attr source signal_minion_response_time
vector 4 Network.player minion_waiting_time_stat:vector ETV
attr source signal_minion_waiting_time
vector 5 Network.player boss_jobs_number_stat:vector ETV
attr source signal_boss_jobs_number
vector 6 Network.player boss_jobs_queue_number_stat:vector ETV
attr source signal_boss_jobs_queue_number
vector 7 Network.player boss_waiting_time_stat:vector ETV
attr source signal_boss_waiting_time
vector 8 Network.player boss_defeated_stat:vector ETV
attr source signal_boss_defeated
vector 9 Network.player boss_response_time_stat:vector ETV
attr source signal_boss_response_time
vector 10 Network.player minion_recovered_stat:vector ETV
attr source signal_minion_recovered
vector 11 Network.player minion_throughput:vector ETV
attr source signal_minion_throughput
vector 12 Network.player boss_throughput:vector ETV
attr source signal_boss_throughput
0	2031 5594 127 1098 351.622388343199 2470.076086231798 217 1 15 844 5550
1	7625 10962 127 1098 351.622388343199 2470.076086231798 426 0 14 1218 7954
2	18587 5711 128 1071 352.272344329627 2435.744943327642 209 30 238 28006 4513564
3	24298 8180 128 1071 352.272344329627 2435.744943327642 209 0.02442138891 140.68872129007 5630.7731198868 387806.19826393
4	32478 8795 128 1070 352.272344329627 2434.371982535805 242 0 135.86104370911 5405.4639861516 373811.7528336
5	41273 2913 146 1104 429.805982642391 2491.727201881822 113 1 6 208 540
6	44186 5796 146 1106 429.805982642391 2496.034906213698 225 0 5 190 474
7	49982 3597 146 1106 429.805982642391 2496.034906213698 113 0 58.625354251325 858.84529509214 26682.573648149
8	53579 3020 151 1106 433.473181713789 2496.034906213698 112 13 124 7672 642600
9	56599 4372 151 1106 433.473181713789 2496.034906213698 112 0.030851912046 77.17854841894 1688.8077594251 57765.673995061
10	60971 937 183 1050 512.001023992162 2366.358492865929 34 6 39 765 20485
11	61908 20 1107 1107 2500 2500 1 0.0952 0.0952 0.0952 0.00906304
12	61928 20 1107 1107 2500 2500 1 0.0496 0.0496 0.0496 0.00246016

