file 64832 1678273686                                           
version 2
run experiments_easy_game_mode1-1678-20230308-12:08:06-27179
attr configname experiments_easy_game_mode1
attr datetime 20230308-12:08:06
attr experiment experiments_easy_game_mode1
attr inifile omnetpp.ini
attr iterationvars "$0=7, $1=2.5, $2=100"
attr iterationvarsf 7,2.5,100-
attr measurement "$0=7, $1=2.5, $2=100"
attr network Network
attr processid 27179
attr repetition 28
attr replication #28
attr resultdir results
attr runnumber 1678
attr seedset 28
param *.boss.arrival_mean 20
param *.boss.service_mean 7
param *.minion.arrival_mean 10
param *.minion.service_mean 2.5
param *.player.recover_rate_x 100
param **.minion.arrival_distribution 0
param **.minion.service_distribution 0
param **.boss.arrival_distribution 0
param **.boss.service_distribution 0

vector 0 Network.player minion_jobs_number_stat:vector ETV
attr source signal_minion_jobs_number
vector 1 Network.player minion_jobs_queue_number_stat:vector ETV
attr source signal_minion_jobs_queue_number
vector 2 Network.player minion_defeated_stat:vector ETV
attr source signal_minion_defeated
vector 3 Network.player minion_response_time_stat:vector ETV
attr source signal_minion_response_time
vector 4 Network.player minion_waiting_time_stat:vector ETV
attr source signal_minion_waiting_time
vector 5 Network.player boss_jobs_number_stat:vector ETV
attr source signal_boss_jobs_number
vector 6 Network.player boss_jobs_queue_number_stat:vector ETV
attr source signal_boss_jobs_queue_number
vector 7 Network.player boss_waiting_time_stat:vector ETV
attr source signal_boss_waiting_time
vector 8 Network.player boss_defeated_stat:vector ETV
attr source signal_boss_defeated
vector 9 Network.player boss_response_time_stat:vector ETV
attr source signal_boss_response_time
vector 10 Network.player minion_recovered_stat:vector ETV
attr source signal_minion_recovered
vector 11 Network.player minion_throughput:vector ETV
attr source signal_minion_throughput
vector 12 Network.player boss_throughput:vector ETV
attr source signal_boss_throughput
0	2023 6382 168 1195 350.294513694894 2463.460184766505 247 1 12 657 2929
1	8405 12813 168 1197 350.294513694894 2469.019125321119 496 0 11 821 3725
2	21218 6858 169 1197 353.029214845859 2469.019125321119 249 30 278 38346 7191784
3	28076 9743 169 1197 353.029214845859 2469.019125321119 249 0.022379323464 81.521647794296 2815.7868893076 76349.722735374
4	37819 9418 169 1196 353.029214845859 2466.828296668124 270 0 80.75792192267 2419.9914072645 67680.997589782
5	47237 2517 176 1202 378.709152250134 2495.979355742821 98 1 4 140 252
6	49754 5038 176 1203 378.709152250134 2498.083814736786 196 0 3 84 140
7	54792 2924 176 1202 378.709152250134 2495.979355742821 98 0 29.215247202655 280.52025891553 4195.5465226063
8	57716 2643 179 1203 387.26412998612 2498.083814736786 98 26 123 7301 622349
9	60359 3827 179 1203 387.26412998612 2498.083814736786 98 0.002480673288 47.845640567125 966.21962013772 18046.834684392
10	64186 605 208 1174 457.419023234562 2417.712062284441 22 13 34 517 13035
11	64791 20 1204 1204 2500 2500 1 0.1112 0.1112 0.1112 0.01236544
12	64811 20 1204 1204 2500 2500 1 0.0492 0.0492 0.0492 0.00242064

