file 61094 1678273674                                           
version 2
run experiments_easy_game_mode1-1628-20230308-12:07:54-26929
attr configname experiments_easy_game_mode1
attr datetime 20230308-12:07:54
attr experiment experiments_easy_game_mode1
attr inifile omnetpp.ini
attr iterationvars "$0=7, $1=2.5, $2=0"
attr iterationvarsf 7,2.5,0-
attr measurement "$0=7, $1=2.5, $2=0"
attr network Network
attr processid 26929
attr repetition 8
attr replication #8
attr resultdir results
attr runnumber 1628
attr seedset 8
param *.boss.arrival_mean 20
param *.boss.service_mean 7
param *.minion.arrival_mean 10
param *.minion.service_mean 2.5
param *.player.recover_rate_x 0
param **.minion.arrival_distribution 0
param **.minion.service_distribution 0
param **.boss.arrival_distribution 0
param **.boss.service_distribution 0

vector 0 Network.player minion_defeated_stat:vector ETV
attr source signal_minion_defeated
vector 1 Network.player minion_jobs_queue_number_stat:vector ETV
attr source signal_minion_jobs_queue_number
vector 2 Network.player minion_response_time_stat:vector ETV
attr source signal_minion_response_time
vector 3 Network.player minion_waiting_time_stat:vector ETV
attr source signal_minion_waiting_time
vector 4 Network.player minion_jobs_number_stat:vector ETV
attr source signal_minion_jobs_number
vector 5 Network.player boss_jobs_number_stat:vector ETV
attr source signal_boss_jobs_number
vector 6 Network.player boss_jobs_queue_number_stat:vector ETV
attr source signal_boss_jobs_queue_number
vector 7 Network.player minion_recovered_stat:vector ETV
attr source signal_minion_recovered
vector 8 Network.player boss_waiting_time_stat:vector ETV
attr source signal_boss_waiting_time
vector 9 Network.player boss_defeated_stat:vector ETV
attr source signal_boss_defeated
vector 10 Network.player boss_response_time_stat:vector ETV
attr source signal_boss_response_time
vector 11 Network.player minion_throughput:vector ETV
attr source signal_minion_throughput
vector 12 Network.player boss_throughput:vector ETV
attr source signal_boss_throughput
0	2012 6149 169 1116 352.075385672835 2447.806511170655 225 30 254 31950 5486100
1	8161 11458 169 1132 352.075385672835 2499.949391704458 445 0 15 995 7083
2	19619 8781 169 1116 352.075385672835 2447.806511170655 225 0.197554004559 112.91307869218 4332.9860073609 206645.11284044
3	28400 8735 169 1115 352.075385672835 2447.089342177539 251 0 110.62524715817 4278.7234697866 214314.81920507
4	37135 5679 171 1132 355.039202252463 2499.949391704458 220 1 16 710 4714
5	42814 2580 179 1130 375.391315048882 2498.862924785266 100 1 6 185 511
6	45394 5140 179 1130 375.391315048882 2498.862924785266 199 0 5 170 482
7	50534 717 179 1110 375.391315048882 2432.751736103515 27 5 31 486 10386
8	51251 3131 179 1130 375.391315048882 2498.862924785266 100 0 35.047380009385 589.20072644507 12902.285378147
9	54382 2682 180 1128 376.877501896449 2491.787919460925 99 24 122 7227 608421
10	57064 3989 180 1128 376.877501896449 2491.787919460925 99 0.230304142569 50.843997809379 1360.2060240505 33495.220186298
11	61053 20 1133 1133 2500 2500 1 0.1016 0.1016 0.1016 0.01032256
12	61073 20 1133 1133 2500 2500 1 0.0488 0.0488 0.0488 0.00238144

