version 2
run experiments_easy_game_mode1-315-20230308-12:03:00-19981
attr configname experiments_easy_game_mode1
attr datetime 20230308-12:03:00
attr experiment experiments_easy_game_mode1
attr inifile omnetpp.ini
attr iterationvars "$0=5, $1=3.5, $2=0"
attr iterationvarsf 5,3.5,0-
attr measurement "$0=5, $1=3.5, $2=0"
attr network Network
attr processid 19981
attr repetition 15
attr replication #15
attr resultdir results
attr runnumber 315
attr seedset 15
param *.boss.arrival_mean 20
param *.boss.service_mean 5
param *.minion.arrival_mean 10
param *.minion.service_mean 3.5
param *.player.recover_rate_x 0
param **.minion.arrival_distribution 0
param **.minion.service_distribution 0
param **.boss.arrival_distribution 0
param **.boss.service_distribution 0

vector 0 Network.player minion_defeated_stat:vector ETV
attr source signal_minion_defeated
vector 1 Network.player minion_jobs_queue_number_stat:vector ETV
attr source signal_minion_jobs_queue_number
vector 2 Network.player minion_response_time_stat:vector ETV
attr source signal_minion_response_time
vector 3 Network.player minion_jobs_number_stat:vector ETV
attr source signal_minion_jobs_number
vector 4 Network.player minion_waiting_time_stat:vector ETV
attr source signal_minion_waiting_time
vector 5 Network.player boss_jobs_number_stat:vector ETV
attr source signal_boss_jobs_number
vector 6 Network.player boss_jobs_queue_number_stat:vector ETV
attr source signal_boss_jobs_queue_number
vector 7 Network.player boss_waiting_time_stat:vector ETV
attr source signal_boss_waiting_time
vector 8 Network.player boss_defeated_stat:vector ETV
attr source signal_boss_defeated
vector 9 Network.player boss_response_time_stat:vector ETV
attr source signal_boss_response_time
vector 10 Network.player minion_recovered_stat:vector ETV
attr source signal_minion_recovered
vector 11 Network.player minion_throughput:vector ETV
attr source signal_minion_throughput
vector 12 Network.player boss_throughput:vector ETV
attr source signal_boss_throughput
0	156	354.860080407308	31
0	159	373.787640437233	32
0	164	379.0577577628	33
0	169	382.447666161209	34
0	170	382.746465951041	35
0	171	383.905326916787	36
0	174	387.302641490321	37
0	185	404.557476671482	38
0	189	412.016520941815	39
0	192	431.345577473665	40
0	195	445.423389976229	41
0	200	453.243067430934	42
0	201	453.385482047928	43
0	204	460.322829773896	44
0	209	465.132572284882	45
0	210	472.079971723832	46
0	213	484.329815000058	47
0	216	491.298689516531	48
0	221	496.520331761023	49
0	222	497.141138698953	50
0	231	542.599357061157	51
0	240	572.321478226978	52
0	248	586.31991465579	53
0	249	586.608311633552	54
0	262	629.970679505187	55
0	265	634.446272510992	56
0	266	635.652109702489	57
0	267	639.501991899303	58
0	272	640.780544349481	59
0	273	641.722420326044	60
0	289	695.86655228173	61
0	290	695.993127823257	62
0	291	699.244561841666	63
0	294	710.747206025041	64
0	307	750.068941240364	65
0	328	784.3679615551	66
0	329	785.662487033549	67
0	334	789.639172320989	68
0	335	789.794770275524	69
0	336	791.84150641645	70
0	337	792.31512201722	71
0	342	806.164424250208	72
0	343	807.590046758337	73
0	344	808.796106061942	74
0	350	825.397896609428	75
0	353	825.919092374724	76
0	354	827.861867270494	77
0	360	847.583951046252	78
0	363	855.505048707946	79
0	366	859.890656194546	80
0	369	866.68207707312	81
0	372	873.080950135975	82
0	381	903.835897289332	83
0	384	931.122248886201	84
0	403	1003.166056038714	85
0	404	1007.537974286876	86
0	405	1008.748280579028	87
0	408	1021.529764611943	88
0	411	1026.977767131383	89
0	414	1044.196161973868	90
0	417	1047.97029406885	91
0	420	1054.28503187743	92
0	423	1071.101820590034	93
0	429	1101.788610650011	94
0	432	1106.367552220234	95
0	458	1143.97543629243	96
0	459	1144.198335019149	97
0	472	1166.484838976794	98
0	473	1169.231159543109	99
0	474	1169.267556613221	100
0	483	1180.57887440427	101
0	495	1208.138371061884	102
0	496	1210.779347472034	103
0	497	1213.743225422125	104
0	508	1234.293161876841	105
0	509	1239.50496529115	106
0	510	1240.598154587561	107
0	516	1264.360979039693	108
0	519	1295.514685645591	109
0	525	1304.561002960009	110
0	540	1314.630661655372	111
0	543	1316.264001627802	112
0	544	1316.30615132388	113
0	551	1330.186083693104	114
0	552	1330.547823799354	115
0	553	1336.69690158128	116
0	554	1336.835879208819	117
0	557	1345.635258179188	118
0	558	1346.361681199226	119
0	561	1358.738044402184	120
0	567	1368.22997682311	121
0	573	1374.227202145751	122
0	588	1392.086642791493	123
0	591	1421.520389310509	124
0	597	1478.195272060555	125
0	600	1502.488808701724	126
0	603	1507.393370563846	127
0	614	1535.422800990963	128
0	615	1539.27216183937	129
0	624	1554.271733741382	130
0	642	1603.596560900361	131
0	645	1612.83241332043	132
0	648	1617.396322898605	133
0	669	1647.568407900816	134
0	670	1649.098331468696	135
0	671	1651.375402284234	136
0	681	1670.016685557737	137
0	682	1671.001994703296	138
0	688	1674.421302373358	139
0	689	1674.838995193993	140
0	697	1687.313633443483	141
0	701	1696.35279012914	142
0	702	1702.141475459879	143
0	708	1710.990682644761	144
0	731	1741.520111635798	145
0	732	1742.988985133753	146
0	735	1748.978976063843	147
0	739	1762.445006237695	148
0	759	1817.649957915668	149
0	762	1818.907998500343	150
0	763	1819.05468966564	151
0	764	1825.798530303729	152
0	765	1827.792489865425	153
0	766	1833.560328778718	154
0	769	1837.166647349875	155
0	770	1837.615312656523	156
0	771	1842.253254849395	157
0	774	1844.642528815672	158
0	784	1854.132907123953	159
0	793	1872.418739597989	160
0	794	1873.215994908408	161
0	795	1874.15569082501	162
0	796	1874.698297981605	163
0	797	1878.478785887797	164
0	811	1904.258997843881	165
0	812	1912.844792312136	166
0	815	1916.711119688753	167
0	816	1916.774744376676	168
0	819	1921.09702134618	169
0	822	1940.181899117898	170
0	825	1952.549751133907	171
0	834	1975.750188161059	172
0	837	1982.955937851242	173
0	840	1990.179626181901	174
0	843	1996.995183520915	175
0	851	2005.590660324882	176
0	852	2011.323908941718	177
0	855	2021.398118586098	178
0	861	2038.210488966002	179
0	873	2059.804813768416	180
0	874	2060.678898785789	181
0	875	2061.778649338976	182
0	876	2065.789037050734	183
0	882	2093.619958877213	184
0	885	2099.957370660216	185
0	891	2127.022339618367	186
0	931	2191.872562101619	187
0	934	2195.263093112196	188
0	935	2199.825726145127	189
0	938	2206.830490125071	190
0	939	2207.362159222599	191
0	940	2209.776907274393	192
0	943	2217.947771321425	193
0	944	2219.371181839303	194
0	951	2233.694481276682	195
0	954	2240.746894483835	196
0	955	2243.769860406425	197
0	963	2257.430096562985	198
0	964	2257.674845076104	199
0	967	2260.390439506525	200
0	968	2263.080070028976	201
0	969	2269.405277568869	202
0	970	2269.890428820794	203
0	971	2270.21761170966	204
0	972	2288.433221001222	205
0	977	2298.342189551391	206
0	978	2299.248975663517	207
0	983	2302.426688202738	208
0	984	2304.97420382887	209
0	987	2308.606115996567	210
0	990	2312.443289811186	211
0	1017	2355.308154462375	212
0	1018	2358.075156176352	213
0	1019	2359.412739207455	214
0	1020	2361.457327512178	215
0	1021	2362.974007987417	216
0	1022	2363.863441102091	217
0	1023	2368.502803518658	218
0	1059	2438.600291714123	219
0	1060	2438.832112042395	220
0	1066	2447.264317745923	221
0	1067	2449.111253802838	222
0	1068	2456.660428601406	223
0	1069	2457.980577389474	224
0	1072	2464.78980888698	225
0	1073	2465.123277551433	226
0	1078	2472.255045263229	227
0	1081	2473.453784552444	228
0	1082	2474.283512971797	229
0	1083	2475.119917037733	230
0	1086	2480.805356956467	231
0	1089	2486.208325196228	232
1	156	354.860080407308	0
1	158	371.826817875947	0
1	159	373.787640437233	0
1	161	375.204235405122	0
1	163	377.298172037204	1
1	164	379.0577577628	1
1	166	379.790286642821	1
1	168	380.230609116032	2
1	169	382.447666161209	2
1	170	382.746465951041	1
1	171	383.905326916787	0
1	173	387.203879098344	0
1	174	387.302641490321	0
1	181	391.229347065333	0
1	184	401.337079352643	1
1	185	404.557476671482	1
1	189	412.016520941815	0
1	191	430.971627895514	0
1	192	431.345577473665	0
1	194	441.068770733571	0
1	195	445.423389976229	0
1	197	448.050399855302	0
1	199	448.888924557964	1
1	200	453.243067430934	1
1	201	453.385482047928	0
1	203	454.227556541109	0
1	204	460.322829773896	0
1	206	462.936757577674	0
1	208	464.451762827932	1
1	209	465.132572284882	1
1	210	472.079971723832	0
1	212	482.727133777193	0
1	213	484.329815000058	0
1	215	489.852602183629	0
1	216	491.298689516531	0
1	218	493.320106480804	0
1	220	493.914777834505	1
1	221	496.520331761023	1
1	222	497.141138698953	0
1	230	538.084897973558	0
1	231	542.599357061157	0
1	239	568.068108626093	0
1	240	572.321478226978	0
1	244	575.990958400427	0
1	246	578.702573058361	1
1	248	586.31991465579	1
1	249	586.608311633552	0
1	251	610.7389707722	0
1	257	624.032723864378	1
1	260	628.437748163353	2
1	262	629.970679505187	2
1	264	632.97263080099	2
1	265	634.446272510992	2
1	266	635.652109702489	1
1	267	639.501991899303	0
1	269	640.254734341694	0
1	271	640.695887759089	1
1	272	640.780544349481	1
1	273	641.722420326044	0
1	284	684.935548120622	0
1	286	687.234352540307	1
1	288	689.519080182014	2
1	289	695.86655228173	2
1	290	695.993127823257	1
1	291	699.244561841666	0
1	293	704.200972879936	0
1	294	710.747206025041	0
1	299	741.520039975603	0
1	304	747.111872888968	1
1	306	747.519356020626	2
1	307	750.068941240364	2
1	311	754.49598639057	2
1	313	754.691145169041	3
1	324	776.699738878353	4
1	326	778.856667503739	5
1	328	784.3679615551	5
1	329	785.662487033549	4
1	331	788.444303878967	4
1	333	788.560835663689	5
1	334	789.639172320989	5
1	335	789.794770275524	4
1	336	791.84150641645	3
1	337	792.31512201722	2
1	339	795.722673952149	2
1	341	801.644344775313	3
1	342	806.164424250208	3
1	343	807.590046758337	2
1	344	808.796106061942	1
1	348	815.141148630596	1
1	350	825.397896609428	1
1	352	825.694875277944	1
1	353	825.919092374724	1
1	354	827.861867270494	0
1	358	840.294067758125	0
1	360	847.583951046252	0
1	362	852.718307106967	0
1	363	855.505048707946	0
1	365	858.599080122192	0
1	366	859.890656194546	0
1	368	861.542904145574	0
1	369	866.68207707312	0
1	371	868.457770801584	0
1	372	873.080950135975	0
1	376	882.893554056111	0
1	381	903.835897289332	0
1	383	926.05279973746	0
1	384	931.122248886201	0
1	388	960.038896334033	0
1	393	979.668927684915	1
1	400	987.320910046105	2
1	403	1003.166056038714	2
1	404	1007.537974286876	1
1	405	1008.748280579028	0
1	407	1020.590508529909	0
1	408	1021.529764611943	0
1	410	1026.226935838068	0
1	411	1026.977767131383	0
1	413	1039.984277950511	0
1	414	1044.196161973868	0
1	416	1046.913666967642	0
1	417	1047.97029406885	0
1	419	1052.038364967622	0
1	420	1054.28503187743	0
1	422	1066.569557467056	0
1	423	1071.101820590034	0
1	428	1100.326045239576	0
1	429	1101.788610650011	0
1	431	1104.2466734304	0
1	432	1106.367552220234	0
1	437	1112.442587626326	0
1	439	1114.2299387861	1
1	443	1118.135647238971	2
1	450	1127.76818682258	3
1	454	1140.20729168527	4
1	458	1143.97543629243	4
1	459	1144.198335019149	3
1	463	1150.419259773635	3
1	465	1150.904448295814	4
1	471	1166.309069574946	5
1	472	1166.484838976794	5
1	473	1169.231159543109	4
1	474	1169.267556613221	3
1	476	1170.082336151848	3
1	483	1180.57887440427	3
1	493	1196.357768476444	3
1	495	1208.138371061884	3
1	496	1210.779347472034	2
1	497	1213.743225422125	1
1	501	1215.008798311394	1
1	506	1233.215973103957	2
1	508	1234.293161876841	2
1	509	1239.50496529115	1
1	510	1240.598154587561	0
1	515	1260.276741563288	0
1	516	1264.360979039693	0
1	518	1293.194243100738	0
1	519	1295.514685645591	0
1	524	1300.896968081943	0
1	525	1304.561002960009	0
1	530	1308.945778575265	0
1	532	1308.979044421299	1
1	534	1309.277159462544	2
1	539	1314.520331515862	3
1	540	1314.630661655372	3
1	542	1316.066788270936	3
1	543	1316.264001627802	3
1	544	1316.30615132388	2
1	546	1320.765333269527	2
1	548	1327.150645960059	3
1	550	1328.031127684426	4
1	551	1330.186083693104	4
1	552	1330.547823799354	3
1	553	1336.69690158128	2
1	554	1336.835879208819	1
1	556	1339.491585654236	1
1	557	1345.635258179188	1
1	558	1346.361681199226	0
1	560	1352.475114614365	0
1	561	1358.738044402184	0
1	565	1364.13363146199	0
1	567	1368.22997682311	0
1	571	1371.158285571832	0
1	573	1374.227202145751	0
1	580	1384.107141602338	0
1	588	1392.086642791493	0
1	590	1418.936885028479	0
1	591	1421.520389310509	0
1	593	1464.418027804221	0
1	597	1478.195272060555	0
1	599	1501.945029561977	0
1	600	1502.488808701724	0
1	602	1506.932012075696	0
1	603	1507.393370563846	0
1	605	1517.880315896348	0
1	612	1525.082716663788	1
1	614	1535.422800990963	1
1	615	1539.27216183937	0
1	619	1543.972980506721	0
1	624	1554.271733741382	0
1	631	1569.345582476976	0
1	633	1579.443043964117	1
1	635	1584.329791524	2
1	641	1600.799091286596	3
1	642	1603.596560900361	3
1	644	1606.721743988844	3
1	645	1612.83241332043	3
1	647	1613.949102073124	3
1	648	1617.396322898605	3
1	650	1619.887335542117	3
1	654	1621.238325743434	4
1	658	1624.293827027984	5
1	662	1627.074985573891	6
1	669	1647.568407900816	6
1	670	1649.098331468696	5
1	671	1651.375402284234	4
1	673	1653.501067248497	4
1	675	1656.343140671346	5
1	677	1663.600535998356	6
1	681	1670.016685557737	6
1	682	1671.001994703296	5
1	687	1674.147678786224	5
1	688	1674.421302373358	5
1	689	1674.838995193993	4
1	693	1685.057938417324	4
1	696	1686.872387944786	5
1	697	1687.313633443483	5
1	701	1696.35279012914	4
1	702	1702.141475459879	3
1	706	1704.727388513786	3
1	708	1710.990682644761	3
1	717	1720.817587341622	3
1	719	1720.851821911813	4
1	721	1721.875092015846	5
1	726	1730.623533501388	6
1	730	1740.494285760169	7
1	731	1741.520111635798	7
1	732	1742.988985133753	6
1	734	1747.191320148696	6
1	735	1748.978976063843	6
1	739	1762.445006237695	5
1	743	1769.041783171634	5
1	745	1772.238368202655	6
1	747	1783.865888442547	7
1	752	1787.116090628544	8
1	754	1801.548290900282	9
1	759	1817.649957915668	9
1	761	1817.786885588567	9
1	762	1818.907998500343	9
1	763	1819.05468966564	8
1	764	1825.798530303729	7
1	765	1827.792489865425	6
1	766	1833.560328778718	5
1	768	1836.472723805444	5
1	769	1837.166647349875	5
1	770	1837.615312656523	4
1	771	1842.253254849395	3
1	773	1842.333637209256	3
1	774	1844.642528815672	3
1	778	1849.089516210132	3
1	780	1853.02858545257	4
1	783	1853.230025866942	5
1	784	1854.132907123953	5
1	789	1862.920968399841	5
1	793	1872.418739597989	5
1	794	1873.215994908408	4
1	795	1874.15569082501	3
1	796	1874.698297981605	2
1	797	1878.478785887797	1
1	804	1890.057369822562	1
1	806	1899.315603681918	2
1	811	1904.258997843881	2
1	812	1912.844792312136	1
1	814	1914.229000570631	1
1	815	1916.711119688753	1
1	816	1916.774744376676	0
1	818	1921.035654512079	0
1	819	1921.09702134618	0
1	821	1940.076656379331	0
1	822	1940.181899117898	0
1	824	1952.507178452678	0
1	825	1952.549751133907	0
1	832	1970.708264125649	0
1	834	1975.750188161059	0
1	836	1979.686709005919	0
1	837	1982.955937851242	0
1	839	1988.849426758076	0
1	840	1990.179626181901	0
1	842	1995.314312408796	0
1	843	1996.995183520915	0
1	845	1999.052205509423	0
1	850	2004.408034673664	1
1	851	2005.590660324882	1
1	852	2011.323908941718	0
1	854	2017.972186517163	0
1	855	2021.398118586098	0
1	859	2032.090965977135	0
1	861	2038.210488966002	0
1	863	2048.900328082947	0
1	865	2049.16753866172	1
1	869	2050.848902930746	2
1	872	2055.903255434299	3
1	873	2059.804813768416	3
1	874	2060.678898785789	2
1	875	2061.778649338976	1
1	876	2065.789037050734	0
1	881	2089.551820567039	0
1	882	2093.619958877213	0
1	884	2096.610071908613	0
1	885	2099.957370660216	0
1	889	2114.163439664741	0
1	891	2127.022339618367	0
1	893	2127.71405147405	0
1	895	2130.232032826984	1
1	899	2137.018954725423	2
1	901	2142.337046105647	3
1	906	2160.789530527783	4
1	908	2162.834948109455	5
1	910	2162.884150066935	6
1	912	2168.535605100417	7
1	914	2170.37907985514	8
1	918	2171.509863828659	9
1	923	2180.715420786649	10
1	925	2182.527633875887	11
1	931	2191.872562101619	11
1	933	2192.935543579677	11
1	934	2195.263093112196	11
1	935	2199.825726145127	10
1	937	2205.443338955943	10
1	938	2206.830490125071	10
1	939	2207.362159222599	9
1	940	2209.776907274393	8
1	942	2216.213132329422	8
1	943	2217.947771321425	8
1	944	2219.371181839303	7
1	951	2233.694481276682	6
1	953	2238.31625459085	6
1	954	2240.746894483835	6
1	955	2243.769860406425	5
1	959	2246.193608276171	5
1	962	2256.730833752014	6
1	963	2257.430096562985	6
1	964	2257.674845076104	5
1	966	2258.836453060927	5
1	967	2260.390439506525	5
1	968	2263.080070028976	4
1	969	2269.405277568869	3
1	970	2269.890428820794	2
1	971	2270.21761170966	1
1	972	2288.433221001222	0
1	974	2294.968714434799	0
1	976	2296.719792457182	1
1	977	2298.342189551391	1
1	978	2299.248975663517	0
1	980	2299.294790536736	0
1	982	2301.667201606868	1
1	983	2302.426688202738	1
1	984	2304.97420382887	0
1	986	2305.487069274372	0
1	987	2308.606115996567	0
1	989	2311.782884945681	0
1	990	2312.443289811186	0
1	992	2314.310374183725	0
1	994	2314.622892967314	1
1	998	2320.559193660386	2
1	1002	2324.498304216889	3
1	1005	2330.581500241578	4
1	1009	2335.259599055678	5
1	1012	2344.568282050413	6
1	1017	2355.308154462375	6
1	1018	2358.075156176352	5
1	1019	2359.412739207455	4
1	1020	2361.457327512178	3
1	1021	2362.974007987417	2
1	1022	2363.863441102091	1
1	1023	2368.502803518658	0
1	1025	2368.737787171397	0
1	1027	2369.786074804619	1
1	1031	2372.326647240349	2
1	1037	2377.320734082424	3
1	1039	2378.947451240048	4
1	1046	2395.340590741336	5
1	1048	2406.174800840362	6
1	1059	2438.600291714123	6
1	1060	2438.832112042395	5
1	1064	2443.066247245712	5
1	1066	2447.264317745923	5
1	1067	2449.111253802838	4
1	1068	2456.660428601406	3
1	1069	2457.980577389474	2
1	1071	2460.981316128341	2
1	1072	2464.78980888698	2
1	1073	2465.123277551433	1
1	1075	2466.82704072236	1
1	1077	2469.544771188598	2
1	1078	2472.255045263229	2
1	1080	2472.798552947363	2
1	1081	2473.453784552444	2
1	1082	2474.283512971797	1
1	1083	2475.119917037733	0
1	1085	2479.385398736609	0
1	1086	2480.805356956467	0
1	1088	2485.321044617593	0
1	1089	2486.208325196228	0
2	156	354.860080407308	7.489862357236
2	159	373.787640437233	1.960822561286
2	164	379.0577577628	3.853522357678
2	169	382.447666161209	5.149494124005
2	170	382.746465951041	2.95617930822
2	171	383.905326916787	3.674717800755
2	174	387.302641490321	0.098762391977
2	185	404.557476671482	13.328129606149
2	189	412.016520941815	4.576988719906
2	192	431.345577473665	0.373949578151
2	195	445.423389976229	4.354619242658
2	200	453.243067430934	5.192667575632
2	201	453.385482047928	4.496557489964
2	204	460.322829773896	6.095273232787
2	209	465.132572284882	2.195814707208
2	210	472.079971723832	7.6282088959
2	213	484.329815000058	1.602681222865
2	216	491.298689516531	1.446087332902
2	221	496.520331761023	3.200225280219
2	222	497.141138698953	3.226360864448
2	231	542.599357061157	4.514459087599
2	240	572.321478226978	4.253369600885
2	248	586.31991465579	10.328956255363
2	249	586.608311633552	7.905738575191
2	262	629.970679505187	17.128579327679
2	265	634.446272510992	10.413548646614
2	266	635.652109702489	7.214361539136
2	267	639.501991899303	6.529361098313
2	272	640.780544349481	0.525810007787
2	273	641.722420326044	1.026532566955
2	289	695.86655228173	10.931004161108
2	290	695.993127823257	8.75877528295
2	291	699.244561841666	9.725481659652
2	294	710.747206025041	6.546233145105
2	307	750.068941240364	3.348737856945
2	328	784.3679615551	36.848605534474
2	329	785.662487033549	33.858084946323
2	334	789.639172320989	35.143185930419
2	335	789.794770275524	35.103625106483
2	336	791.84150641645	15.141767538097
2	337	792.31512201722	13.458454513481
2	342	806.164424250208	17.720120371241
2	343	807.590046758337	19.029211094648
2	344	808.796106061942	13.073432109793
2	350	825.397896609428	15.398933319788
2	353	825.919092374724	10.777943744128
2	354	827.861867270494	2.16699199255
2	360	847.583951046252	7.289883288127
2	363	855.505048707946	2.786741600979
2	366	859.890656194546	1.291576072354
2	369	866.68207707312	5.139172927546
2	372	873.080950135975	4.623179334391
2	381	903.835897289332	10.668416529432
2	384	931.122248886201	5.069449148741
2	403	1003.166056038714	43.127159704681
2	404	1007.537974286876	27.869046601961
2	405	1008.748280579028	21.427370532923
2	408	1021.529764611943	0.939256082034
2	411	1026.977767131383	0.750831293315
2	414	1044.196161973868	4.211884023357
2	417	1047.97029406885	1.056627101208
2	420	1054.28503187743	2.246666909808
2	423	1071.101820590034	4.532263122978
2	429	1101.788610650011	1.462565410435
2	432	1106.367552220234	2.120878789834
2	458	1143.97543629243	29.74549750633
2	459	1144.198335019149	26.414485490859
2	472	1166.484838976794	26.277547291524
2	473	1169.231159543109	20.697240901372
2	474	1169.267556613221	18.848296839586
2	483	1180.57887440427	16.214925560221
2	495	1208.138371061884	38.056034910036
2	496	1210.779347472034	36.708240573762
2	497	1213.743225422125	31.007046754296
2	508	1234.293161876841	20.048847086213
2	509	1239.50496529115	24.496166979756
2	510	1240.598154587561	7.382181483604
2	516	1264.360979039693	4.084237476405
2	519	1295.514685645591	2.320442544853
2	525	1304.561002960009	3.664034878066
2	540	1314.630661655372	5.651617234073
2	543	1316.264001627802	6.986842165258
2	544	1316.30615132388	6.01777831913
2	551	1330.186083693104	15.665752177242
2	552	1330.547823799354	14.481035528418
2	553	1336.69690158128	15.931568311753
2	554	1336.835879208819	9.68523324876
2	557	1345.635258179188	17.604130494762
2	558	1346.361681199226	6.87009554499
2	561	1358.738044402184	6.262929787819
2	567	1368.22997682311	4.09634536112
2	573	1374.227202145751	3.068916573919
2	588	1392.086642791493	2.978573399497
2	591	1421.520389310509	2.58350428203
2	597	1478.195272060555	13.001988889679
2	600	1502.488808701724	0.543779139747
2	603	1507.393370563846	0.46135848815
2	614	1535.422800990963	13.307500071849
2	615	1539.27216183937	14.189445175582
2	624	1554.271733741382	3.533623000658
2	642	1603.596560900361	34.250978423385
2	645	1612.83241332043	33.389369356313
2	648	1617.396322898605	33.066531374605
2	669	1647.568407900816	40.846663911972
2	670	1649.098331468696	35.149229395572
2	671	1651.375402284234	31.488066742117
2	681	1670.016685557737	48.778359814303
2	682	1671.001994703296	46.708167675312
2	688	1674.421302373358	20.920235124861
2	689	1674.838995193993	18.495854522647
2	697	1687.313633443483	22.823155013761
2	701	1696.35279012914	22.205111342916
2	702	1702.141475459879	26.874368398328
2	708	1710.990682644761	24.118294699975
2	731	1741.520111635798	38.77319811626
2	732	1742.988985133753	38.261596619967
2	735	1748.978976063843	36.481373549087
2	739	1762.445006237695	41.593184325882
2	759	1817.649957915668	70.458637766972
2	762	1818.907998500343	63.502154703553
2	763	1819.05468966564	56.593561963404
2	764	1825.798530303729	56.756747132095
2	765	1827.792489865425	55.55412166277
2	766	1833.560328778718	49.694440336171
2	769	1837.166647349875	50.10718091482
2	770	1837.615312656523	50.499222027979
2	771	1842.253254849395	40.704963949113
2	774	1844.642528815672	35.156214662583
2	784	1854.132907123953	17.660183318509
2	793	1872.418739597989	23.329223387857
2	794	1873.215994908408	20.187409455838
2	795	1874.15569082501	20.925664958068
2	796	1874.698297981605	17.473249115176
2	797	1878.478785887797	15.557817487956
2	811	1904.258997843881	14.201628021319
2	812	1912.844792312136	13.529188630218
2	815	1916.711119688753	13.445523604825
2	816	1916.774744376676	2.545743806045
2	819	1921.09702134618	0.061366834101
2	822	1940.181899117898	0.105242738567
2	825	1952.549751133907	0.042572681229
2	834	1975.750188161059	5.04192403541
2	837	1982.955937851242	3.269228845323
2	840	1990.179626181901	1.330199423825
2	843	1996.995183520915	1.680871112119
2	851	2005.590660324882	6.011484161902
2	852	2011.323908941718	6.915874268054
2	855	2021.398118586098	3.425932068935
2	861	2038.210488966002	6.119522988867
2	873	2059.804813768416	10.637275106696
2	874	2060.678898785789	11.275560924497
2	875	2061.778649338976	10.92974640823
2	876	2065.789037050734	9.885781616435
2	882	2093.619958877213	4.068138310174
2	885	2099.957370660216	3.347298751603
2	891	2127.022339618367	12.858899953626
2	931	2191.872562101619	57.431770192477
2	934	2195.263093112196	58.244138386773
2	935	2199.825726145127	57.48868003948
2	938	2206.830490125071	49.617687903686
2	939	2207.362159222599	46.572628694816
2	940	2209.776907274393	46.941959164938
2	943	2217.947771321425	55.06362125449
2	944	2219.371181839303	50.835576738886
2	951	2233.694481276682	62.184617448023
2	954	2240.746894483835	60.031473697186
2	955	2243.769860406425	61.242226530538
2	963	2257.430096562985	51.986757607042
2	964	2257.674845076104	41.461712746682
2	967	2260.390439506525	40.854908272907
2	968	2263.080070028976	24.763815438126
2	969	2269.405277568869	23.746357658648
2	970	2269.890428820794	23.696820544623
2	971	2270.21761170966	13.486777957646
2	972	2288.433221001222	29.596767940295
2	977	2298.342189551391	3.373475116592
2	978	2299.248975663517	2.529183206335
2	983	2302.426688202738	3.131897666002
2	984	2304.97420382887	3.307002222002
2	987	2308.606115996567	3.119046722195
2	990	2312.443289811186	0.660404865505
2	1017	2355.308154462375	40.685261495061
2	1018	2358.075156176352	42.893711837552
2	1019	2359.412739207455	38.853545547069
2	1020	2361.457327512178	36.959023295289
2	1021	2362.974007987417	32.392507745839
2	1022	2363.863441102091	28.603842046413
2	1023	2368.502803518658	23.934521468245
2	1059	2438.600291714123	68.814216909504
2	1060	2438.832112042395	68.115925675014
2	1066	2447.264317745923	69.943583663499
2	1067	2449.111253802838	70.16380256279
2	1068	2456.660428601406	61.31983786007
2	1069	2457.980577389474	51.805776549112
2	1072	2464.78980888698	25.466399022896
2	1073	2465.123277551433	22.057030305721
2	1078	2472.255045263229	11.273729134888
2	1081	2473.453784552444	6.626743830084
2	1082	2474.283512971797	4.738741783199
2	1083	2475.119917037733	2.32136409037
2	1086	2480.805356956467	1.419958219858
2	1089	2486.208325196228	0.887280578635
3	158	371.826817875947	1
3	161	375.204235405122	1
3	163	377.298172037204	2
3	166	379.790286642821	2
3	168	380.230609116032	3
3	173	387.203879098344	1
3	181	391.229347065333	1
3	184	401.337079352643	2
3	191	430.971627895514	1
3	194	441.068770733571	1
3	197	448.050399855302	1
3	199	448.888924557964	2
3	203	454.227556541109	1
3	206	462.936757577674	1
3	208	464.451762827932	2
3	212	482.727133777193	1
3	215	489.852602183629	1
3	218	493.320106480804	1
3	220	493.914777834505	2
3	230	538.084897973558	1
3	239	568.068108626093	1
3	244	575.990958400427	1
3	246	578.702573058361	2
3	251	610.7389707722	1
3	257	624.032723864378	2
3	260	628.437748163353	3
3	264	632.97263080099	3
3	269	640.254734341694	1
3	271	640.695887759089	2
3	284	684.935548120622	1
3	286	687.234352540307	2
3	288	689.519080182014	3
3	293	704.200972879936	1
3	299	741.520039975603	1
3	304	747.111872888968	2
3	306	747.519356020626	3
3	311	754.49598639057	3
3	313	754.691145169041	4
3	324	776.699738878353	5
3	326	778.856667503739	6
3	331	788.444303878967	5
3	333	788.560835663689	6
3	339	795.722673952149	3
3	341	801.644344775313	4
3	348	815.141148630596	2
3	352	825.694875277944	2
3	358	840.294067758125	1
3	362	852.718307106967	1
3	365	858.599080122192	1
3	368	861.542904145574	1
3	371	868.457770801584	1
3	376	882.893554056111	1
3	383	926.05279973746	1
3	388	960.038896334033	1
3	393	979.668927684915	2
3	400	987.320910046105	3
3	407	1020.590508529909	1
3	410	1026.226935838068	1
3	413	1039.984277950511	1
3	416	1046.913666967642	1
3	419	1052.038364967622	1
3	422	1066.569557467056	1
3	428	1100.326045239576	1
3	431	1104.2466734304	1
3	437	1112.442587626326	1
3	439	1114.2299387861	2
3	443	1118.135647238971	3
3	450	1127.76818682258	4
3	454	1140.20729168527	5
3	463	1150.419259773635	4
3	465	1150.904448295814	5
3	471	1166.309069574946	6
3	476	1170.082336151848	4
3	493	1196.357768476444	4
3	501	1215.008798311394	2
3	506	1233.215973103957	3
3	515	1260.276741563288	1
3	518	1293.194243100738	1
3	524	1300.896968081943	1
3	530	1308.945778575265	1
3	532	1308.979044421299	2
3	534	1309.277159462544	3
3	539	1314.520331515862	4
3	542	1316.066788270936	4
3	546	1320.765333269527	3
3	548	1327.150645960059	4
3	550	1328.031127684426	5
3	556	1339.491585654236	2
3	560	1352.475114614365	1
3	565	1364.13363146199	1
3	571	1371.158285571832	1
3	580	1384.107141602338	1
3	590	1418.936885028479	1
3	593	1464.418027804221	1
3	599	1501.945029561977	1
3	602	1506.932012075696	1
3	605	1517.880315896348	1
3	612	1525.082716663788	2
3	619	1543.972980506721	1
3	631	1569.345582476976	1
3	633	1579.443043964117	2
3	635	1584.329791524	3
3	641	1600.799091286596	4
3	644	1606.721743988844	4
3	647	1613.949102073124	4
3	650	1619.887335542117	4
3	654	1621.238325743434	5
3	658	1624.293827027984	6
3	662	1627.074985573891	7
3	673	1653.501067248497	5
3	675	1656.343140671346	6
3	677	1663.600535998356	7
3	687	1674.147678786224	6
3	693	1685.057938417324	5
3	696	1686.872387944786	6
3	706	1704.727388513786	4
3	717	1720.817587341622	4
3	719	1720.851821911813	5
3	721	1721.875092015846	6
3	726	1730.623533501388	7
3	730	1740.494285760169	8
3	734	1747.191320148696	7
3	743	1769.041783171634	6
3	745	1772.238368202655	7
3	747	1783.865888442547	8
3	752	1787.116090628544	9
3	754	1801.548290900282	10
3	761	1817.786885588567	10
3	768	1836.472723805444	6
3	773	1842.333637209256	4
3	778	1849.089516210132	4
3	780	1853.02858545257	5
3	783	1853.230025866942	6
3	789	1862.920968399841	6
3	804	1890.057369822562	2
3	806	1899.315603681918	3
3	814	1914.229000570631	2
3	818	1921.035654512079	1
3	821	1940.076656379331	1
3	824	1952.507178452678	1
3	832	1970.708264125649	1
3	836	1979.686709005919	1
3	839	1988.849426758076	1
3	842	1995.314312408796	1
3	845	1999.052205509423	1
3	850	2004.408034673664	2
3	854	2017.972186517163	1
3	859	2032.090965977135	1
3	863	2048.900328082947	1
3	865	2049.16753866172	2
3	869	2050.848902930746	3
3	872	2055.903255434299	4
3	881	2089.551820567039	1
3	884	2096.610071908613	1
3	889	2114.163439664741	1
3	893	2127.71405147405	1
3	895	2130.232032826984	2
3	899	2137.018954725423	3
3	901	2142.337046105647	4
3	906	2160.789530527783	5
3	908	2162.834948109455	6
3	910	2162.884150066935	7
3	912	2168.535605100417	8
3	914	2170.37907985514	9
3	918	2171.509863828659	10
3	923	2180.715420786649	11
3	925	2182.527633875887	12
3	933	2192.935543579677	12
3	937	2205.443338955943	11
3	942	2216.213132329422	9
3	953	2238.31625459085	7
3	959	2246.193608276171	6
3	962	2256.730833752014	7
3	966	2258.836453060927	6
3	974	2294.968714434799	1
3	976	2296.719792457182	2
3	980	2299.294790536736	1
3	982	2301.667201606868	2
3	986	2305.487069274372	1
3	989	2311.782884945681	1
3	992	2314.310374183725	1
3	994	2314.622892967314	2
3	998	2320.559193660386	3
3	1002	2324.498304216889	4
3	1005	2330.581500241578	5
3	1009	2335.259599055678	6
3	1012	2344.568282050413	7
3	1025	2368.737787171397	1
3	1027	2369.786074804619	2
3	1031	2372.326647240349	3
3	1037	2377.320734082424	4
3	1039	2378.947451240048	5
3	1046	2395.340590741336	6
3	1048	2406.174800840362	7
3	1064	2443.066247245712	6
3	1071	2460.981316128341	3
3	1075	2466.82704072236	2
3	1077	2469.544771188598	3
3	1080	2472.798552947363	3
3	1085	2479.385398736609	1
3	1088	2485.321044617593	1
4	158	371.826817875947	0
4	161	375.204235405122	0
4	164	379.0577577628	1.759585725596
4	169	382.447666161209	2.657379518388
4	170	382.746465951041	2.515856835009
4	173	387.203879098344	0
4	182	393.661352364086	2.432005298753
4	185	404.557476671482	3.220397318839
4	188	410.442778319088	3.003246097179
4	191	430.971627895514	0
4	194	441.068770733571	0
4	197	448.050399855302	0
4	200	453.243067430934	4.35414287297
4	203	454.227556541109	0
4	206	462.936757577674	0
4	209	465.132572284882	0.68080945695
4	212	482.727133777193	0
4	215	489.852602183629	0
4	218	493.320106480804	0
4	221	496.520331761023	2.605553926518
4	230	538.084897973558	0
4	239	568.068108626093	0
4	247	585.573793226432	9.582834826005
4	248	586.31991465579	7.617341597429
4	251	610.7389707722	0
4	261	629.44446814148	16.602367963972
4	262	629.970679505187	5.937955640809
4	265	634.446272510992	6.008524347639
4	266	635.652109702489	2.679478901499
4	269	640.254734341694	0
4	272	640.780544349481	0.084656590392
4	284	684.935548120622	0
4	289	695.86655228173	8.632199741423
4	290	695.993127823257	6.474047641243
4	293	704.200972879936	0
4	299	741.520039975603	0
4	302	746.830303923498	0.110100540079
4	307	750.068941240364	2.957068351396
4	327	782.225336173391	34.705980152765
4	328	784.3679615551	32.563559467874
4	329	785.662487033549	31.166500642979
4	334	789.639172320989	34.948027151948
4	335	789.794770275524	13.095031397171
4	336	791.84150641645	12.984838912711
4	337	792.31512201722	3.870818138253
4	342	806.164424250208	17.603588586519
4	343	807.590046758337	11.867372806188
4	344	808.796106061942	7.151761286629
4	349	824.521942834875	14.522979545235
4	350	825.397896609428	10.256747978832
4	353	825.919092374724	0.22421709678
4	359	844.232312406263	3.938244648138
4	362	852.718307106967	0
4	365	858.599080122192	0
4	368	861.542904145574	0
4	371	868.457770801584	0
4	377	891.219300784814	8.325746728703
4	380	896.846461774226	3.678981014326
4	383	926.05279973746	0
4	402	998.318358786027	38.279462451994
4	403	1003.166056038714	23.497128353799
4	404	1007.537974286876	20.217064240771
4	407	1020.590508529909	0
4	410	1026.226935838068	0
4	413	1039.984277950511	0
4	416	1046.913666967642	0
4	419	1052.038364967622	0
4	422	1066.569557467056	0
4	428	1100.326045239576	0
4	431	1104.2466734304	0
4	437	1112.442587626326	0
4	457	1143.318613398631	29.088674612531
4	458	1143.97543629243	26.19158676414
4	459	1144.198335019149	26.062687780178
4	466	1161.190141850179	33.421955027599
4	469	1165.655962457304	25.448670772034
4	472	1166.484838976794	17.950920335057
4	473	1169.231159543109	18.811899769474
4	474	1169.267556613221	18.363108317407
4	482	1180.153070159661	15.789121315612
4	483	1180.57887440427	14.269804829324
4	494	1207.490534194196	37.408198042348
4	495	1208.138371061884	34.067264163612
4	496	1210.779347472034	28.043168804205
4	497	1213.743225422125	17.385456945681
4	507	1233.749026873435	19.504712082807
4	508	1234.293161876841	19.284363565447
4	509	1239.50496529115	6.288992187193
4	515	1260.276741563288	0
4	518	1293.194243100738	0
4	524	1300.896968081943	0
4	530	1308.945778575265	0
4	537	1313.665861377632	4.686816956333
4	540	1314.630661655372	5.353502192828
4	543	1316.264001627802	5.975628623052
4	544	1316.30615132388	1.785819808018
4	551	1330.186083693104	14.119295422168
4	552	1330.547823799354	9.782490529827
4	553	1336.69690158128	9.546255621221
4	554	1336.835879208819	8.804751524393
4	557	1345.635258179188	6.143672524952
4	560	1352.475114614365	0
4	566	1367.708327800127	3.574696338137
4	572	1372.742632237328	1.584346665496
4	584	1388.894811422157	4.787669819819
4	587	1390.842347408579	1.734278016583
4	590	1418.936885028479	0
4	593	1464.418027804221	0
4	596	1466.88515629975	1.691873128874
4	599	1501.945029561977	0
4	602	1506.932012075696	0
4	605	1517.880315896348	0
4	608	1519.393569505264	1.345035692815
4	613	1530.04672733318	7.931426414066
4	614	1535.422800990963	10.340084327175
4	620	1547.442022508609	3.469042001888
4	623	1551.264490072031	0.526379331307
4	639	1600.619811008342	31.274228531366
4	642	1603.596560900361	24.153516936244
4	645	1612.83241332043	28.50262179643
4	648	1617.396322898605	16.597231612009
4	668	1645.510670325042	38.788926336198
4	669	1647.568407900816	33.619305827692
4	670	1649.098331468696	29.210995926579
4	671	1651.375402284234	31.480663934975
4	680	1667.093762577532	45.855436834098
4	681	1670.016685557737	45.722858529753
4	682	1671.001994703296	43.927009129405
4	685	1673.9496564095	20.448589161003
4	688	1674.421302373358	18.078161702012
4	689	1674.838995193993	11.238459195637
4	694	1685.061488107044	20.571009677322
4	697	1687.313633443483	15.931978189773
4	700	1691.366129245423	17.218450459199
4	701	1696.35279012914	21.085683067589
4	702	1702.141475459879	17.083537042555
4	707	1710.135216786985	23.262828842199
4	708	1710.990682644761	21.142711269393
4	728	1738.357826509851	35.610912990313
4	731	1741.520111635798	36.792723122012
4	732	1742.988985133753	30.491382618997
4	735	1748.978976063843	28.161388722221
4	738	1756.40468727708	35.552865365267
4	739	1762.445006237695	40.569914221849
4	748	1785.138808994654	54.515275493266
4	755	1808.567334898971	68.073049138802
4	758	1815.395308732953	68.203988584257
4	759	1817.649957915668	62.244114118878
4	762	1818.907998500343	56.446870798107
4	763	1819.05468966564	50.012906494006
4	764	1825.798530303729	53.560162101074
4	765	1827.792489865425	43.926601422878
4	766	1833.560328778718	46.500862343663
4	769	1837.166647349875	50.050556721331
4	770	1837.615312656523	36.067021756241
4	771	1842.253254849395	32.766940696306
4	774	1844.642528815672	26.855643227105
4	781	1853.203138257231	16.730414451787
4	784	1854.132907123953	11.799269914697
4	787	1862.86089054653	15.469737765117
4	792	1870.355323358361	21.265807148229
4	793	1872.418739597989	19.390154145419
4	794	1873.215994908408	19.985969041466
4	795	1874.15569082501	16.930641958581
4	796	1874.698297981605	11.777329581764
4	797	1878.478785887797	12.206955089782
4	800	1885.710264840645	7.132197348252
4	807	1900.978728281571	14.221568377937
4	810	1903.441254408654	13.383884586092
4	811	1904.258997843881	4.943394161963
4	812	1912.844792312136	9.579196228208
4	815	1916.711119688753	2.482119118122
4	818	1921.035654512079	0
4	821	1940.076656379331	0
4	824	1952.507178452678	0
4	833	1975.356687602784	4.648423477135
4	836	1979.686709005919	0
4	839	1988.849426758076	0
4	842	1995.314312408796	0
4	845	1999.052205509423	0
4	848	2004.219504140091	4.640327977111
4	851	2005.590660324882	1.182625651218
4	854	2017.972186517163	0
4	860	2036.660479569864	4.569513592729
4	863	2048.900328082947	0
4	870	2052.000976789656	2.833438127936
4	873	2059.804813768416	10.401475907124
4	874	2060.678898785789	9.829995855043
4	875	2061.778649338976	5.875393904677
4	881	2089.551820567039	0
4	884	2096.610071908613	0
4	890	2116.726990545543	2.563550880802
4	893	2127.71405147405	0
4	902	2152.857281959254	22.62524913227
4	930	2190.225511130255	55.784719221113
4	931	2191.872562101619	54.853607376196
4	934	2195.263093112196	52.926047006549
4	935	2199.825726145127	42.612923923742
4	938	2206.830490125071	46.040959597288
4	939	2207.362159222599	44.527211113144
4	940	2209.776907274393	46.892757207458
4	943	2217.947771321425	49.412166221008
4	944	2219.371181839303	48.992101984163
4	950	2231.759903379622	60.250039550963
4	951	2233.694481276682	52.979060490033
4	954	2240.746894483835	58.219260607948
4	955	2243.769860406425	50.834316826748
4	960	2255.048206347078	49.604867391135
4	963	2257.430096562985	41.216964233563
4	964	2257.674845076104	38.139313842486
4	967	2260.390439506525	22.074184915675
4	968	2263.080070028976	17.421150118755
4	969	2269.405277568869	23.211669292698
4	970	2269.890428820794	13.15959506878
4	971	2270.21761170966	11.381158648733
4	974	2294.968714434799	0
4	977	2298.342189551391	1.622397094209
4	980	2299.294790536736	0
4	983	2302.426688202738	0.75948659587
4	986	2305.487069274372	0
4	989	2311.782884945681	0
4	992	2314.310374183725	0
4	1016	2351.183785161464	36.56089219415
4	1017	2355.308154462375	40.126710123575
4	1018	2358.075156176352	37.515962515966
4	1019	2359.412739207455	34.914434990566
4	1020	2361.457327512178	30.8758272706
4	1021	2362.974007987417	27.714408931739
4	1022	2363.863441102091	19.295159051678
4	1025	2368.737787171397	0
4	1058	2438.538683992036	68.752609187417
4	1059	2438.600291714123	67.884105346742
4	1060	2438.832112042395	66.505464802046
4	1065	2446.000063229011	68.679329146587
4	1066	2447.264317745923	68.316866505875
4	1067	2449.111253802838	53.770663061502
4	1068	2456.660428601406	50.485627761044
4	1069	2457.980577389474	18.65716752539
4	1072	2464.78980888698	21.723561641268
4	1073	2465.123277551433	4.141961423092
4	1078	2472.255045263229	5.428004540869
4	1081	2473.453784552444	3.909013363846
4	1082	2474.283512971797	1.484960024434
4	1085	2479.385398736609	0
4	1088	2485.321044617593	0
5	176	390.19208526962	1
5	178	390.552455599804	2
5	187	407.439532221909	1
5	224	518.507968548388	1
5	226	522.173620324886	2
5	233	548.748816733117	1
5	235	550.067618500052	2
5	242	575.666162275779	1
5	253	612.842100177508	1
5	255	623.411592726827	2
5	275	647.071192511576	1
5	278	651.628792350656	1
5	281	665.26574855193	1
5	296	730.723164477223	1
5	301	746.720203383419	1
5	309	751.804402087226	1
5	315	761.533052013322	2
5	318	762.512293667094	2
5	320	766.941994342124	3
5	346	809.99896328964	1
5	356	836.11272726403	1
5	374	880.101037723776	1
5	379	893.1674807599	1
5	386	958.986682587974	1
5	390	961.113788177775	2
5	395	980.006287846102	2
5	397	986.58770618071	3
5	425	1071.697528192129	1
5	434	1107.464074333445	1
5	441	1117.78384952829	1
5	445	1121.017381211308	2
5	447	1124.43115273652	3
5	452	1130.82600363503	3
5	461	1148.533918641737	1
5	468	1164.363948844049	1
5	478	1174.071106898272	1
5	480	1175.776090639092	2
5	485	1182.736178667829	1
5	487	1185.782939051587	2
5	489	1186.137599269998	3
5	499	1214.244314790628	1
5	503	1226.823743164412	2
5	512	1250.476709292462	1
5	521	1298.650389291879	1
5	527	1308.125086076041	1
5	536	1310.28837300475	1
5	563	1359.796549003241	1
5	569	1370.990339914893	1
5	575	1378.159707347523	1
5	577	1380.964876480297	2
5	582	1386.732170890961	2
5	586	1389.108069391996	1
5	595	1465.193283170876	1
5	607	1518.048533812449	1
5	610	1522.115300919114	1
5	617	1541.428895554315	1
5	622	1550.738110740724	1
5	626	1557.057458542175	1
5	629	1568.331551592928	1
5	637	1594.882472076587	2
5	652	1619.894738349259	1
5	656	1624.084042264992	2
5	660	1626.210616034251	3
5	665	1632.846757884736	3
5	679	1664.490478429722	1
5	684	1671.38165525371	1
5	691	1675.267107061551	1
5	699	1689.847971375368	1
5	704	1702.746913519538	1
5	710	1712.497602514756	1
5	712	1714.363548584924	2
5	715	1719.6409964056	2
5	723	1722.58306476235	3
5	737	1755.40584379679	1
5	741	1762.461127702236	1
5	750	1787.059466435055	1
5	757	1809.486314153089	1
5	776	1847.391152781413	1
5	786	1857.225048866429	1
5	791	1866.271830798015	1
5	799	1878.578067492393	1
5	802	1886.757159903634	1
5	809	1903.265596083928	1
5	827	1956.425399870298	1
5	830	1969.834502793289	1
5	847	1999.57917616298	1
5	857	2031.530575653383	1
5	867	2049.403337861292	1
5	878	2069.148904070772	1
5	887	2112.867149498668	1
5	897	2134.440791909142	1
5	904	2157.212802221385	1
5	916	2171.380613717592	2
5	920	2171.740503012916	3
5	927	2187.341514577323	3
5	946	2219.535531233618	1
5	948	2223.8424989331	2
5	957	2245.658919910221	1
5	996	2315.1814443388	1
5	1000	2322.283976249027	2
5	1007	2331.248097080117	2
5	1014	2346.228359067299	2
5	1029	2370.716186367381	1
5	1033	2375.068077861533	2
5	1035	2375.806323096909	3
5	1041	2379.965256529779	4
5	1043	2385.250852286311	5
5	1052	2413.808996696861	3
5	1055	2423.704403934987	3
5	1062	2439.323409864084	1
6	176	390.19208526962	0
6	178	390.552455599804	1
6	179	390.655141799278	1
6	182	393.661352364086	0
6	187	407.439532221909	0
6	188	410.442778319088	0
6	224	518.507968548388	0
6	226	522.173620324886	1
6	227	525.930471339742	1
6	228	537.256423771993	0
6	233	548.748816733117	0
6	235	550.067618500052	1
6	236	554.479139238226	1
6	237	558.279795088441	0
6	242	575.666162275779	0
6	247	585.573793226432	0
6	253	612.842100177508	0
6	255	623.411592726827	1
6	258	626.42020587498	1
6	261	629.44446814148	0
6	275	647.071192511576	0
6	276	648.677841417669	0
6	278	651.628792350656	0
6	279	655.84213481308	0
6	281	665.26574855193	0
6	282	675.413442380476	0
6	296	730.723164477223	0
6	297	730.749594956862	0
6	301	746.720203383419	0
6	302	746.830303923498	0
6	309	751.804402087226	0
6	315	761.533052013322	1
6	316	762.182614644149	1
6	318	762.512293667094	1
6	320	766.941994342124	2
6	321	768.238189187687	2
6	322	772.550509600502	1
6	327	782.225336173391	0
6	346	809.99896328964	0
6	349	824.521942834875	0
6	356	836.11272726403	0
6	359	844.232312406263	0
6	374	880.101037723776	0
6	377	891.219300784814	0
6	379	893.1674807599	0
6	380	896.846461774226	0
6	386	958.986682587974	0
6	390	961.113788177775	1
6	391	964.713309390119	1
6	395	980.006287846102	1
6	397	986.58770618071	2
6	398	987.159298242339	2
6	401	998.211649306465	1
6	402	998.318358786027	0
6	425	1071.697528192129	0
6	426	1072.772546772091	0
6	434	1107.464074333445	0
6	435	1111.238470723109	0
6	441	1117.78384952829	0
6	445	1121.017381211308	1
6	447	1124.43115273652	2
6	448	1125.895438970328	2
6	452	1130.82600363503	2
6	455	1141.210836328482	2
6	456	1141.329280509048	1
6	457	1143.318613398631	0
6	461	1148.533918641737	0
6	466	1161.190141850179	0
6	468	1164.363948844049	0
6	469	1165.655962457304	0
6	478	1174.071106898272	0
6	480	1175.776090639092	1
6	481	1179.600868290557	1
6	482	1180.153070159661	0
6	485	1182.736178667829	0
6	487	1185.782939051587	1
6	489	1186.137599269998	2
6	490	1189.513041768776	2
6	491	1190.600079485763	1
6	494	1207.490534194196	0
6	499	1214.244314790628	0
6	503	1226.823743164412	1
6	504	1231.196340198066	1
6	507	1233.749026873435	0
6	512	1250.476709292462	0
6	513	1250.672879714784	0
6	521	1298.650389291879	0
6	522	1300.539472376964	0
6	527	1308.125086076041	0
6	528	1308.254090360263	0
6	536	1310.28837300475	0
6	537	1313.665861377632	0
6	563	1359.796549003241	0
6	566	1367.708327800127	0
6	569	1370.990339914893	0
6	572	1372.742632237328	0
6	575	1378.159707347523	0
6	577	1380.964876480297	1
6	578	1384.026729924573	1
6	582	1386.732170890961	1
6	583	1387.925016905754	1
6	584	1388.894811422157	0
6	586	1389.108069391996	0
6	587	1390.842347408579	0
6	595	1465.193283170876	0
6	596	1466.88515629975	0
6	607	1518.048533812449	0
6	608	1519.393569505264	0
6	610	1522.115300919114	0
6	613	1530.04672733318	0
6	617	1541.428895554315	0
6	620	1547.442022508609	0
6	622	1550.738110740724	0
6	623	1551.264490072031	0
6	626	1557.057458542175	0
6	627	1559.187420151523	0
6	629	1568.331551592928	0
6	637	1594.882472076587	1
6	638	1597.549387971297	1
6	639	1600.619811008342	0
6	652	1619.894738349259	0
6	656	1624.084042264992	1
6	660	1626.210616034251	2
6	663	1628.914900387953	2
6	665	1632.846757884736	2
6	666	1633.526556289806	2
6	667	1644.926685491923	1
6	668	1645.510670325042	0
6	679	1664.490478429722	0
6	680	1667.093762577532	0
6	684	1671.38165525371	0
6	685	1673.9496564095	0
6	691	1675.267107061551	0
6	694	1685.061488107044	0
6	699	1689.847971375368	0
6	700	1691.366129245423	0
6	704	1702.746913519538	0
6	707	1710.135216786985	0
6	710	1712.497602514756	0
6	712	1714.363548584924	1
6	713	1717.061804028459	1
6	715	1719.6409964056	1
6	723	1722.58306476235	2
6	724	1724.888511205328	2
6	727	1736.936643689847	1
6	728	1738.357826509851	0
6	737	1755.40584379679	0
6	738	1756.40468727708	0
6	741	1762.461127702236	0
6	748	1785.138808994654	0
6	750	1787.059466435055	0
6	755	1808.567334898971	0
6	757	1809.486314153089	0
6	758	1815.395308732953	0
6	776	1847.391152781413	0
6	781	1853.203138257231	0
6	786	1857.225048866429	0
6	787	1862.86089054653	0
6	791	1866.271830798015	0
6	792	1870.355323358361	0
6	799	1878.578067492393	0
6	800	1885.710264840645	0
6	802	1886.757159903634	0
6	807	1900.978728281571	0
6	809	1903.265596083928	0
6	810	1903.441254408654	0
6	827	1956.425399870298	0
6	828	1961.982000083119	0
6	830	1969.834502793289	0
6	833	1975.356687602784	0
6	847	1999.57917616298	0
6	848	2004.219504140091	0
6	857	2031.530575653383	0
6	860	2036.660479569864	0
6	867	2049.403337861292	0
6	870	2052.000976789656	0
6	878	2069.148904070772	0
6	879	2072.256564331564	0
6	887	2112.867149498668	0
6	890	2116.726990545543	0
6	897	2134.440791909142	0
6	902	2152.857281959254	0
6	904	2157.212802221385	0
6	916	2171.380613717592	1
6	920	2171.740503012916	2
6	921	2174.387393734638	2
6	927	2187.341514577323	2
6	928	2188.429738256359	2
6	929	2188.711163870471	1
6	930	2190.225511130255	0
6	946	2219.535531233618	0
6	948	2223.8424989331	1
6	949	2231.712627492054	1
6	950	2231.759903379622	0
6	957	2245.658919910221	0
6	960	2255.048206347078	0
6	996	2315.1814443388	0
6	1000	2322.283976249027	1
6	1003	2326.042549266443	1
6	1007	2331.248097080117	1
6	1010	2341.330673848243	1
6	1014	2346.228359067299	1
6	1015	2351.170869371389	1
6	1016	2351.183785161464	0
6	1029	2370.716186367381	0
6	1033	2375.068077861533	1
6	1035	2375.806323096909	2
6	1041	2379.965256529779	3
6	1043	2385.250852286311	4
6	1044	2394.776725882371	4
6	1049	2407.270714130622	3
6	1050	2412.705584314831	2
6	1052	2413.808996696861	2
6	1053	2421.384673500943	2
6	1055	2423.704403934987	2
6	1056	2427.096140324554	2
6	1057	2431.105772520214	1
6	1058	2438.538683992036	0
6	1062	2439.323409864084	0
6	1065	2446.000063229011	0
7	176	390.19208526962	0
7	179	390.655141799278	0.102686199474
7	187	407.439532221909	0
7	224	518.507968548388	0
7	227	525.930471339742	3.756851014856
7	233	548.748816733117	0
7	236	554.479139238226	4.411520738174
7	242	575.666162275779	0
7	253	612.842100177508	0
7	258	626.42020587498	3.008613148153
7	275	647.071192511576	0
7	278	651.628792350656	0
7	281	665.26574855193	0
7	296	730.723164477223	0
7	301	746.720203383419	0
7	309	751.804402087226	0
7	316	762.182614644149	0.649562630827
7	321	768.238189187687	5.725895520593
7	322	772.550509600502	5.608515258378
7	346	809.99896328964	0
7	356	836.11272726403	0
7	374	880.101037723776	0
7	379	893.1674807599	0
7	386	958.986682587974	0
7	391	964.713309390119	3.599521212344
7	398	987.159298242339	7.153010396237
7	401	998.211649306465	11.623943125755
7	425	1071.697528192129	0
7	434	1107.464074333445	0
7	441	1117.78384952829	0
7	448	1125.895438970328	4.87805775902
7	455	1141.210836328482	16.779683591962
7	456	1141.329280509048	10.503276874018
7	461	1148.533918641737	0
7	468	1164.363948844049	0
7	478	1174.071106898272	0
7	481	1179.600868290557	3.824777651465
7	485	1182.736178667829	0
7	490	1189.513041768776	3.730102717189
7	491	1190.600079485763	4.462480215765
7	499	1214.244314790628	0
7	504	1231.196340198066	4.372597033654
7	512	1250.476709292462	0
7	521	1298.650389291879	0
7	527	1308.125086076041	0
7	536	1310.28837300475	0
7	563	1359.796549003241	0
7	569	1370.990339914893	0
7	575	1378.159707347523	0
7	578	1384.026729924573	3.061853444276
7	583	1387.925016905754	1.192846014793
7	586	1389.108069391996	0
7	595	1465.193283170876	0
7	607	1518.048533812449	0
7	610	1522.115300919114	0
7	617	1541.428895554315	0
7	622	1550.738110740724	0
7	626	1557.057458542175	0
7	629	1568.331551592928	0
7	638	1597.549387971297	2.66691589471
7	652	1619.894738349259	0
7	663	1628.914900387953	4.830858122961
7	666	1633.526556289806	7.315940255555
7	667	1644.926685491923	12.079927607187
7	679	1664.490478429722	0
7	684	1671.38165525371	0
7	691	1675.267107061551	0
7	699	1689.847971375368	0
7	704	1702.746913519538	0
7	710	1712.497602514756	0
7	713	1717.061804028459	2.698255443535
7	724	1724.888511205328	5.247514799728
7	727	1736.936643689847	14.353578927497
7	737	1755.40584379679	0
7	741	1762.461127702236	0
7	750	1787.059466435055	0
7	757	1809.486314153089	0
7	776	1847.391152781413	0
7	786	1857.225048866429	0
7	791	1866.271830798015	0
7	799	1878.578067492393	0
7	802	1886.757159903634	0
7	809	1903.265596083928	0
7	827	1956.425399870298	0
7	830	1969.834502793289	0
7	847	1999.57917616298	0
7	857	2031.530575653383	0
7	867	2049.403337861292	0
7	878	2069.148904070772	0
7	887	2112.867149498668	0
7	897	2134.440791909142	0
7	904	2157.212802221385	0
7	921	2174.387393734638	3.006780017046
7	928	2188.429738256359	16.689235243443
7	929	2188.711163870471	1.369649293148
7	946	2219.535531233618	0
7	949	2231.712627492054	7.870128558954
7	957	2245.658919910221	0
7	996	2315.1814443388	0
7	1003	2326.042549266443	3.758573017416
7	1010	2341.330673848243	10.082576768126
7	1015	2351.170869371389	4.94251030409
7	1029	2370.716186367381	0
7	1044	2394.776725882371	19.708648020838
7	1049	2407.270714130622	31.464391033713
7	1050	2412.705584314831	32.740327785052
7	1053	2421.384673500943	36.133821214632
7	1056	2427.096140324554	13.287143627693
7	1057	2431.105772520214	7.401368585227
7	1062	2439.323409864084	0
8	179	390.655141799278	22
8	182	393.661352364086	23
8	188	410.442778319088	24
8	227	525.930471339742	25
8	228	537.256423771993	26
8	236	554.479139238226	27
8	237	558.279795088441	28
8	247	585.573793226432	29
8	258	626.42020587498	30
8	261	629.44446814148	31
8	276	648.677841417669	32
8	279	655.84213481308	33
8	282	675.413442380476	34
8	297	730.749594956862	35
8	302	746.830303923498	36
8	316	762.182614644149	37
8	321	768.238189187687	38
8	322	772.550509600502	39
8	327	782.225336173391	40
8	349	824.521942834875	41
8	359	844.232312406263	42
8	377	891.219300784814	43
8	380	896.846461774226	44
8	391	964.713309390119	45
8	398	987.159298242339	46
8	401	998.211649306465	47
8	402	998.318358786027	48
8	426	1072.772546772091	49
8	435	1111.238470723109	50
8	448	1125.895438970328	51
8	455	1141.210836328482	52
8	456	1141.329280509048	53
8	457	1143.318613398631	54
8	466	1161.190141850179	55
8	469	1165.655962457304	56
8	481	1179.600868290557	57
8	482	1180.153070159661	58
8	490	1189.513041768776	59
8	491	1190.600079485763	60
8	494	1207.490534194196	61
8	504	1231.196340198066	62
8	507	1233.749026873435	63
8	513	1250.672879714784	64
8	522	1300.539472376964	65
8	528	1308.254090360263	66
8	537	1313.665861377632	67
8	566	1367.708327800127	68
8	572	1372.742632237328	69
8	578	1384.026729924573	70
8	583	1387.925016905754	71
8	584	1388.894811422157	72
8	587	1390.842347408579	73
8	596	1466.88515629975	74
8	608	1519.393569505264	75
8	613	1530.04672733318	76
8	620	1547.442022508609	77
8	623	1551.264490072031	78
8	627	1559.187420151523	79
8	638	1597.549387971297	80
8	639	1600.619811008342	81
8	663	1628.914900387953	82
8	666	1633.526556289806	83
8	667	1644.926685491923	84
8	668	1645.510670325042	85
8	680	1667.093762577532	86
8	685	1673.9496564095	87
8	694	1685.061488107044	88
8	700	1691.366129245423	89
8	707	1710.135216786985	90
8	713	1717.061804028459	91
8	724	1724.888511205328	92
8	727	1736.936643689847	93
8	728	1738.357826509851	94
8	738	1756.40468727708	95
8	748	1785.138808994654	96
8	755	1808.567334898971	97
8	758	1815.395308732953	98
8	781	1853.203138257231	99
8	787	1862.86089054653	100
8	792	1870.355323358361	101
8	800	1885.710264840645	102
8	807	1900.978728281571	103
8	810	1903.441254408654	104
8	828	1961.982000083119	105
8	833	1975.356687602784	106
8	848	2004.219504140091	107
8	860	2036.660479569864	108
8	870	2052.000976789656	109
8	879	2072.256564331564	110
8	890	2116.726990545543	111
8	902	2152.857281959254	112
8	921	2174.387393734638	113
8	928	2188.429738256359	114
8	929	2188.711163870471	115
8	930	2190.225511130255	116
8	949	2231.712627492054	117
8	950	2231.759903379622	118
8	960	2255.048206347078	119
8	1003	2326.042549266443	120
8	1010	2341.330673848243	121
8	1015	2351.170869371389	122
8	1016	2351.183785161464	123
8	1044	2394.776725882371	124
8	1049	2407.270714130622	125
8	1050	2412.705584314831	126
8	1053	2421.384673500943	127
8	1056	2427.096140324554	128
8	1057	2431.105772520214	129
8	1058	2438.538683992036	130
8	1065	2446.000063229011	131
9	179	390.655141799278	0.463056529658
9	182	393.661352364086	3.108896764282
9	188	410.442778319088	3.003246097179
9	227	525.930471339742	7.422502791354
9	228	537.256423771993	15.082803447107
9	236	554.479139238226	5.730322505109
9	237	558.279795088441	8.212176588389
9	247	585.573793226432	9.907630950653
9	258	626.42020587498	13.578105697472
9	261	629.44446814148	6.032875414653
9	276	648.677841417669	1.606648906093
9	279	655.84213481308	4.213342462424
9	282	675.413442380476	10.147693828546
9	297	730.749594956862	0.026430479639
9	302	746.830303923498	0.110100540079
9	316	762.182614644149	10.378212556923
9	321	768.238189187687	6.705137174365
9	322	772.550509600502	10.038215933408
9	327	782.225336173391	15.283341831267
9	349	824.521942834875	14.522979545235
9	359	844.232312406263	8.119585142233
9	377	891.219300784814	11.118263061038
9	380	896.846461774226	3.678981014326
9	391	964.713309390119	5.726626802145
9	398	987.159298242339	26.045510064564
9	401	998.211649306465	18.205361460363
9	402	998.318358786027	11.730652605317
9	426	1072.772546772091	1.075018579962
9	435	1111.238470723109	3.774396389664
9	448	1125.895438970328	8.111589442038
9	455	1141.210836328482	20.193455117174
9	456	1141.329280509048	16.898127772528
9	457	1143.318613398631	12.492609763601
9	466	1161.190141850179	12.656223208442
9	469	1165.655962457304	1.292013613255
9	481	1179.600868290557	5.529761392285
9	482	1180.153070159661	4.376979520569
9	490	1189.513041768776	6.776863100947
9	491	1190.600079485763	4.817140434176
9	494	1207.490534194196	21.352934924198
9	504	1231.196340198066	16.952025407438
9	507	1233.749026873435	6.925283709023
9	513	1250.672879714784	0.196170422322
9	522	1300.539472376964	1.889083085085
9	528	1308.254090360263	0.129004284222
9	537	1313.665861377632	3.377488372882
9	566	1367.708327800127	7.911778796886
9	572	1372.742632237328	1.752292322435
9	578	1384.026729924573	5.86702257705
9	583	1387.925016905754	6.960140425457
9	584	1388.894811422157	2.162640531196
9	587	1390.842347408579	1.734278016583
9	596	1466.88515629975	1.691873128874
9	608	1519.393569505264	1.345035692815
9	613	1530.04672733318	7.931426414066
9	620	1547.442022508609	6.013126954294
9	623	1551.264490072031	0.526379331307
9	627	1559.187420151523	2.129961609348
9	638	1597.549387971297	29.217836378369
9	639	1600.619811008342	5.737338931755
9	663	1628.914900387953	9.020162038694
9	666	1633.526556289806	9.442514024814
9	667	1644.926685491923	18.716069457672
9	668	1645.510670325042	12.663912440306
9	680	1667.093762577532	2.60328414781
9	685	1673.9496564095	2.56800115579
9	694	1685.061488107044	9.794381045493
9	700	1691.366129245423	1.518157870055
9	707	1710.135216786985	7.388303267447
9	713	1717.061804028459	4.564201513703
9	724	1724.888511205328	10.524962620404
9	727	1736.936643689847	17.295647284247
9	728	1738.357826509851	15.774761747501
9	738	1756.40468727708	0.99884348029
9	748	1785.138808994654	22.677681292418
9	755	1808.567334898971	21.507868463916
9	758	1815.395308732953	5.908994579864
9	781	1853.203138257231	5.811985475818
9	787	1862.86089054653	5.635841680101
9	792	1870.355323358361	4.083492560346
9	800	1885.710264840645	7.132197348252
9	807	1900.978728281571	14.221568377937
9	810	1903.441254408654	0.175658324726
9	828	1961.982000083119	5.556600212821
9	833	1975.356687602784	5.522184809495
9	848	2004.219504140091	4.640327977111
9	860	2036.660479569864	5.129903916481
9	870	2052.000976789656	2.597638928364
9	879	2072.256564331564	3.107660260792
9	890	2116.726990545543	3.859841046875
9	902	2152.857281959254	18.416490050112
9	921	2174.387393734638	17.174591513253
9	928	2188.429738256359	17.049124538767
9	929	2188.711163870471	16.970660857555
9	930	2190.225511130255	2.883996552932
9	949	2231.712627492054	12.177096258436
9	950	2231.759903379622	7.917404446522
9	960	2255.048206347078	9.389286436857
9	1003	2326.042549266443	10.861104927643
9	1010	2341.330673848243	19.046697599216
9	1015	2351.170869371389	19.922772291272
9	1016	2351.183785161464	4.955426094165
9	1044	2394.776725882371	24.06053951499
9	1049	2407.270714130622	32.202636269089
9	1050	2412.705584314831	36.899261217922
9	1053	2421.384673500943	41.419416971164
9	1056	2427.096140324554	41.845288038243
9	1057	2431.105772520214	17.296775823353
9	1058	2438.538683992036	14.834280057049
9	1065	2446.000063229011	6.676653364927
10	187	407.439532221909	6
10	253	612.842100177508	7
10	301	746.720203383419	8
10	309	751.804402087226	9
10	346	809.99896328964	10
10	379	893.1674807599	11
10	441	1117.78384952829	12
10	461	1148.533918641737	13
10	468	1164.363948844049	14
10	478	1174.071106898272	15
10	485	1182.736178667829	16
10	499	1214.244314790628	17
10	536	1310.28837300475	18
10	586	1389.108069391996	19
10	595	1465.193283170876	20
10	607	1518.048533812449	21
10	610	1522.115300919114	22
10	622	1550.738110740724	23
10	652	1619.894738349259	24
10	679	1664.490478429722	25
10	684	1671.38165525371	26
10	691	1675.267107061551	27
10	699	1689.847971375368	28
10	704	1702.746913519538	29
10	710	1712.497602514756	30
10	737	1755.40584379679	31
10	741	1762.461127702236	32
10	750	1787.059466435055	33
10	757	1809.486314153089	34
10	776	1847.391152781413	35
10	786	1857.225048866429	36
10	791	1866.271830798015	37
10	799	1878.578067492393	38
10	802	1886.757159903634	39
10	809	1903.265596083928	40
10	847	1999.57917616298	41
10	867	2049.403337861292	42
10	897	2134.440791909142	43
10	904	2157.212802221385	44
10	946	2219.535531233618	45
10	957	2245.658919910221	46
10	996	2315.1814443388	47
10	1029	2370.716186367381	48
10	1062	2439.323409864084	49
11	1090	2500	0.0928
12	1090	2500	0.0524

