version 2
run experiments_easy_game_mode1-446-20230308-12:03:27-20638
attr configname experiments_easy_game_mode1
attr datetime 20230308-12:03:27
attr experiment experiments_easy_game_mode1
attr inifile omnetpp.ini
attr iterationvars "$0=5.5, $1=1.5, $2=0"
attr iterationvarsf 5.5,1.5,0-
attr measurement "$0=5.5, $1=1.5, $2=0"
attr network Network
attr processid 20638
attr repetition 26
attr replication #26
attr resultdir results
attr runnumber 446
attr seedset 26
param *.boss.arrival_mean 20
param *.boss.service_mean 5.5
param *.minion.arrival_mean 10
param *.minion.service_mean 1.5
param *.player.recover_rate_x 0
param **.minion.arrival_distribution 0
param **.minion.service_distribution 0
param **.boss.arrival_distribution 0
param **.boss.service_distribution 0

vector 0 Network.player minion_jobs_number_stat:vector ETV
attr source signal_minion_jobs_number
vector 1 Network.player minion_jobs_queue_number_stat:vector ETV
attr source signal_minion_jobs_queue_number
vector 2 Network.player minion_waiting_time_stat:vector ETV
attr source signal_minion_waiting_time
vector 3 Network.player minion_defeated_stat:vector ETV
attr source signal_minion_defeated
vector 4 Network.player minion_response_time_stat:vector ETV
attr source signal_minion_response_time
vector 5 Network.player boss_jobs_number_stat:vector ETV
attr source signal_boss_jobs_number
vector 6 Network.player boss_jobs_queue_number_stat:vector ETV
attr source signal_boss_jobs_queue_number
vector 7 Network.player boss_waiting_time_stat:vector ETV
attr source signal_boss_waiting_time
vector 8 Network.player boss_defeated_stat:vector ETV
attr source signal_boss_defeated
vector 9 Network.player boss_response_time_stat:vector ETV
attr source signal_boss_response_time
vector 10 Network.player minion_recovered_stat:vector ETV
attr source signal_minion_recovered
vector 11 Network.player minion_throughput:vector ETV
attr source signal_minion_throughput
vector 12 Network.player boss_throughput:vector ETV
attr source signal_boss_throughput
0	131	353.474320604805	1
0	137	362.221650059944	1
0	140	388.918922681755	1
0	143	391.684997140054	1
0	146	393.513447054423	1
0	149	396.818932124983	1
0	152	411.073237962121	1
0	155	418.275100492741	1
0	157	419.589888907062	2
0	159	420.361511980791	3
0	164	431.413467444418	1
0	167	433.346302192891	1
0	176	445.432556060841	1
0	179	446.898056891252	1
0	182	457.624761079718	1
0	185	462.992411790454	1
0	191	477.732048514976	1
0	194	479.565660162456	1
0	200	506.907177080105	1
0	202	508.184710933496	2
0	205	513.794651262729	2
0	209	522.6230811356	1
0	212	525.703729907631	1
0	215	526.760700204932	1
0	218	529.153394214765	1
0	224	536.576731663828	1
0	229	538.986210414381	1
0	231	542.139596743865	2
0	236	549.542459884891	1
0	238	551.855074966976	2
0	241	552.96415021486	2
0	243	555.292798021475	3
0	245	555.530199892277	4
0	249	557.386578317167	3
0	251	558.581549090794	4
0	257	564.674090514164	1
0	260	566.996941240385	1
0	262	567.198732359307	2
0	264	567.806075160641	3
0	274	599.368227092208	1
0	280	609.617173713877	1
0	282	618.765200043476	2
0	285	628.111450699737	3
0	295	643.978860644792	1
0	302	670.76103880654	1
0	305	673.781192419499	1
0	307	677.024116712335	2
0	313	680.55874114572	1
0	318	690.106648260074	2
0	322	695.833009998525	2
0	326	706.460375203675	1
0	329	710.189187192976	1
0	332	714.031277994825	1
0	338	746.56073465194	1
0	340	747.335346081218	2
0	344	752.507465201618	1
0	347	764.711850508577	1
0	356	779.392366829766	1
0	367	798.727175529999	1
0	376	805.745986193468	2
0	378	809.376814129608	3
0	381	814.345620529679	4
0	383	816.943428381458	5
0	385	820.20186011876	6
0	388	823.652287563037	7
0	390	823.852341833642	8
0	399	838.965598310374	3
0	406	849.665848546355	1
0	408	855.20014544701	2
0	418	874.938272861615	1
0	420	875.642170742283	2
0	422	878.916392601563	3
0	426	880.194743129377	3
0	433	908.302664689417	1
0	435	912.880118731235	2
0	437	914.154013521909	3
0	441	918.221453502094	3
0	445	920.466740367527	2
0	447	921.269617257342	3
0	452	928.270388860147	1
0	455	940.769429665337	1
0	458	946.937388544451	1
0	460	948.378059082212	2
0	464	961.276425471982	1
0	467	968.857171976466	1
0	473	985.637922849169	1
0	479	990.293399767415	1
0	482	994.830844296818	1
0	487	1006.809630873742	1
0	489	1008.576925158246	2
0	497	1025.702611347249	1
0	499	1025.859092540039	2
0	503	1032.037129145877	3
0	510	1039.660424487586	3
0	515	1044.334527619919	1
0	523	1069.794077147459	1
0	527	1092.429440543177	1
0	529	1099.606014265835	2
0	532	1106.988560342246	2
0	535	1108.012979850404	2
0	548	1136.140998633732	1
0	556	1157.550368266195	1
0	559	1157.611214525958	2
0	563	1162.88480480778	1
0	566	1166.784023230992	1
0	572	1201.198363559256	1
0	575	1233.994475151404	1
0	577	1234.638255782988	2
0	581	1245.207501304281	1
0	584	1252.287471471351	1
0	586	1252.958309372731	2
0	590	1255.544300550687	1
0	593	1257.702205050436	1
0	596	1273.575107147716	1
0	599	1282.000157476293	1
0	605	1308.042757533478	1
0	608	1322.442427890273	1
0	611	1354.450041299215	1
0	614	1359.808667138904	1
0	617	1365.567060418044	1
0	620	1379.527834508314	1
0	623	1388.343387569061	1
0	626	1391.530722183322	1
0	628	1395.987648763864	2
0	638	1405.73259010185	1
0	641	1407.59546398581	1
0	644	1421.052419772988	1
0	658	1465.665298626496	1
0	666	1483.14063802135	2
0	670	1486.981162243963	3
0	672	1490.211591955959	4
0	674	1492.475700231023	5
0	676	1493.600893495466	6
0	679	1496.620248682547	7
0	681	1499.251009617682	8
0	683	1501.190745310615	9
0	687	1503.555027487292	10
0	689	1503.84271439289	11
0	691	1507.41017972299	12
0	702	1530.291608934717	9
0	704	1530.384925280363	10
0	711	1537.457528739665	8
0	720	1553.162040759077	7
0	725	1570.137080280809	8
0	728	1573.274776966163	9
0	731	1580.777479436213	10
0	756	1617.45004086707	2
0	760	1618.19945656825	2
0	764	1639.564752723533	1
0	770	1659.579680344184	1
0	772	1661.084268464403	2
0	774	1661.820909129658	3
0	778	1664.226597667918	2
0	782	1670.65600116995	1
0	788	1692.733021911401	1
0	790	1693.122160938568	2
0	792	1696.792034829513	3
0	797	1706.576033597084	1
0	806	1737.584751462818	1
0	817	1762.88645240741	1
0	819	1764.52628129551	2
0	822	1771.345773685681	3
0	827	1782.840199138905	4
0	830	1787.099373712175	5
0	832	1790.474069399335	6
0	837	1798.639424257225	6
0	848	1811.071683779677	1
0	851	1815.698051184562	1
0	853	1818.193629922128	2
0	856	1819.927956121786	2
0	862	1841.53335381805	1
0	864	1848.825722193123	2
0	866	1851.803641447519	3
0	872	1871.596090993364	1
0	874	1873.039811236144	2
0	878	1888.636690117927	1
0	880	1889.72021430197	2
0	892	1908.068432641432	1
0	896	1917.112298752113	1
0	906	1928.548868381647	1
0	909	1943.202172054068	2
0	911	1943.853450068646	3
0	915	1947.491857768771	3
0	918	1952.257540051665	3
0	921	1953.894543985779	3
0	928	1967.391884018465	1
0	930	1968.953078841886	2
0	934	1975.753052079742	3
0	938	1980.675212583733	4
0	940	1984.434920620764	5
0	942	1988.17588147654	6
0	950	1997.039189549181	7
0	953	2006.675050578551	8
0	960	2013.603734137001	6
0	962	2013.712213650688	7
0	969	2016.571851117598	6
0	971	2017.433573627472	7
0	975	2021.377678270243	6
0	979	2031.751956071526	7
0	989	2052.242150349561	1
0	994	2060.513224836688	1
0	996	2061.071047269637	2
0	1001	2085.179997703273	1
0	1004	2087.200259857916	1
0	1012	2124.846046838009	1
0	1019	2147.294971925394	1
0	1028	2181.080498134622	1
0	1031	2182.839138302258	1
0	1034	2191.644797750578	1
0	1040	2213.834378504324	1
0	1043	2216.879486632086	1
0	1048	2221.076484284912	1
0	1052	2225.648999783634	1
0	1055	2236.923596929798	1
0	1058	2243.644770406919	1
0	1061	2265.943846688117	1
0	1066	2278.84125004028	1
0	1079	2325.20156429716	1
0	1082	2335.233532933645	1
0	1085	2345.440787043552	1
0	1091	2357.58083537246	1
0	1094	2362.672863402485	1
0	1097	2380.495826501538	1
0	1100	2387.22080609807	1
0	1103	2408.542308582601	1
0	1106	2410.226325649505	1
0	1112	2413.640233561452	1
0	1115	2421.961824707125	1
0	1118	2439.826725366544	1
0	1121	2448.966925486014	1
0	1126	2457.299839417518	1
0	1129	2461.289238194113	2
0	1138	2473.170198392813	1
0	1141	2481.059061575314	2
1	131	353.474320604805	0
1	132	356.036523613013	0
1	137	362.221650059944	0
1	138	362.734957740432	0
1	140	388.918922681755	0
1	141	390.658046155569	0
1	143	391.684997140054	0
1	144	392.99631356755	0
1	146	393.513447054423	0
1	147	395.008751372943	0
1	149	396.818932124983	0
1	150	398.045730476391	0
1	152	411.073237962121	0
1	153	411.767217939907	0
1	155	418.275100492741	0
1	157	419.589888907062	1
1	159	420.361511980791	2
1	160	423.191563052435	2
1	161	424.343720027028	1
1	162	424.692861907985	0
1	164	431.413467444418	0
1	165	431.698687135001	0
1	167	433.346302192891	0
1	174	443.446215471479	0
1	176	445.432556060841	0
1	177	445.704726604043	0
1	179	446.898056891252	0
1	180	448.998921916606	0
1	182	457.624761079718	0
1	183	457.800353261167	0
1	185	462.992411790454	0
1	186	464.355326662591	0
1	191	477.732048514976	0
1	192	478.323508890677	0
1	194	479.565660162456	0
1	195	480.027991058614	0
1	200	506.907177080105	0
1	202	508.184710933496	1
1	203	510.32275823447	1
1	205	513.794651262729	1
1	206	516.170316158175	1
1	207	517.362876868144	0
1	209	522.6230811356	0
1	210	524.709975632278	0
1	212	525.703729907631	0
1	213	526.118092197869	0
1	215	526.760700204932	0
1	216	527.21722477907	0
1	218	529.153394214765	0
1	219	529.749647661843	0
1	224	536.576731663828	0
1	225	536.695727030093	0
1	229	538.986210414381	0
1	231	542.139596743865	1
1	233	545.448737625597	1
1	234	546.330252857334	0
1	236	549.542459884891	0
1	238	551.855074966976	1
1	239	551.920826654302	1
1	241	552.96415021486	1
1	243	555.292798021475	2
1	245	555.530199892277	3
1	246	555.630002532433	3
1	247	556.614276372248	2
1	249	557.386578317167	2
1	251	558.581549090794	3
1	252	559.974979312257	3
1	253	561.262670265169	2
1	254	561.694629891436	1
1	255	563.032444146218	0
1	257	564.674090514164	0
1	258	566.197627490161	0
1	260	566.996941240385	0
1	262	567.198732359307	1
1	264	567.806075160641	2
1	265	569.395413941217	2
1	266	569.63083444065	1
1	267	571.889287514642	0
1	274	599.368227092208	0
1	276	605.634013110998	0
1	280	609.617173713877	0
1	282	618.765200043476	1
1	285	628.111450699737	2
1	286	629.085714707935	2
1	287	629.146917391351	1
1	288	630.220698412657	0
1	295	643.978860644792	0
1	297	649.144539417739	0
1	302	670.76103880654	0
1	303	671.913992272191	0
1	305	673.781192419499	0
1	307	677.024116712335	1
1	308	678.136164729831	1
1	309	678.42149332302	0
1	313	680.55874114572	0
1	318	690.106648260074	1
1	320	694.616682709132	1
1	322	695.833009998525	1
1	323	696.306020310687	1
1	324	698.3663588017	0
1	326	706.460375203675	0
1	327	710.041903601489	0
1	329	710.189187192976	0
1	330	710.457630116664	0
1	332	714.031277994825	0
1	333	715.181426614351	0
1	338	746.56073465194	0
1	340	747.335346081218	1
1	341	747.459484349103	1
1	342	747.764901826851	0
1	344	752.507465201618	0
1	345	756.673874447523	0
1	347	764.711850508577	0
1	348	764.855559268638	0
1	356	779.392366829766	0
1	357	779.582415017817	0
1	367	798.727175529999	0
1	376	805.745986193468	1
1	378	809.376814129608	2
1	381	814.345620529679	3
1	383	816.943428381458	4
1	385	820.20186011876	5
1	388	823.652287563037	6
1	390	823.852341833642	7
1	392	831.756266347072	7
1	393	832.046311217706	6
1	394	834.657770914588	5
1	395	835.627159485038	4
1	396	835.883734536172	3
1	397	837.623506552828	2
1	399	838.965598310374	2
1	400	839.235905105641	2
1	401	840.369587127658	1
1	402	840.514247963414	0
1	406	849.665848546355	0
1	408	855.20014544701	1
1	410	856.978582749404	1
1	411	861.427648427076	0
1	418	874.938272861615	0
1	420	875.642170742283	1
1	422	878.916392601563	2
1	424	880.158389733549	2
1	426	880.194743129377	2
1	427	880.309405915163	2
1	428	881.650167263656	1
1	429	882.491791863099	0
1	433	908.302664689417	0
1	435	912.880118731235	1
1	437	914.154013521909	2
1	439	916.949445189936	2
1	441	918.221453502094	2
1	442	918.428709530837	2
1	443	919.490529874552	1
1	445	920.466740367527	1
1	447	921.269617257342	2
1	448	921.697727411403	2
1	449	923.269656881645	1
1	450	924.231193615631	0
1	452	928.270388860147	0
1	453	929.250976286369	0
1	455	940.769429665337	0
1	456	941.261511719329	0
1	458	946.937388544451	0
1	460	948.378059082212	1
1	461	949.336174132199	1
1	462	949.764496688834	0
1	464	961.276425471982	0
1	465	962.46701933431	0
1	467	968.857171976466	0
1	468	969.011477851065	0
1	473	985.637922849169	0
1	474	987.092437703802	0
1	479	990.293399767415	0
1	480	992.400430779122	0
1	482	994.830844296818	0
1	483	994.979524659827	0
1	487	1006.809630873742	0
1	489	1008.576925158246	1
1	494	1017.349615433423	1
1	495	1017.462541276476	0
1	497	1025.702611347249	0
1	499	1025.859092540039	1
1	503	1032.037129145877	2
1	508	1039.447794539379	2
1	510	1039.660424487586	2
1	511	1039.998064338609	2
1	512	1040.070914449913	1
1	513	1041.358933662256	0
1	515	1044.334527619919	0
1	516	1045.782534180448	0
1	523	1069.794077147459	0
1	525	1072.257705790036	0
1	527	1092.429440543177	0
1	529	1099.606014265835	1
1	530	1103.184359272251	1
1	532	1106.988560342246	1
1	533	1107.607063409373	1
1	535	1108.012979850404	1
1	536	1109.674686141626	1
1	537	1114.715475952073	0
1	548	1136.140998633732	0
1	549	1137.301134266231	0
1	556	1157.550368266195	0
1	559	1157.611214525958	1
1	560	1159.903529965728	1
1	561	1160.729176132965	0
1	563	1162.88480480778	0
1	564	1163.504402588913	0
1	566	1166.784023230992	0
1	567	1166.813714481258	0
1	572	1201.198363559256	0
1	573	1201.458707285238	0
1	575	1233.994475151404	0
1	577	1234.638255782988	1
1	578	1236.527391104723	1
1	579	1236.534480797856	0
1	581	1245.207501304281	0
1	582	1245.358885480714	0
1	584	1252.287471471351	0
1	586	1252.958309372731	1
1	587	1253.246881213383	1
1	588	1253.403544250886	0
1	590	1255.544300550687	0
1	591	1257.287138918777	0
1	593	1257.702205050436	0
1	594	1258.099540072316	0
1	596	1273.575107147716	0
1	597	1274.209366631269	0
1	599	1282.000157476293	0
1	600	1282.699959516705	0
1	605	1308.042757533478	0
1	606	1310.547062628479	0
1	608	1322.442427890273	0
1	609	1322.608583487118	0
1	611	1354.450041299215	0
1	612	1355.545173927716	0
1	614	1359.808667138904	0
1	615	1361.270805756329	0
1	617	1365.567060418044	0
1	618	1366.127910275064	0
1	620	1379.527834508314	0
1	621	1380.154882619632	0
1	623	1388.343387569061	0
1	624	1391.49823148588	0
1	626	1391.530722183322	0
1	628	1395.987648763864	1
1	632	1401.056253455208	1
1	633	1401.412802320561	0
1	638	1405.73259010185	0
1	639	1406.627279011575	0
1	641	1407.59546398581	0
1	642	1412.499647821087	0
1	644	1421.052419772988	0
1	645	1421.920065883223	0
1	658	1465.665298626496	0
1	666	1483.14063802135	1
1	670	1486.981162243963	2
1	672	1490.211591955959	3
1	674	1492.475700231023	4
1	676	1493.600893495466	5
1	679	1496.620248682547	6
1	681	1499.251009617682	7
1	683	1501.190745310615	8
1	687	1503.555027487292	9
1	689	1503.84271439289	10
1	691	1507.41017972299	11
1	694	1511.981648699147	11
1	695	1512.550601118163	10
1	699	1529.644216894728	9
1	700	1529.69120987728	8
1	702	1530.291608934717	8
1	704	1530.384925280363	9
1	705	1530.884829416085	9
1	706	1534.113320591202	8
1	707	1535.074185177025	7
1	711	1537.457528739665	7
1	713	1543.952064086205	7
1	714	1544.83271588299	6
1	720	1553.162040759077	6
1	725	1570.137080280809	7
1	728	1573.274776966163	8
1	731	1580.777479436213	9
1	732	1581.76181633029	9
1	733	1581.790221735295	8
1	734	1582.314403020984	7
1	735	1583.68713304258	6
1	739	1585.571247461976	5
1	740	1587.00625629794	4
1	741	1587.018622142277	3
1	742	1588.106411478211	2
1	752	1612.384518816141	1
1	756	1617.45004086707	1
1	758	1618.049373180704	1
1	760	1618.19945656825	1
1	761	1618.615146235357	1
1	762	1619.832675271171	0
1	764	1639.564752723533	0
1	765	1640.754451719537	0
1	770	1659.579680344184	0
1	772	1661.084268464403	1
1	774	1661.820909129658	2
1	775	1662.186726437078	2
1	776	1663.123057267343	1
1	778	1664.226597667918	1
1	779	1666.385897819662	1
1	780	1666.788874040505	0
1	782	1670.65600116995	0
1	783	1670.72402092932	0
1	788	1692.733021911401	0
1	790	1693.122160938568	1
1	792	1696.792034829513	2
1	793	1696.839826627414	2
1	794	1704.287732691867	1
1	795	1705.259042441738	0
1	797	1706.576033597084	0
1	798	1707.546345763975	0
1	806	1737.584751462818	0
1	807	1739.207777842543	0
1	817	1762.88645240741	0
1	819	1764.52628129551	1
1	822	1771.345773685681	2
1	827	1782.840199138905	3
1	830	1787.099373712175	4
1	832	1790.474069399335	5
1	835	1798.174110227853	5
1	837	1798.639424257225	5
1	838	1799.139805452197	5
1	839	1802.18745238191	4
1	840	1802.481738883931	3
1	841	1804.90134235363	2
1	842	1804.994992669767	1
1	846	1810.305857669232	0
1	848	1811.071683779677	0
1	849	1813.137881393143	0
1	851	1815.698051184562	0
1	853	1818.193629922128	1
1	854	1819.625333952702	1
1	856	1819.927956121786	1
1	857	1820.984948976001	1
1	858	1821.05521263942	0
1	862	1841.53335381805	0
1	864	1848.825722193123	1
1	866	1851.803641447519	2
1	868	1856.717954745297	2
1	869	1857.564053658228	1
1	870	1858.940880463651	0
1	872	1871.596090993364	0
1	874	1873.039811236144	1
1	875	1875.387805656658	1
1	876	1877.516114216283	0
1	878	1888.636690117927	0
1	880	1889.72021430197	1
1	881	1892.837605909337	1
1	882	1893.186446435743	0
1	892	1908.068432641432	0
1	894	1915.020878804247	0
1	896	1917.112298752113	0
1	897	1917.296799306925	0
1	906	1928.548868381647	0
1	909	1943.202172054068	1
1	911	1943.853450068646	2
1	913	1946.274614656237	2
1	915	1947.491857768771	2
1	916	1949.58214203708	2
1	918	1952.257540051665	2
1	919	1953.222606397382	2
1	921	1953.894543985779	2
1	922	1957.429727145316	2
1	923	1957.55453885838	1
1	924	1958.642873781055	0
1	928	1967.391884018465	0
1	930	1968.953078841886	1
1	934	1975.753052079742	2
1	938	1980.675212583733	3
1	940	1984.434920620764	4
1	942	1988.17588147654	5
1	950	1997.039189549181	6
1	953	2006.675050578551	7
1	956	2012.173213788648	7
1	957	2012.347423433171	6
1	958	2013.006469449926	5
1	960	2013.603734137001	5
1	962	2013.712213650688	6
1	963	2013.747026958215	6
1	964	2013.864629829695	5
1	969	2016.571851117598	5
1	971	2017.433573627472	6
1	972	2019.048568328871	6
1	973	2021.257894204827	5
1	975	2021.377678270243	5
1	979	2031.751956071526	6
1	981	2032.685994936294	6
1	982	2033.230863032543	5
1	983	2033.728705469915	4
1	984	2034.163953866038	3
1	985	2034.848632624226	2
1	986	2035.346912604803	1
1	987	2039.345273024474	0
1	989	2052.242150349561	0
1	990	2054.399978053393	0
1	994	2060.513224836688	0
1	996	2061.071047269637	1
1	998	2073.074840909518	1
1	999	2073.278725720455	0
1	1001	2085.179997703273	0
1	1002	2085.471977947399	0
1	1004	2087.200259857916	0
1	1005	2092.24976623416	0
1	1012	2124.846046838009	0
1	1014	2127.044039772869	0
1	1019	2147.294971925394	0
1	1026	2165.256728466405	0
1	1028	2181.080498134622	0
1	1029	2181.575678888741	0
1	1031	2182.839138302258	0
1	1032	2184.148342469225	0
1	1034	2191.644797750578	0
1	1035	2193.546965100566	0
1	1040	2213.834378504324	0
1	1041	2215.204479934624	0
1	1043	2216.879486632086	0
1	1044	2217.659368537129	0
1	1048	2221.076484284912	0
1	1050	2223.745656068499	0
1	1052	2225.648999783634	0
1	1053	2228.683186036688	0
1	1055	2236.923596929798	0
1	1056	2239.811659105684	0
1	1058	2243.644770406919	0
1	1059	2245.090507283303	0
1	1061	2265.943846688117	0
1	1062	2266.490373319217	0
1	1066	2278.84125004028	0
1	1068	2280.522260115288	0
1	1079	2325.20156429716	0
1	1080	2326.276222813369	0
1	1082	2335.233532933645	0
1	1083	2335.722221937011	0
1	1085	2345.440787043552	0
1	1086	2347.142357232691	0
1	1091	2357.58083537246	0
1	1092	2357.915616746266	0
1	1094	2362.672863402485	0
1	1095	2363.045963986285	0
1	1097	2380.495826501538	0
1	1098	2381.077391084218	0
1	1100	2387.22080609807	0
1	1101	2389.421360240477	0
1	1103	2408.542308582601	0
1	1104	2408.848921560797	0
1	1106	2410.226325649505	0
1	1107	2410.234052998872	0
1	1112	2413.640233561452	0
1	1113	2413.952136346006	0
1	1115	2421.961824707125	0
1	1116	2423.167453543938	0
1	1118	2439.826725366544	0
1	1119	2443.220568631318	0
1	1121	2448.966925486014	0
1	1122	2449.5170332978	0
1	1126	2457.299839417518	0
1	1129	2461.289238194113	1
1	1130	2461.61900534861	1
1	1131	2461.77667501361	0
1	1138	2473.170198392813	0
1	1141	2481.059061575314	1
1	1142	2482.318499839425	1
1	1143	2482.870782736882	0
2	131	353.474320604805	0
2	137	362.221650059944	0
2	140	388.918922681755	0
2	143	391.684997140054	0
2	146	393.513447054423	0
2	149	396.818932124983	0
2	152	411.073237962121	0
2	155	418.275100492741	0
2	160	423.191563052435	3.601674145373
2	161	424.343720027028	3.982208046237
2	164	431.413467444418	0
2	167	433.346302192891	0
2	173	443.033807034377	8.841315040744
2	176	445.432556060841	0
2	179	446.898056891252	0
2	182	457.624761079718	0
2	185	462.992411790454	0
2	191	477.732048514976	0
2	194	479.565660162456	0
2	200	506.907177080105	0
2	203	510.32275823447	2.138047300974
2	206	516.170316158175	2.375664895446
2	209	522.6230811356	0
2	212	525.703729907631	0
2	215	526.760700204932	0
2	218	529.153394214765	0
2	224	536.576731663828	0
2	232	544.115255814613	5.129045400232
2	233	545.448737625597	3.309140881732
2	236	549.542459884891	0
2	239	551.920826654302	0.065751687326
2	246	555.630002532433	2.665852317573
2	247	556.614276372248	1.321478350773
2	252	559.974979312257	4.44477941998
2	253	561.262670265169	3.876091948002
2	254	561.694629891436	3.113080800642
2	257	564.674090514164	0
2	260	566.996941240385	0
2	265	569.395413941217	2.19668158191
2	266	569.63083444065	1.824759280009
2	275	603.633821649329	4.265594557121
2	283	627.437882834096	17.820709120219
2	286	629.085714707935	10.320514664459
2	287	629.146917391351	1.035466691614
2	296	646.313700962368	2.334840317576
2	302	670.76103880654	0
2	305	673.781192419499	0
2	308	678.136164729831	1.112048017496
2	319	693.641507836914	13.082766691194
2	320	694.616682709132	4.510034449058
2	323	696.306020310687	0.473010312162
2	326	706.460375203675	0
2	329	710.189187192976	0
2	332	714.031277994825	0
2	338	746.56073465194	0
2	341	747.459484349103	0.124138267885
2	344	752.507465201618	0
2	347	764.711850508577	0
2	356	779.392366829766	0
2	391	830.486614478499	31.7594389485
2	392	831.756266347072	26.010280153604
2	393	832.046311217706	22.669497088098
2	394	834.657770914588	20.312150384909
2	395	835.627159485038	18.68373110358
2	396	835.883734536172	15.681874417412
2	397	837.623506552828	13.971218989791
2	400	839.235905105641	15.383563271999
2	401	840.369587127658	1.403988817284
2	409	856.710575372553	7.044726826198
2	410	856.978582749404	1.778437302394
2	423	879.578439368565	4.64016650695
2	424	880.158389733549	4.516218991266
2	427	880.309405915163	1.3930133136
2	428	881.650167263656	1.455424134279
2	438	915.728459139578	7.425794450161
2	439	916.949445189936	4.069326458701
2	442	918.428709530837	4.274696008928
2	443	919.490529874552	1.269076372458
2	448	921.697727411403	1.230987043876
2	449	923.269656881645	2.000039624303
2	452	928.270388860147	0
2	455	940.769429665337	0
2	458	946.937388544451	0
2	461	949.336174132199	0.958115049987
2	464	961.276425471982	0
2	467	968.857171976466	0
2	473	985.637922849169	0
2	479	990.293399767415	0
2	482	994.830844296818	0
2	493	1016.232315203856	9.422684330114
2	494	1017.349615433423	8.772690275177
2	497	1025.702611347249	0
2	504	1033.051672327952	7.192579787913
2	507	1038.704512800207	11.32357210423
2	508	1039.447794539379	7.410665393502
2	511	1039.998064338609	1.762226869266
2	512	1040.070914449913	0.410489962327
2	515	1044.334527619919	0
2	524	1071.851374922328	2.057297774869
2	527	1092.429440543177	0
2	530	1103.184359272251	3.578345006416
2	533	1107.607063409373	0.618503067127
2	536	1109.674686141626	1.661706291222
2	548	1136.140998633732	0
2	557	1157.60173230721	0.051364041015
2	560	1159.903529965728	2.29231543977
2	563	1162.88480480778	0
2	566	1166.784023230992	0
2	572	1201.198363559256	0
2	575	1233.994475151404	0
2	578	1236.527391104723	1.889135321735
2	581	1245.207501304281	0
2	584	1252.287471471351	0
2	587	1253.246881213383	0.288571840652
2	590	1255.544300550687	0
2	593	1257.702205050436	0
2	596	1273.575107147716	0
2	599	1282.000157476293	0
2	605	1308.042757533478	0
2	608	1322.442427890273	0
2	611	1354.450041299215	0
2	614	1359.808667138904	0
2	617	1365.567060418044	0
2	620	1379.527834508314	0
2	623	1388.343387569061	0
2	626	1391.530722183322	0
2	631	1398.844838926474	2.85719016261
2	632	1401.056253455208	3.852438692634
2	638	1405.73259010185	0
2	641	1407.59546398581	0
2	644	1421.052419772988	0
2	693	1510.737292290228	45.071993663732
2	694	1511.981648699147	28.841010677797
2	695	1512.550601118163	25.5694388742
2	698	1528.706469024655	38.494877068696
2	699	1529.644216894728	37.168516663705
2	700	1529.69120987728	36.090316381814
2	705	1530.884829416085	34.264580733538
2	706	1534.113320591202	34.86231097352
2	707	1535.074185177025	33.88343986641
2	712	1539.338080846777	35.783053359485
2	713	1543.952064086205	40.109349693315
2	714	1544.83271588299	37.42253616
2	729	1576.116069842217	62.29116976889
2	732	1581.76181633029	51.470207395573
2	733	1581.790221735295	51.405296454932
2	734	1582.314403020984	46.698879861855
2	735	1583.68713304258	46.229604302915
2	738	1584.598384758873	39.762951190434
2	739	1585.571247461976	32.409206702899
2	740	1587.00625629794	16.869176017131
2	741	1587.018622142277	13.743845176114
2	742	1588.106411478211	7.328932041998
2	751	1610.470573299951	26.301627151425
2	752	1612.384518816141	22.004083042395
2	757	1618.008091846784	5.588906392021
2	758	1618.049373180704	0.599332313634
2	761	1618.615146235357	0.415689667107
2	764	1639.564752723533	0
2	770	1659.579680344184	0
2	775	1662.186726437078	1.102457972675
2	776	1663.123057267343	1.302148137685
2	779	1666.385897819662	2.159300151744
2	782	1670.65600116995	0
2	788	1692.733021911401	0
2	793	1696.839826627414	3.717665688846
2	794	1704.287732691867	7.495697862354
2	797	1706.576033597084	0
2	806	1737.584751462818	0
2	834	1797.484497544998	34.598045137588
2	835	1798.174110227853	33.647828932343
2	838	1799.139805452197	27.794031766516
2	839	1802.18745238191	19.347253243005
2	840	1802.481738883931	15.382365171756
2	841	1804.90134235363	14.427272954295
2	842	1804.994992669767	6.355568412542
2	845	1808.300204492734	2.58694820603
2	848	1811.071683779677	0
2	851	1815.698051184562	0
2	854	1819.625333952702	1.431704030574
2	857	1820.984948976001	1.056992854215
2	867	1855.327635715628	13.794281897578
2	868	1856.717954745297	7.892232552174
2	869	1857.564053658228	5.760412210709
2	872	1871.596090993364	0
2	875	1875.387805656658	2.347994420514
2	878	1888.636690117927	0
2	881	1892.837605909337	3.117391607367
2	893	1912.749243039775	4.680810398343
2	896	1917.112298752113	0
2	912	1945.956120707628	17.407252325981
2	913	1946.274614656237	3.072442602169
2	916	1949.58214203708	5.728691968434
2	919	1953.222606397382	5.730748628611
2	922	1957.429727145316	5.172187093651
2	923	1957.55453885838	3.659994872601
2	955	2010.020502010069	42.628617991604
2	956	2012.173213788648	43.220134946762
2	957	2012.347423433171	36.594371353429
2	958	2013.006469449926	32.331256866193
2	963	2013.747026958215	29.312106337451
2	964	2013.864629829695	25.688748353155
2	967	2016.420490219931	19.38130067075
2	972	2019.048568328871	12.37351775032
2	973	2021.257894204827	7.654160067826
2	980	2032.238776455032	18.526562804344
2	981	2032.685994936294	18.723275450198
2	982	2033.230863032543	16.659011914945
2	983	2033.728705469915	16.295131842443
2	984	2034.163953866038	12.786275595795
2	985	2034.848632624226	12.94633582245
2	986	2035.346912604803	3.594956533277
2	989	2052.242150349561	0
2	997	2072.360468238404	11.847243401716
2	998	2073.074840909518	12.003793639881
2	1001	2085.179997703273	0
2	1004	2087.200259857916	0
2	1013	2126.65268920429	1.806642366281
2	1019	2147.294971925394	0
2	1025	2164.171248786657	16.090793089754
2	1028	2181.080498134622	0
2	1031	2182.839138302258	0
2	1034	2191.644797750578	0
2	1040	2213.834378504324	0
2	1043	2216.879486632086	0
2	1049	2223.367398553434	2.290914268522
2	1052	2225.648999783634	0
2	1055	2236.923596929798	0
2	1058	2243.644770406919	0
2	1061	2265.943846688117	0
2	1067	2279.340606701754	0.499356661474
2	1079	2325.20156429716	0
2	1082	2335.233532933645	0
2	1085	2345.440787043552	0
2	1091	2357.58083537246	0
2	1094	2362.672863402485	0
2	1097	2380.495826501538	0
2	1100	2387.22080609807	0
2	1103	2408.542308582601	0
2	1106	2410.226325649505	0
2	1112	2413.640233561452	0
2	1115	2421.961824707125	0
2	1118	2439.826725366544	0
2	1121	2448.966925486014	0
2	1127	2460.250422800391	2.950583382873
2	1130	2461.61900534861	0.329767154497
2	1139	2480.052809718359	6.882611325546
2	1142	2482.318499839425	1.259438264111
3	132	356.036523613013	33
3	138	362.734957740432	34
3	141	390.658046155569	35
3	144	392.99631356755	36
3	147	395.008751372943	37
3	150	398.045730476391	38
3	153	411.767217939907	39
3	160	423.191563052435	40
3	161	424.343720027028	41
3	162	424.692861907985	42
3	165	431.698687135001	43
3	174	443.446215471479	44
3	177	445.704726604043	45
3	180	448.998921916606	46
3	183	457.800353261167	47
3	186	464.355326662591	48
3	192	478.323508890677	49
3	195	480.027991058614	50
3	203	510.32275823447	51
3	206	516.170316158175	52
3	207	517.362876868144	53
3	210	524.709975632278	54
3	213	526.118092197869	55
3	216	527.21722477907	56
3	219	529.749647661843	57
3	225	536.695727030093	58
3	233	545.448737625597	59
3	234	546.330252857334	60
3	239	551.920826654302	61
3	246	555.630002532433	62
3	247	556.614276372248	63
3	252	559.974979312257	64
3	253	561.262670265169	65
3	254	561.694629891436	66
3	255	563.032444146218	67
3	258	566.197627490161	68
3	265	569.395413941217	69
3	266	569.63083444065	70
3	267	571.889287514642	71
3	276	605.634013110998	72
3	286	629.085714707935	73
3	287	629.146917391351	74
3	288	630.220698412657	75
3	297	649.144539417739	76
3	303	671.913992272191	77
3	308	678.136164729831	78
3	309	678.42149332302	79
3	320	694.616682709132	80
3	323	696.306020310687	81
3	324	698.3663588017	82
3	327	710.041903601489	83
3	330	710.457630116664	84
3	333	715.181426614351	85
3	341	747.459484349103	86
3	342	747.764901826851	87
3	345	756.673874447523	88
3	348	764.855559268638	89
3	357	779.582415017817	90
3	392	831.756266347072	91
3	393	832.046311217706	92
3	394	834.657770914588	93
3	395	835.627159485038	94
3	396	835.883734536172	95
3	397	837.623506552828	96
3	400	839.235905105641	97
3	401	840.369587127658	98
3	402	840.514247963414	99
3	410	856.978582749404	100
3	411	861.427648427076	101
3	424	880.158389733549	102
3	427	880.309405915163	103
3	428	881.650167263656	104
3	429	882.491791863099	105
3	439	916.949445189936	106
3	442	918.428709530837	107
3	443	919.490529874552	108
3	448	921.697727411403	109
3	449	923.269656881645	110
3	450	924.231193615631	111
3	453	929.250976286369	112
3	456	941.261511719329	113
3	461	949.336174132199	114
3	462	949.764496688834	115
3	465	962.46701933431	116
3	468	969.011477851065	117
3	474	987.092437703802	118
3	480	992.400430779122	119
3	483	994.979524659827	120
3	494	1017.349615433423	121
3	495	1017.462541276476	122
3	508	1039.447794539379	123
3	511	1039.998064338609	124
3	512	1040.070914449913	125
3	513	1041.358933662256	126
3	516	1045.782534180448	127
3	525	1072.257705790036	128
3	530	1103.184359272251	129
3	533	1107.607063409373	130
3	536	1109.674686141626	131
3	537	1114.715475952073	132
3	549	1137.301134266231	133
3	560	1159.903529965728	134
3	561	1160.729176132965	135
3	564	1163.504402588913	136
3	567	1166.813714481258	137
3	573	1201.458707285238	138
3	578	1236.527391104723	139
3	579	1236.534480797856	140
3	582	1245.358885480714	141
3	587	1253.246881213383	142
3	588	1253.403544250886	143
3	591	1257.287138918777	144
3	594	1258.099540072316	145
3	597	1274.209366631269	146
3	600	1282.699959516705	147
3	606	1310.547062628479	148
3	609	1322.608583487118	149
3	612	1355.545173927716	150
3	615	1361.270805756329	151
3	618	1366.127910275064	152
3	621	1380.154882619632	153
3	624	1391.49823148588	154
3	632	1401.056253455208	155
3	633	1401.412802320561	156
3	639	1406.627279011575	157
3	642	1412.499647821087	158
3	645	1421.920065883223	159
3	694	1511.981648699147	160
3	695	1512.550601118163	161
3	699	1529.644216894728	162
3	700	1529.69120987728	163
3	705	1530.884829416085	164
3	706	1534.113320591202	165
3	707	1535.074185177025	166
3	713	1543.952064086205	167
3	714	1544.83271588299	168
3	732	1581.76181633029	169
3	733	1581.790221735295	170
3	734	1582.314403020984	171
3	735	1583.68713304258	172
3	739	1585.571247461976	173
3	740	1587.00625629794	174
3	741	1587.018622142277	175
3	742	1588.106411478211	176
3	752	1612.384518816141	177
3	758	1618.049373180704	178
3	761	1618.615146235357	179
3	762	1619.832675271171	180
3	765	1640.754451719537	181
3	775	1662.186726437078	182
3	776	1663.123057267343	183
3	779	1666.385897819662	184
3	780	1666.788874040505	185
3	783	1670.72402092932	186
3	793	1696.839826627414	187
3	794	1704.287732691867	188
3	795	1705.259042441738	189
3	798	1707.546345763975	190
3	807	1739.207777842543	191
3	835	1798.174110227853	192
3	838	1799.139805452197	193
3	839	1802.18745238191	194
3	840	1802.481738883931	195
3	841	1804.90134235363	196
3	842	1804.994992669767	197
3	846	1810.305857669232	198
3	849	1813.137881393143	199
3	854	1819.625333952702	200
3	857	1820.984948976001	201
3	858	1821.05521263942	202
3	868	1856.717954745297	203
3	869	1857.564053658228	204
3	870	1858.940880463651	205
3	875	1875.387805656658	206
3	876	1877.516114216283	207
3	881	1892.837605909337	208
3	882	1893.186446435743	209
3	894	1915.020878804247	210
3	897	1917.296799306925	211
3	913	1946.274614656237	212
3	916	1949.58214203708	213
3	919	1953.222606397382	214
3	922	1957.429727145316	215
3	923	1957.55453885838	216
3	924	1958.642873781055	217
3	956	2012.173213788648	218
3	957	2012.347423433171	219
3	958	2013.006469449926	220
3	963	2013.747026958215	221
3	964	2013.864629829695	222
3	972	2019.048568328871	223
3	973	2021.257894204827	224
3	981	2032.685994936294	225
3	982	2033.230863032543	226
3	983	2033.728705469915	227
3	984	2034.163953866038	228
3	985	2034.848632624226	229
3	986	2035.346912604803	230
3	987	2039.345273024474	231
3	990	2054.399978053393	232
3	998	2073.074840909518	233
3	999	2073.278725720455	234
3	1002	2085.471977947399	235
3	1005	2092.24976623416	236
3	1014	2127.044039772869	237
3	1026	2165.256728466405	238
3	1029	2181.575678888741	239
3	1032	2184.148342469225	240
3	1035	2193.546965100566	241
3	1041	2215.204479934624	242
3	1044	2217.659368537129	243
3	1050	2223.745656068499	244
3	1053	2228.683186036688	245
3	1056	2239.811659105684	246
3	1059	2245.090507283303	247
3	1062	2266.490373319217	248
3	1068	2280.522260115288	249
3	1080	2326.276222813369	250
3	1083	2335.722221937011	251
3	1086	2347.142357232691	252
3	1092	2357.915616746266	253
3	1095	2363.045963986285	254
3	1098	2381.077391084218	255
3	1101	2389.421360240477	256
3	1104	2408.848921560797	257
3	1107	2410.234052998872	258
3	1113	2413.952136346006	259
3	1116	2423.167453543938	260
3	1119	2443.220568631318	261
3	1122	2449.5170332978	262
3	1130	2461.61900534861	263
3	1131	2461.77667501361	264
3	1142	2482.318499839425	265
3	1143	2482.870782736882	266
4	132	356.036523613013	2.562203008208
4	138	362.734957740432	0.513307680488
4	141	390.658046155569	1.739123473814
4	144	392.99631356755	1.311316427496
4	147	395.008751372943	1.49530431852
4	150	398.045730476391	1.226798351408
4	153	411.767217939907	0.693979977786
4	160	423.191563052435	4.916462559694
4	161	424.343720027028	4.753831119966
4	162	424.692861907985	4.331349927194
4	165	431.698687135001	0.285219690583
4	174	443.446215471479	9.253723477846
4	177	445.704726604043	0.272170543202
4	180	448.998921916606	2.100865025354
4	183	457.800353261167	0.175592181449
4	186	464.355326662591	1.362914872137
4	192	478.323508890677	0.591460375701
4	195	480.027991058614	0.462330896158
4	203	510.32275823447	3.415581154365
4	206	516.170316158175	7.985605224679
4	207	517.362876868144	3.568225605415
4	210	524.709975632278	2.086894496678
4	213	526.118092197869	0.414362290238
4	216	527.21722477907	0.456524574138
4	219	529.749647661843	0.596253447078
4	225	536.695727030093	0.118995366265
4	233	545.448737625597	6.462527211216
4	234	546.330252857334	4.190656113469
4	239	551.920826654302	2.378366769411
4	246	555.630002532433	3.774927565457
4	247	556.614276372248	3.650126157388
4	252	559.974979312257	4.682181290782
4	253	561.262670265169	5.732470372892
4	254	561.694629891436	4.308051574269
4	255	563.032444146218	4.450895055424
4	258	566.197627490161	1.523536975997
4	265	569.395413941217	2.398472700832
4	266	569.63083444065	2.432102081343
4	267	571.889287514642	4.083212354001
4	276	605.634013110998	6.26578601879
4	286	629.085714707935	19.468540994058
4	287	629.146917391351	10.381717347875
4	288	630.220698412657	2.10924771292
4	297	649.144539417739	5.165678772947
4	303	671.913992272191	1.152953465651
4	308	678.136164729831	4.354972310332
4	309	678.42149332302	1.397376610685
4	320	694.616682709132	14.057941563412
4	323	696.306020310687	6.199372050613
4	324	698.3663588017	2.533348803175
4	327	710.041903601489	3.581528397814
4	330	710.457630116664	0.268442923688
4	333	715.181426614351	1.150148619526
4	341	747.459484349103	0.898749697163
4	342	747.764901826851	0.429555745633
4	345	756.673874447523	4.166409245905
4	348	764.855559268638	0.143708760061
4	357	779.582415017817	0.190048188051
4	392	831.756266347072	33.029090817073
4	393	832.046311217706	26.300325024238
4	394	834.657770914588	25.28095678498
4	395	835.627159485038	21.281538955359
4	396	835.883734536172	18.940306154714
4	397	837.623506552828	17.421646434068
4	400	839.235905105641	15.583617542604
4	401	840.369587127658	16.517245294016
4	402	840.514247963414	1.54864965304
4	410	856.978582749404	7.312734203049
4	411	861.427648427076	6.227502980066
4	424	880.158389733549	5.220116871934
4	427	880.309405915163	4.66723517288
4	428	881.650167263656	2.733774662093
4	429	882.491791863099	2.297048733722
4	439	916.949445189936	8.646780500519
4	442	918.428709530837	5.548590799602
4	443	919.490529874552	5.336516352643
4	448	921.697727411403	3.476273909309
4	449	923.269656881645	2.802916514118
4	450	924.231193615631	2.961576358289
4	453	929.250976286369	0.980587426222
4	456	941.261511719329	0.492082053992
4	461	949.336174132199	2.398785587748
4	462	949.764496688834	1.386437606622
4	465	962.46701933431	1.190593862328
4	468	969.011477851065	0.154305874599
4	474	987.092437703802	1.454514854633
4	480	992.400430779122	2.107031011707
4	483	994.979524659827	0.148680363009
4	494	1017.349615433423	10.539984559681
4	495	1017.462541276476	8.88561611823
4	508	1039.447794539379	12.066853843402
4	511	1039.998064338609	7.960935192732
4	512	1040.070914449913	1.83507698057
4	513	1041.358933662256	1.69850917467
4	516	1045.782534180448	1.448006560529
4	525	1072.257705790036	2.463628642577
4	530	1103.184359272251	10.754918729074
4	533	1107.607063409373	8.001049143538
4	536	1109.674686141626	2.68612579938
4	537	1114.715475952073	6.702496101669
4	549	1137.301134266231	1.160135632499
4	560	1159.903529965728	2.353161699533
4	561	1160.729176132965	3.117961607007
4	564	1163.504402588913	0.619597781133
4	567	1166.813714481258	0.029691250266
4	573	1201.458707285238	0.260343725982
4	578	1236.527391104723	2.532915953319
4	579	1236.534480797856	1.896225014868
4	582	1245.358885480714	0.151384176433
4	587	1253.246881213383	0.959409742032
4	588	1253.403544250886	0.445234878155
4	591	1257.287138918777	1.74283836809
4	594	1258.099540072316	0.39733502188
4	597	1274.209366631269	0.634259483553
4	600	1282.699959516705	0.699802040412
4	606	1310.547062628479	2.504305095001
4	609	1322.608583487118	0.166155596845
4	612	1355.545173927716	1.095132628501
4	615	1361.270805756329	1.462138617425
4	618	1366.127910275064	0.56084985702
4	621	1380.154882619632	0.627048111318
4	624	1391.49823148588	3.154843916819
4	632	1401.056253455208	5.068604691344
4	633	1401.412802320561	4.208987557987
4	639	1406.627279011575	0.894688909725
4	642	1412.499647821087	4.904183835277
4	645	1421.920065883223	0.867646110235
4	694	1511.981648699147	46.316350072651
4	695	1512.550601118163	29.409963096813
4	699	1529.644216894728	39.432624938769
4	700	1529.69120987728	37.215509646257
4	705	1530.884829416085	37.283935920619
4	706	1534.113320591202	37.493071908655
4	707	1535.074185177025	35.823175559343
4	713	1543.952064086205	40.397036598913
4	714	1544.83271588299	40.9900014901
4	732	1581.76181633029	67.936916256963
4	733	1581.790221735295	51.498612800578
4	734	1582.314403020984	51.929477740621
4	735	1583.68713304258	48.071609883451
4	739	1585.571247461976	40.735813893537
4	740	1587.00625629794	33.844215538863
4	741	1587.018622142277	16.881541861468
4	742	1588.106411478211	14.831634512048
4	752	1612.384518816141	28.215572667615
4	758	1618.049373180704	5.630187725941
4	761	1618.615146235357	1.165105368287
4	762	1619.832675271171	1.633218702921
4	765	1640.754451719537	1.189698996004
4	775	1662.186726437078	2.607046092894
4	776	1663.123057267343	2.03878880294
4	779	1666.385897819662	4.564988690004
4	780	1666.788874040505	2.562276372587
4	783	1670.72402092932	0.06801975937
4	793	1696.839826627414	4.106804716013
4	794	1704.287732691867	11.165571753299
4	795	1705.259042441738	8.467007612225
4	798	1707.546345763975	0.970312166891
4	807	1739.207777842543	1.623026379725
4	835	1798.174110227853	35.287657820443
4	838	1799.139805452197	34.613524156687
4	839	1802.18745238191	30.841678696229
4	840	1802.481738883931	19.641539745026
4	841	1804.90134235363	17.801968641455
4	842	1804.994992669767	14.520923270432
4	846	1810.305857669232	4.592601382528
4	849	1813.137881393143	2.066197613466
4	854	1819.625333952702	3.92728276814
4	857	1820.984948976001	2.791319053873
4	858	1821.05521263942	1.127256517634
4	868	1856.717954745297	15.184600927247
4	869	1857.564053658228	8.738331465105
4	870	1858.940880463651	7.137239016132
4	875	1875.387805656658	3.791714663294
4	876	1877.516114216283	4.476302980139
4	881	1892.837605909337	4.20091579141
4	882	1893.186446435743	3.466232133773
4	894	1915.020878804247	6.952446162815
4	897	1917.296799306925	0.184500554812
4	913	1946.274614656237	17.72574627459
4	916	1949.58214203708	6.379969983012
4	919	1953.222606397382	9.369156328736
4	922	1957.429727145316	9.937869376545
4	923	1957.55453885838	5.296998806715
4	924	1958.642873781055	4.748329795276
4	956	2012.173213788648	44.781329770183
4	957	2012.347423433171	43.394344591285
4	958	2013.006469449926	37.253417370184
4	963	2013.747026958215	33.071814374482
4	964	2013.864629829695	29.429709208931
4	972	2019.048568328871	22.00937877969
4	973	2021.257894204827	14.582843626276
4	981	2032.685994936294	18.973781285606
4	982	2033.230863032543	19.268143546447
4	983	2033.728705469915	17.156854352317
4	984	2034.163953866038	16.730380238566
4	985	2034.848632624226	13.470954353983
4	986	2035.346912604803	13.444615803027
4	987	2039.345273024474	7.593316952948
4	990	2054.399978053393	2.157827703832
4	998	2073.074840909518	12.56161607283
4	999	2073.278725720455	12.207678450818
4	1002	2085.471977947399	0.291980244126
4	1005	2092.24976623416	5.049506376244
4	1014	2127.044039772869	2.19799293486
4	1026	2165.256728466405	17.176272769502
4	1029	2181.575678888741	0.495180754119
4	1032	2184.148342469225	1.309204166967
4	1035	2193.546965100566	1.902167349988
4	1041	2215.204479934624	1.3701014303
4	1044	2217.659368537129	0.779881905043
4	1050	2223.745656068499	2.669171783587
4	1053	2228.683186036688	3.034186253054
4	1056	2239.811659105684	2.888062175886
4	1059	2245.090507283303	1.445736876384
4	1062	2266.490373319217	0.5465266311
4	1068	2280.522260115288	1.681010075008
4	1080	2326.276222813369	1.074658516209
4	1083	2335.722221937011	0.488689003366
4	1086	2347.142357232691	1.701570189139
4	1092	2357.915616746266	0.334781373806
4	1095	2363.045963986285	0.3731005838
4	1098	2381.077391084218	0.58156458268
4	1101	2389.421360240477	2.200554142407
4	1104	2408.848921560797	0.306612978196
4	1107	2410.234052998872	0.007727349367
4	1113	2413.952136346006	0.311902784554
4	1116	2423.167453543938	1.205628836813
4	1119	2443.220568631318	3.393843264774
4	1122	2449.5170332978	0.550107811786
4	1130	2461.61900534861	4.319165931092
4	1131	2461.77667501361	0.487436819497
4	1142	2482.318499839425	9.148301446612
4	1143	2482.870782736882	1.811721161568
5	134	360.864535828211	1
5	169	434.192491993633	1
5	171	434.455210291892	2
5	188	473.418125660566	1
5	197	494.985859456131	1
5	221	533.662990720296	1
5	227	537.630898853706	1
5	269	576.885520165288	1
5	272	599.284869783182	1
5	278	607.970771654433	1
5	290	634.887930512541	1
5	293	639.653880988209	1
5	299	649.417160232028	1
5	311	679.740153657803	1
5	315	683.74995469966	2
5	335	729.684251164739	1
5	350	765.453022773889	1
5	353	766.43135895336	1
5	359	788.973306370394	1
5	362	791.930488403228	1
5	365	795.155632926391	1
5	369	799.035351057598	2
5	371	800.178837360028	3
5	373	800.927631421423	4
5	404	849.464980582621	1
5	413	863.752104327907	1
5	416	872.270806368218	1
5	431	901.411980052073	1
5	470	974.77567001264	1
5	476	988.037285371389	1
5	485	1006.593199994784	1
5	491	1011.297870756273	2
5	501	1027.380940695977	1
5	506	1038.235837469343	1
5	518	1051.854654596607	1
5	521	1068.457324359042	1
5	539	1115.114581022403	1
5	542	1125.050224164863	1
5	545	1131.588456756517	1
5	551	1145.997290192829	1
5	554	1155.655865416976	1
5	569	1179.480158523593	1
5	602	1287.669619001015	1
5	630	1397.203814762574	1
5	635	1403.471787420916	1
5	647	1422.174667731178	1
5	649	1425.541955577038	2
5	653	1459.809802668981	1
5	656	1463.472783701677	1
5	660	1468.258265090104	2
5	662	1477.030327765908	3
5	668	1483.733119445775	2
5	685	1502.192571971784	2
5	697	1513.824900073327	1
5	709	1535.615523159129	1
5	716	1544.835433568439	1
5	718	1552.405657681915	2
5	722	1554.423249520396	3
5	737	1584.168946148526	1
5	744	1590.380435773746	1
5	746	1596.202799076679	2
5	748	1601.028906960768	3
5	754	1612.419185454763	1
5	767	1646.052593848569	1
5	785	1672.645983898138	1
5	800	1725.173569549517	1
5	803	1734.285532893839	1
5	809	1746.894718634036	1
5	811	1752.682965373174	2
5	813	1753.420297938543	3
5	815	1756.356175216809	4
5	824	1776.492643095432	4
5	844	1805.713256286704	1
5	860	1840.228471909046	1
5	884	1896.387871278477	1
5	886	1902.845844547256	2
5	888	1905.171414237391	3
5	899	1920.059414409871	1
5	901	1923.446138582809	2
5	904	1927.44617853084	2
5	926	1965.473024415792	1
5	932	1974.610237799757	2
5	936	1978.257315432963	3
5	946	1992.92582265826	2
5	948	1995.832788322231	3
5	966	2013.962719486096	1
5	977	2021.902296801776	1
5	992	2056.852604836569	1
5	1007	2119.077779893969	1
5	1009	2119.880416731758	2
5	1016	2127.915740897932	1
5	1021	2148.080455696903	1
5	1023	2150.521770546261	2
5	1037	2193.689164674927	1
5	1046	2219.878277341564	1
5	1064	2272.375387945966	1
5	1070	2299.072206357407	1
5	1073	2314.179784942103	1
5	1076	2323.85327808203	1
5	1088	2352.473961820584	1
5	1109	2410.291790491198	1
5	1124	2457.099948359269	1
5	1133	2464.026288258992	1
5	1135	2465.224727782946	2
5	1145	2497.285207450237	1
6	134	360.864535828211	0
6	135	360.960404813056	0
6	169	434.192491993633	0
6	171	434.455210291892	1
6	172	436.521258086064	1
6	173	443.033807034377	0
6	188	473.418125660566	0
6	189	473.652250717998	0
6	197	494.985859456131	0
6	198	497.4690751779	0
6	221	533.662990720296	0
6	222	535.230158881053	0
6	227	537.630898853706	0
6	232	544.115255814613	0
6	269	576.885520165288	0
6	270	581.921996189365	0
6	272	599.284869783182	0
6	275	603.633821649329	0
6	278	607.970771654433	0
6	283	627.437882834096	0
6	290	634.887930512541	0
6	291	637.460155404488	0
6	293	639.653880988209	0
6	296	646.313700962368	0
6	299	649.417160232028	0
6	300	649.728509607805	0
6	311	679.740153657803	0
6	315	683.74995469966	1
6	316	686.740461745448	1
6	319	693.641507836914	0
6	335	729.684251164739	0
6	336	730.89519014161	0
6	350	765.453022773889	0
6	351	766.212187334487	0
6	353	766.43135895336	0
6	354	770.19767834622	0
6	359	788.973306370394	0
6	360	790.223363982049	0
6	362	791.930488403228	0
6	363	793.222732821078	0
6	365	795.155632926391	0
6	369	799.035351057598	1
6	371	800.178837360028	2
6	373	800.927631421423	3
6	374	802.998824087681	3
6	379	811.573956958766	2
6	386	821.104241215095	1
6	391	830.486614478499	0
6	404	849.464980582621	0
6	409	856.710575372553	0
6	413	863.752104327907	0
6	414	864.533908911123	0
6	416	872.270806368218	0
6	423	879.578439368565	0
6	431	901.411980052073	0
6	438	915.728459139578	0
6	470	974.77567001264	0
6	471	974.998730398787	0
6	476	988.037285371389	0
6	477	988.552803205039	0
6	485	1006.593199994784	0
6	491	1011.297870756273	1
6	492	1011.848852035144	1
6	493	1016.232315203856	0
6	501	1027.380940695977	0
6	504	1033.051672327952	0
6	506	1038.235837469343	0
6	507	1038.704512800207	0
6	518	1051.854654596607	0
6	519	1052.428634451054	0
6	521	1068.457324359042	0
6	524	1071.851374922328	0
6	539	1115.114581022403	0
6	540	1117.283633227862	0
6	542	1125.050224164863	0
6	543	1127.724082527064	0
6	545	1131.588456756517	0
6	546	1134.727211096884	0
6	551	1145.997290192829	0
6	552	1149.686330772087	0
6	554	1155.655865416976	0
6	557	1157.60173230721	0
6	569	1179.480158523593	0
6	570	1183.012828616931	0
6	602	1287.669619001015	0
6	603	1289.808680087619	0
6	630	1397.203814762574	0
6	631	1398.844838926474	0
6	635	1403.471787420916	0
6	636	1405.620668199678	0
6	647	1422.174667731178	0
6	649	1425.541955577038	1
6	650	1452.34482471344	1
6	651	1454.147378982897	0
6	653	1459.809802668981	0
6	654	1462.479022691551	0
6	656	1463.472783701677	0
6	660	1468.258265090104	1
6	662	1477.030327765908	2
6	663	1477.537227592166	2
6	664	1480.63422439507	1
6	668	1483.733119445775	1
6	677	1494.403558450165	1
6	685	1502.192571971784	1
6	692	1508.05870806561	1
6	693	1510.737292290228	0
6	697	1513.824900073327	0
6	698	1528.706469024655	0
6	709	1535.615523159129	0
6	712	1539.338080846777	0
6	716	1544.835433568439	0
6	718	1552.405657681915	1
6	722	1554.423249520396	2
6	723	1563.328687751464	2
6	726	1572.018758108267	1
6	729	1576.116069842217	0
6	737	1584.168946148526	0
6	738	1584.598384758873	0
6	744	1590.380435773746	0
6	746	1596.202799076679	1
6	748	1601.028906960768	2
6	749	1602.932869039367	2
6	750	1606.310454118796	1
6	751	1610.470573299951	0
6	754	1612.419185454763	0
6	757	1618.008091846784	0
6	767	1646.052593848569	0
6	768	1651.127254557966	0
6	785	1672.645983898138	0
6	786	1675.621599318056	0
6	800	1725.173569549517	0
6	801	1731.99982315425	0
6	803	1734.285532893839	0
6	804	1735.060451552071	0
6	809	1746.894718634036	0
6	811	1752.682965373174	1
6	813	1753.420297938543	2
6	815	1756.356175216809	3
6	820	1770.768731710775	3
6	824	1776.492643095432	3
6	825	1781.109207745361	3
6	828	1783.289927214564	2
6	833	1791.08664093462	1
6	834	1797.484497544998	0
6	844	1805.713256286704	0
6	845	1808.300204492734	0
6	860	1840.228471909046	0
6	867	1855.327635715628	0
6	884	1896.387871278477	0
6	886	1902.845844547256	1
6	888	1905.171414237391	2
6	889	1905.950457026085	2
6	890	1906.215400346708	1
6	893	1912.749243039775	0
6	899	1920.059414409871	0
6	901	1923.446138582809	1
6	902	1924.389628500887	1
6	904	1927.44617853084	1
6	907	1939.367290267559	1
6	912	1945.956120707628	0
6	926	1965.473024415792	0
6	932	1974.610237799757	1
6	936	1978.257315432963	2
6	943	1990.520889508065	2
6	944	1992.26627847597	1
6	946	1992.92582265826	1
6	948	1995.832788322231	2
6	951	1997.10900969489	2
6	954	2009.789531312575	1
6	955	2010.020502010069	0
6	966	2013.962719486096	0
6	967	2016.420490219931	0
6	977	2021.902296801776	0
6	980	2032.238776455032	0
6	992	2056.852604836569	0
6	997	2072.360468238404	0
6	1007	2119.077779893969	0
6	1009	2119.880416731758	1
6	1010	2121.352850798624	1
6	1013	2126.65268920429	0
6	1016	2127.915740897932	0
6	1017	2129.577666861513	0
6	1021	2148.080455696903	0
6	1023	2150.521770546261	1
6	1024	2154.255558073023	1
6	1025	2164.171248786657	0
6	1037	2193.689164674927	0
6	1038	2194.200911225524	0
6	1046	2219.878277341564	0
6	1049	2223.367398553434	0
6	1064	2272.375387945966	0
6	1067	2279.340606701754	0
6	1070	2299.072206357407	0
6	1071	2301.197252857333	0
6	1073	2314.179784942103	0
6	1074	2316.6106647259	0
6	1076	2323.85327808203	0
6	1077	2324.438741159803	0
6	1088	2352.473961820584	0
6	1089	2353.126756604783	0
6	1109	2410.291790491198	0
6	1110	2411.217109101732	0
6	1124	2457.099948359269	0
6	1127	2460.250422800391	0
6	1133	2464.026288258992	0
6	1135	2465.224727782946	1
6	1136	2471.312910086949	1
6	1139	2480.052809718359	0
6	1145	2497.285207450237	0
6	1146	2497.927839584605	0
7	134	360.864535828211	0
7	169	434.192491993633	0
7	172	436.521258086064	2.066047794172
7	188	473.418125660566	0
7	197	494.985859456131	0
7	221	533.662990720296	0
7	227	537.630898853706	0
7	269	576.885520165288	0
7	272	599.284869783182	0
7	278	607.970771654433	0
7	290	634.887930512541	0
7	293	639.653880988209	0
7	299	649.417160232028	0
7	311	679.740153657803	0
7	316	686.740461745448	2.990507045788
7	335	729.684251164739	0
7	350	765.453022773889	0
7	353	766.43135895336	0
7	359	788.973306370394	0
7	362	791.930488403228	0
7	365	795.155632926391	0
7	374	802.998824087681	3.963473030083
7	379	811.573956958766	11.395119598738
7	386	821.104241215095	20.176609793672
7	404	849.464980582621	0
7	413	863.752104327907	0
7	416	872.270806368218	0
7	431	901.411980052073	0
7	470	974.77567001264	0
7	476	988.037285371389	0
7	485	1006.593199994784	0
7	492	1011.848852035144	0.550981278871
7	501	1027.380940695977	0
7	506	1038.235837469343	0
7	518	1051.854654596607	0
7	521	1068.457324359042	0
7	539	1115.114581022403	0
7	542	1125.050224164863	0
7	545	1131.588456756517	0
7	551	1145.997290192829	0
7	554	1155.655865416976	0
7	569	1179.480158523593	0
7	602	1287.669619001015	0
7	630	1397.203814762574	0
7	635	1403.471787420916	0
7	647	1422.174667731178	0
7	650	1452.34482471344	26.802869136402
7	653	1459.809802668981	0
7	656	1463.472783701677	0
7	663	1477.537227592166	9.278962502062
7	664	1480.63422439507	3.603896629162
7	677	1494.403558450165	10.67043900439
7	692	1508.05870806561	5.866136093826
7	697	1513.824900073327	0
7	709	1535.615523159129	0
7	716	1544.835433568439	0
7	723	1563.328687751464	10.923030069549
7	726	1572.018758108267	17.595508587871
7	737	1584.168946148526	0
7	744	1590.380435773746	0
7	749	1602.932869039367	6.730069962688
7	750	1606.310454118796	5.281547158028
7	754	1612.419185454763	0
7	767	1646.052593848569	0
7	785	1672.645983898138	0
7	800	1725.173569549517	0
7	803	1734.285532893839	0
7	809	1746.894718634036	0
7	820	1770.768731710775	18.085766337601
7	825	1781.109207745361	27.688909806818
7	828	1783.289927214564	26.933751997755
7	833	1791.08664093462	14.593997839188
7	844	1805.713256286704	0
7	860	1840.228471909046	0
7	884	1896.387871278477	0
7	889	1905.950457026085	3.104612478829
7	890	1906.215400346708	1.043986109317
7	899	1920.059414409871	0
7	902	1924.389628500887	0.943489918078
7	907	1939.367290267559	11.921111736719
7	926	1965.473024415792	0
7	943	1990.520889508065	15.910651708308
7	944	1992.26627847597	14.008963043007
7	951	1997.10900969489	4.18318703663
7	954	2009.789531312575	13.956742990344
7	966	2013.962719486096	0
7	977	2021.902296801776	0
7	992	2056.852604836569	0
7	1007	2119.077779893969	0
7	1010	2121.352850798624	1.472434066866
7	1016	2127.915740897932	0
7	1021	2148.080455696903	0
7	1024	2154.255558073023	3.733787526762
7	1037	2193.689164674927	0
7	1046	2219.878277341564	0
7	1064	2272.375387945966	0
7	1070	2299.072206357407	0
7	1073	2314.179784942103	0
7	1076	2323.85327808203	0
7	1088	2352.473961820584	0
7	1109	2410.291790491198	0
7	1124	2457.099948359269	0
7	1133	2464.026288258992	0
7	1136	2471.312910086949	6.088182304003
7	1145	2497.285207450237	0
8	135	360.960404813056	12
8	172	436.521258086064	13
8	173	443.033807034377	14
8	189	473.652250717998	15
8	198	497.4690751779	16
8	222	535.230158881053	17
8	232	544.115255814613	18
8	270	581.921996189365	19
8	275	603.633821649329	20
8	283	627.437882834096	21
8	291	637.460155404488	22
8	296	646.313700962368	23
8	300	649.728509607805	24
8	316	686.740461745448	25
8	319	693.641507836914	26
8	336	730.89519014161	27
8	351	766.212187334487	28
8	354	770.19767834622	29
8	360	790.223363982049	30
8	363	793.222732821078	31
8	374	802.998824087681	32
8	379	811.573956958766	33
8	386	821.104241215095	34
8	391	830.486614478499	35
8	409	856.710575372553	36
8	414	864.533908911123	37
8	423	879.578439368565	38
8	438	915.728459139578	39
8	471	974.998730398787	40
8	477	988.552803205039	41
8	492	1011.848852035144	42
8	493	1016.232315203856	43
8	504	1033.051672327952	44
8	507	1038.704512800207	45
8	519	1052.428634451054	46
8	524	1071.851374922328	47
8	540	1117.283633227862	48
8	543	1127.724082527064	49
8	546	1134.727211096884	50
8	552	1149.686330772087	51
8	557	1157.60173230721	52
8	570	1183.012828616931	53
8	603	1289.808680087619	54
8	631	1398.844838926474	55
8	636	1405.620668199678	56
8	650	1452.34482471344	57
8	651	1454.147378982897	58
8	654	1462.479022691551	59
8	663	1477.537227592166	60
8	664	1480.63422439507	61
8	677	1494.403558450165	62
8	692	1508.05870806561	63
8	693	1510.737292290228	64
8	698	1528.706469024655	65
8	712	1539.338080846777	66
8	723	1563.328687751464	67
8	726	1572.018758108267	68
8	729	1576.116069842217	69
8	738	1584.598384758873	70
8	749	1602.932869039367	71
8	750	1606.310454118796	72
8	751	1610.470573299951	73
8	757	1618.008091846784	74
8	768	1651.127254557966	75
8	786	1675.621599318056	76
8	801	1731.99982315425	77
8	804	1735.060451552071	78
8	820	1770.768731710775	79
8	825	1781.109207745361	80
8	828	1783.289927214564	81
8	833	1791.08664093462	82
8	834	1797.484497544998	83
8	845	1808.300204492734	84
8	867	1855.327635715628	85
8	889	1905.950457026085	86
8	890	1906.215400346708	87
8	893	1912.749243039775	88
8	902	1924.389628500887	89
8	907	1939.367290267559	90
8	912	1945.956120707628	91
8	943	1990.520889508065	92
8	944	1992.26627847597	93
8	951	1997.10900969489	94
8	954	2009.789531312575	95
8	955	2010.020502010069	96
8	967	2016.420490219931	97
8	980	2032.238776455032	98
8	997	2072.360468238404	99
8	1010	2121.352850798624	100
8	1013	2126.65268920429	101
8	1017	2129.577666861513	102
8	1024	2154.255558073023	103
8	1025	2164.171248786657	104
8	1038	2194.200911225524	105
8	1049	2223.367398553434	106
8	1067	2279.340606701754	107
8	1071	2301.197252857333	108
8	1074	2316.6106647259	109
8	1077	2324.438741159803	110
8	1089	2353.126756604783	111
8	1110	2411.217109101732	112
8	1127	2460.250422800391	113
8	1136	2471.312910086949	114
8	1139	2480.052809718359	115
8	1146	2497.927839584605	116
9	135	360.960404813056	0.095868984845
9	172	436.521258086064	2.328766092431
9	173	443.033807034377	8.578596742485
9	189	473.652250717998	0.234125057432
9	198	497.4690751779	2.483215721769
9	222	535.230158881053	1.567168160757
9	232	544.115255814613	6.484356960907
9	270	581.921996189365	5.036476024077
9	275	603.633821649329	4.348951866147
9	283	627.437882834096	19.467111179663
9	291	637.460155404488	2.572224891947
9	296	646.313700962368	6.659819974159
9	300	649.728509607805	0.311349375777
9	316	686.740461745448	7.000308087645
9	319	693.641507836914	9.891553137254
9	336	730.89519014161	1.210938976871
9	351	766.212187334487	0.759164560598
9	354	770.19767834622	3.76631939286
9	360	790.223363982049	1.250057611655
9	363	793.222732821078	1.29224441785
9	374	802.998824087681	7.84319116129
9	379	811.573956958766	12.538605901168
9	386	821.104241215095	20.925403855067
9	391	830.486614478499	29.558983057076
9	409	856.710575372553	7.245594789932
9	414	864.533908911123	0.781804583216
9	423	879.578439368565	7.307633000347
9	438	915.728459139578	14.316479087505
9	471	974.998730398787	0.223060386147
9	477	988.552803205039	0.51551783365
9	492	1011.848852035144	5.25565204036
9	493	1016.232315203856	4.934444447583
9	504	1033.051672327952	5.670731631975
9	507	1038.704512800207	0.468675330864
9	519	1052.428634451054	0.573979854447
9	524	1071.851374922328	3.394050563286
9	540	1117.283633227862	2.169052205459
9	543	1127.724082527064	2.673858362201
9	546	1134.727211096884	3.138754340367
9	552	1149.686330772087	3.689040579258
9	557	1157.60173230721	1.945866890234
9	570	1183.012828616931	3.532670093338
9	603	1289.808680087619	2.139061086604
9	631	1398.844838926474	1.6410241639
9	636	1405.620668199678	2.148880778762
9	650	1452.34482471344	30.170156982262
9	651	1454.147378982897	28.605423405859
9	654	1462.479022691551	2.66922002257
9	663	1477.537227592166	14.064443890489
9	664	1480.63422439507	12.375959304966
9	677	1494.403558450165	17.373230684257
9	692	1508.05870806561	24.325588619835
9	693	1510.737292290228	8.544720318444
9	698	1528.706469024655	14.881568951328
9	712	1539.338080846777	3.722557687648
9	723	1563.328687751464	18.493254183025
9	726	1572.018758108267	19.613100426352
9	729	1576.116069842217	21.692820321821
9	738	1584.598384758873	0.429438610347
9	749	1602.932869039367	12.552433265621
9	750	1606.310454118796	10.107655042117
9	751	1610.470573299951	9.441666339183
9	757	1618.008091846784	5.588906392021
9	768	1651.127254557966	5.074660709397
9	786	1675.621599318056	2.975615419918
9	801	1731.99982315425	6.826253604733
9	804	1735.060451552071	0.774918658232
9	820	1770.768731710775	23.874013076739
9	825	1781.109207745361	28.426242372187
9	828	1783.289927214564	29.869629276021
9	833	1791.08664093462	34.730465717811
9	834	1797.484497544998	20.991854449566
9	845	1808.300204492734	2.58694820603
9	867	1855.327635715628	15.099163806582
9	889	1905.950457026085	9.562585747608
9	890	1906.215400346708	3.369555799452
9	893	1912.749243039775	7.577828802384
9	902	1924.389628500887	4.330214091016
9	907	1939.367290267559	15.92115168475
9	912	1945.956120707628	18.509942176788
9	943	1990.520889508065	25.047865092273
9	944	1992.26627847597	17.656040676213
9	951	1997.10900969489	18.851694261927
9	954	2009.789531312575	16.863708654315
9	955	2010.020502010069	14.187713687838
9	967	2016.420490219931	2.457770733835
9	980	2032.238776455032	10.336479653256
9	997	2072.360468238404	15.507863401835
9	1010	2121.352850798624	2.275070904655
9	1013	2126.65268920429	6.772272472532
9	1017	2129.577666861513	1.661925963581
9	1024	2154.255558073023	6.17510237612
9	1025	2164.171248786657	13.649478240396
9	1038	2194.200911225524	0.511746550597
9	1049	2223.367398553434	3.48912121187
9	1067	2279.340606701754	6.965218755788
9	1071	2301.197252857333	2.125046499926
9	1074	2316.6106647259	2.430879783797
9	1077	2324.438741159803	0.585463077773
9	1089	2353.126756604783	0.652794784199
9	1110	2411.217109101732	0.925318610534
9	1127	2460.250422800391	3.150474441122
9	1136	2471.312910086949	7.286621827957
9	1139	2480.052809718359	14.828081935413
9	1146	2497.927839584605	0.642632134368
10	169	434.192491993633	2
10	501	1027.380940695977	3
10	506	1038.235837469343	4
10	630	1397.203814762574	5
10	697	1513.824900073327	6
10	709	1535.615523159129	7
10	716	1544.835433568439	8
10	737	1584.168946148526	9
10	744	1590.380435773746	10
10	754	1612.419185454763	11
10	844	1805.713256286704	12
10	966	2013.962719486096	13
10	977	2021.902296801776	14
10	1021	2148.080455696903	15
11	1147	2500	0.1064
12	1147	2500	0.0464

