version 2
run experiments_easy_game_mode1-584-20230308-12:03:56-21329
attr configname experiments_easy_game_mode1
attr datetime 20230308-12:03:56
attr experiment experiments_easy_game_mode1
attr inifile omnetpp.ini
attr iterationvars "$0=5.5, $1=2.5, $2=100"
attr iterationvarsf 5.5,2.5,100-
attr measurement "$0=5.5, $1=2.5, $2=100"
attr network Network
attr processid 21329
attr repetition 14
attr replication #14
attr resultdir results
attr runnumber 584
attr seedset 14
param *.boss.arrival_mean 20
param *.boss.service_mean 5.5
param *.minion.arrival_mean 10
param *.minion.service_mean 2.5
param *.player.recover_rate_x 100
param **.minion.arrival_distribution 0
param **.minion.service_distribution 0
param **.boss.arrival_distribution 0
param **.boss.service_distribution 0

vector 0 Network.player boss_defeated_stat:vector ETV
attr source signal_boss_defeated
vector 1 Network.player boss_jobs_queue_number_stat:vector ETV
attr source signal_boss_jobs_queue_number
vector 2 Network.player boss_response_time_stat:vector ETV
attr source signal_boss_response_time
vector 3 Network.player minion_jobs_number_stat:vector ETV
attr source signal_minion_jobs_number
vector 4 Network.player minion_jobs_queue_number_stat:vector ETV
attr source signal_minion_jobs_queue_number
vector 5 Network.player minion_waiting_time_stat:vector ETV
attr source signal_minion_waiting_time
vector 6 Network.player minion_defeated_stat:vector ETV
attr source signal_minion_defeated
vector 7 Network.player minion_response_time_stat:vector ETV
attr source signal_minion_response_time
vector 8 Network.player boss_jobs_number_stat:vector ETV
attr source signal_boss_jobs_number
vector 9 Network.player boss_waiting_time_stat:vector ETV
attr source signal_boss_waiting_time
vector 10 Network.player minion_recovered_stat:vector ETV
attr source signal_minion_recovered
vector 11 Network.player minion_throughput:vector ETV
attr source signal_minion_throughput
vector 12 Network.player boss_throughput:vector ETV
attr source signal_boss_throughput
0	150	353.166053364655	15
0	158	361.353853708245	16
0	168	392.412616306505	17
0	173	406.072269405462	18
0	205	471.029681608628	19
0	209	475.695635782299	20
0	224	511.934867689784	21
0	234	559.243207946406	22
0	237	564.673804975619	23
0	253	620.740546706306	24
0	254	623.573451265191	25
0	264	672.546774486098	26
0	267	678.185774048898	27
0	272	686.424765681728	28
0	288	713.942715161854	29
0	302	759.428391658524	30
0	306	766.500393996105	31
0	309	785.594308163402	32
0	316	806.746290041993	33
0	331	821.680544933996	34
0	334	825.20349392967	35
0	339	839.680392170633	36
0	340	840.345156594053	37
0	350	857.081911397303	38
0	366	913.336947475372	39
0	371	922.936332868625	40
0	372	932.954398839058	41
0	377	938.893880917914	42
0	381	944.367043807744	43
0	399	1000.758496168778	44
0	411	1016.587752910225	45
0	417	1027.152706994834	46
0	434	1046.607779500986	47
0	467	1129.514406946932	48
0	472	1132.611538560433	49
0	476	1137.027805204047	50
0	485	1153.706421748734	51
0	490	1155.642653564044	52
0	512	1175.622883649608	53
0	531	1214.457302663461	54
0	536	1217.106544229435	55
0	545	1229.791803470457	56
0	554	1240.361763018699	57
0	560	1256.669835178087	58
0	561	1258.055685448553	59
0	569	1285.890188727099	60
0	572	1289.97093567288	61
0	582	1314.330426221613	62
0	583	1320.017050523669	63
0	591	1358.312932818355	64
0	600	1383.280814990852	65
0	601	1384.047525261687	66
0	604	1388.210207726935	67
0	611	1402.24216415374	68
0	614	1411.712224805554	69
0	624	1428.237508360267	70
0	625	1433.860075591167	71
0	628	1437.290677186667	72
0	647	1465.033697370863	73
0	659	1474.877254205219	74
0	666	1496.155402295674	75
0	669	1541.952620813502	76
0	674	1558.118476895429	77
0	683	1568.648424226793	78
0	701	1598.902661628254	79
0	705	1609.936129485991	80
0	708	1611.514176436754	81
0	731	1711.31499627826	82
0	740	1726.380708538442	83
0	741	1729.642769190628	84
0	747	1748.775179770516	85
0	750	1754.386150551374	86
0	757	1774.812112447005	87
0	760	1782.640205825551	88
0	767	1808.175898183521	89
0	773	1820.983583226185	90
0	781	1827.163736593228	91
0	791	1851.056748980436	92
0	809	1871.822239532095	93
0	817	1894.174964038891	94
0	827	1936.198276703846	95
0	832	1940.846987924169	96
0	848	1963.819895775482	97
0	849	1967.185893316531	98
0	866	2017.956764107414	99
0	893	2065.754174721836	100
0	912	2132.394858262209	101
0	924	2172.872888599821	102
0	925	2174.102849729515	103
0	926	2177.205422942629	104
0	966	2265.324904566198	105
0	985	2305.873766587215	106
0	988	2313.116351942691	107
0	1002	2346.231646803373	108
0	1005	2361.274983485988	109
0	1012	2367.351686254375	110
0	1013	2369.64553046393	111
0	1032	2417.002253284021	112
0	1041	2445.163180510552	113
0	1052	2467.082580146683	114
1	150	353.166053364655	0
1	155	357.206506079018	0
1	158	361.353853708245	0
1	167	391.047324288703	0
1	168	392.412616306505	0
1	170	395.908292557247	0
1	173	406.072269405462	0
1	202	465.277290456284	0
1	205	471.029681608628	0
1	208	475.393105182559	0
1	209	475.695635782299	0
1	221	506.499791779649	0
1	224	511.934867689784	0
1	233	552.180011467169	0
1	234	559.243207946406	0
1	236	561.762733894234	0
1	237	564.673804975619	0
1	248	615.348425057337	0
1	252	618.900269317537	1
1	253	620.740546706306	1
1	254	623.573451265191	0
1	263	659.041663215175	0
1	264	672.546774486098	0
1	266	674.896049565265	0
1	267	678.185774048898	0
1	269	682.19995766715	0
1	272	686.424765681728	0
1	287	712.477119971921	0
1	288	713.942715161854	0
1	301	758.572252174628	0
1	302	759.428391658524	0
1	305	765.706999917469	0
1	306	766.500393996105	0
1	308	784.978755077148	0
1	309	785.594308163402	0
1	315	806.137931290683	0
1	316	806.746290041993	0
1	324	814.592706334832	0
1	330	821.626426792798	1
1	331	821.680544933996	1
1	333	824.836198466085	1
1	334	825.20349392967	1
1	336	825.499667755023	1
1	339	839.680392170633	1
1	340	840.345156594053	0
1	349	852.060948218651	0
1	350	857.081911397303	0
1	365	911.483787810045	0
1	366	913.336947475372	0
1	368	917.070564889174	0
1	370	920.385567146477	1
1	371	922.936332868625	1
1	372	932.954398839058	0
1	376	935.754445185036	0
1	377	938.893880917914	0
1	380	942.293628006038	0
1	381	944.367043807744	0
1	398	999.060599541854	0
1	399	1000.758496168778	0
1	410	1016.150775054257	0
1	411	1016.587752910225	0
1	416	1022.394637542636	0
1	417	1027.152706994834	0
1	431	1038.538246586789	0
1	434	1046.607779500986	0
1	466	1129.314636342715	0
1	467	1129.514406946932	0
1	471	1130.970527845427	0
1	472	1132.611538560433	0
1	475	1135.120469468102	0
1	476	1137.027805204047	0
1	478	1138.721968208374	0
1	480	1140.538363023018	1
1	485	1153.706421748734	1
1	490	1155.642653564044	0
1	503	1166.545317567146	0
1	512	1175.622883649608	0
1	530	1212.235030563073	0
1	531	1214.457302663461	0
1	533	1214.859992130296	0
1	536	1217.106544229435	0
1	544	1227.485883194672	0
1	545	1229.791803470457	0
1	553	1236.643816917823	0
1	554	1240.361763018699	0
1	557	1245.185824588694	0
1	559	1245.473148778668	1
1	560	1256.669835178087	1
1	561	1258.055685448553	0
1	566	1272.319734415131	0
1	569	1285.890188727099	0
1	571	1286.83813706964	0
1	572	1289.97093567288	0
1	579	1305.235701771402	0
1	581	1310.732245537385	1
1	582	1314.330426221613	1
1	583	1320.017050523669	0
1	590	1351.241493944332	0
1	591	1358.312932818355	0
1	593	1365.328541869756	0
1	597	1375.741575967684	1
1	600	1383.280814990852	1
1	601	1384.047525261687	0
1	603	1385.026190838092	0
1	604	1388.210207726935	0
1	610	1399.267833290923	0
1	611	1402.24216415374	0
1	613	1408.531804252156	0
1	614	1411.712224805554	0
1	617	1416.866283432641	0
1	623	1427.924704791414	1
1	624	1428.237508360267	1
1	625	1433.860075591167	0
1	627	1434.313057492983	0
1	628	1437.290677186667	0
1	640	1451.59723784495	0
1	647	1465.033697370863	0
1	656	1473.378666856534	0
1	659	1474.877254205219	0
1	665	1491.689037357241	0
1	666	1496.155402295674	0
1	668	1538.272590616996	0
1	669	1541.952620813502	0
1	671	1553.901690264833	0
1	674	1558.118476895429	0
1	678	1558.54260141757	0
1	683	1568.648424226793	0
1	698	1595.681554309851	0
1	701	1598.902661628254	0
1	704	1603.998637226888	0
1	705	1609.936129485991	0
1	707	1610.690213821691	0
1	708	1611.514176436754	0
1	728	1706.356756001619	0
1	730	1708.08451424638	1
1	731	1711.31499627826	1
1	739	1721.710537312419	1
1	740	1726.380708538442	1
1	741	1729.642769190628	0
1	746	1743.189173685306	0
1	747	1748.775179770516	0
1	749	1753.349503705846	0
1	750	1754.386150551374	0
1	752	1758.340419657439	0
1	756	1770.084095394452	1
1	757	1774.812112447005	1
1	760	1782.640205825551	0
1	764	1804.85575399758	0
1	767	1808.175898183521	0
1	770	1814.320946502234	0
1	773	1820.983583226185	0
1	776	1824.452226560445	0
1	781	1827.163736593228	0
1	788	1844.071205200833	0
1	791	1851.056748980436	0
1	808	1866.574068671975	0
1	809	1871.822239532095	0
1	814	1882.268336137148	0
1	817	1894.174964038891	0
1	824	1930.068896973113	0
1	826	1932.893391889637	1
1	827	1936.198276703846	1
1	832	1940.846987924169	0
1	845	1955.889998953772	0
1	847	1959.222495235312	1
1	848	1963.819895775482	1
1	849	1967.185893316531	0
1	865	2015.913112375529	0
1	866	2017.956764107414	0
1	884	2059.313257916285	0
1	893	2065.754174721836	0
1	911	2130.479222310669	0
1	912	2132.394858262209	0
1	917	2152.854575283436	0
1	921	2170.102954966602	1
1	923	2172.239960610976	2
1	924	2172.872888599821	2
1	925	2174.102849729515	1
1	926	2177.205422942629	0
1	965	2263.481900039759	0
1	966	2265.324904566198	0
1	984	2300.279199629124	0
1	985	2305.873766587215	0
1	987	2306.50332956852	0
1	988	2313.116351942691	0
1	995	2330.823323660804	0
1	1002	2346.231646803373	0
1	1004	2347.179264871828	0
1	1005	2361.274983485988	0
1	1009	2366.470211685635	0
1	1011	2366.72911705343	1
1	1012	2367.351686254375	1
1	1013	2369.64553046393	0
1	1029	2410.9013658636	0
1	1032	2417.002253284021	0
1	1040	2438.53470917593	0
1	1041	2445.163180510552	0
1	1051	2464.141668652333	0
1	1052	2467.082580146683	0
2	150	353.166053364655	4.565374593088
2	158	361.353853708245	4.147347629227
2	168	392.412616306505	1.365292017802
2	173	406.072269405462	10.163976848215
2	205	471.029681608628	5.752391152344
2	209	475.695635782299	0.30253059974
2	224	511.934867689784	5.435075910135
2	234	559.243207946406	7.063196479237
2	237	564.673804975619	2.911071081385
2	253	620.740546706306	5.392121648969
2	254	623.573451265191	4.673181947654
2	264	672.546774486098	13.505111270923
2	267	678.185774048898	3.289724483633
2	272	686.424765681728	4.224808014578
2	288	713.942715161854	1.465595189933
2	302	759.428391658524	0.856139483896
2	306	766.500393996105	0.793394078636
2	309	785.594308163402	0.615553086254
2	316	806.746290041993	0.60835875131
2	331	821.680544933996	7.087838599164
2	334	825.20349392967	3.577067136872
2	339	839.680392170633	14.844193704548
2	340	840.345156594053	14.84548883903
2	350	857.081911397303	5.020963178652
2	366	913.336947475372	1.853159665327
2	371	922.936332868625	5.865767979451
2	372	932.954398839058	12.568831692581
2	377	938.893880917914	3.139435732878
2	381	944.367043807744	2.073415801706
2	399	1000.758496168778	1.697896626924
2	411	1016.587752910225	0.436977855968
2	417	1027.152706994834	4.758069452198
2	434	1046.607779500986	8.069532914197
2	467	1129.514406946932	0.199770604217
2	472	1132.611538560433	1.641010715006
2	476	1137.027805204047	1.907335735945
2	485	1153.706421748734	14.98445354036
2	490	1155.642653564044	15.104290541026
2	512	1175.622883649608	9.077566082462
2	531	1214.457302663461	2.222272100388
2	536	1217.106544229435	2.246552099139
2	545	1229.791803470457	2.305920275785
2	554	1240.361763018699	3.717946100876
2	560	1256.669835178087	11.484010589393
2	561	1258.055685448553	12.582536669885
2	569	1285.890188727099	13.570454311968
2	572	1289.97093567288	3.13279860324
2	582	1314.330426221613	9.094724450211
2	583	1320.017050523669	9.284804986284
2	591	1358.312932818355	7.071438874023
2	600	1383.280814990852	17.952273121096
2	601	1384.047525261687	8.305949294003
2	604	1388.210207726935	3.184016888843
2	611	1402.24216415374	2.974330862817
2	614	1411.712224805554	3.180420553398
2	624	1428.237508360267	11.371224927626
2	625	1433.860075591167	5.935370799753
2	628	1437.290677186667	2.977619693684
2	647	1465.033697370863	13.436459525913
2	659	1474.877254205219	1.498587348685
2	666	1496.155402295674	4.466364938433
2	669	1541.952620813502	3.680030196506
2	674	1558.118476895429	4.216786630596
2	683	1568.648424226793	10.105822809223
2	701	1598.902661628254	3.221107318403
2	705	1609.936129485991	5.937492259103
2	708	1611.514176436754	0.823962615063
2	731	1711.31499627826	4.958240276641
2	740	1726.380708538442	18.296194292062
2	741	1729.642769190628	7.932231878209
2	747	1748.775179770516	5.58600608521
2	750	1754.386150551374	1.036646845528
2	757	1774.812112447005	16.471692789566
2	760	1782.640205825551	12.556110431099
2	767	1808.175898183521	3.320144185941
2	773	1820.983583226185	6.662636723951
2	781	1827.163736593228	2.711510032783
2	791	1851.056748980436	6.985543779603
2	809	1871.822239532095	5.24817086012
2	817	1894.174964038891	11.906627901743
2	827	1936.198276703846	6.129379730733
2	832	1940.846987924169	7.953596034532
2	848	1963.819895775482	7.92989682171
2	849	1967.185893316531	7.963398081219
2	866	2017.956764107414	2.043651731885
2	893	2065.754174721836	6.440916805551
2	912	2132.394858262209	1.91563595154
2	924	2172.872888599821	20.018313316385
2	925	2174.102849729515	3.999894762913
2	926	2177.205422942629	4.965462331653
2	966	2265.324904566198	1.843004526439
2	985	2305.873766587215	5.594566958091
2	988	2313.116351942691	6.613022374171
2	1002	2346.231646803373	15.408323142569
2	1005	2361.274983485988	14.09571861416
2	1012	2367.351686254375	0.88147456874
2	1013	2369.64553046393	2.9164134105
2	1032	2417.002253284021	6.100887420421
2	1041	2445.163180510552	6.628471334622
2	1052	2467.082580146683	2.94091149435
3	152	355.033945535691	1
3	157	360.847648264445	1
3	160	365.819027899354	2
3	164	387.095718742011	1
3	172	398.088058073479	1
3	176	411.419678450139	1
3	178	413.093427385525	2
3	182	425.563623459991	1
3	185	437.666459119456	1
3	187	438.029696684342	2
3	190	447.815078122995	2
3	192	448.014362986578	3
3	197	460.719474807882	1
3	199	464.691421886986	2
3	204	468.31375369647	2
3	212	476.592355171942	1
3	215	480.99996210736	1
3	218	494.693038600887	1
3	223	510.591329069228	1
3	227	523.668671067401	1
3	230	527.598294093744	1
3	239	573.842969895357	1
3	242	578.455437527969	1
3	245	611.555413684417	1
3	250	615.939352714958	1
3	256	623.928771261495	2
3	260	640.673975379459	1
3	271	685.122935878473	1
3	274	687.110961404252	2
3	278	694.229259922791	1
3	281	701.444758777024	1
3	284	705.749087531437	1
3	290	725.2216939068	1
3	293	752.004625109296	1
3	296	755.485935073437	1
3	299	757.769784631013	1
3	311	800.144084995374	1
3	313	805.271801913546	2
3	318	807.820099495089	3
3	322	814.210414154197	2
3	326	816.643396720179	3
3	328	818.126394379828	4
3	338	834.316834260483	5
3	344	847.234050476089	4
3	346	851.786460812176	5
3	352	860.598996821791	5
3	359	894.948001405393	1
3	362	896.650259971945	1
3	374	934.819959063106	1
3	383	950.241304898061	1
3	386	958.062632827699	1
3	389	959.86991923007	1
3	392	976.77582752251	1
3	395	990.414800602808	1
3	401	1002.459897149837	1
3	404	1005.460868939708	1
3	406	1006.451086213564	2
3	413	1020.40415877667	1
3	419	1030.872134027189	1
3	421	1032.252396590645	2
3	423	1033.053287518108	3
3	425	1033.310784231591	4
3	427	1033.610600588183	5
3	429	1035.553503453612	6
3	433	1041.240048900413	7
3	443	1075.493779429228	1
3	446	1082.115014041595	1
3	449	1085.432242173332	1
3	452	1092.014265008028	1
3	455	1109.518560920317	1
3	458	1114.688937990352	1
3	460	1119.343587080697	2
3	462	1124.314779321839	3
3	469	1130.644362471608	2
3	482	1143.781660615884	2
3	484	1145.868995392401	3
3	487	1153.73048230477	4
3	489	1155.387906672459	5
3	494	1160.734199300354	4
3	496	1160.750637223976	5
3	498	1161.396249084582	6
3	505	1167.5326024227	4
3	507	1167.598052850385	5
3	509	1167.993915492425	6
3	511	1173.20143576488	7
3	517	1186.418747567496	5
3	521	1189.947228181589	4
3	525	1201.319841001969	3
3	535	1216.520669937629	1
3	538	1218.100005335566	2
3	542	1226.703128561465	1
3	548	1234.366186994145	1
3	551	1236.615598461658	1
3	563	1269.362910494722	1
3	568	1283.054924494812	1
3	574	1296.441175643018	2
3	576	1297.069316463925	3
3	586	1324.647391818103	2
3	595	1374.056657797941	1
3	599	1378.022606618429	2
3	608	1398.933525870826	1
3	619	1417.818834180346	1
3	621	1418.731874372363	2
3	632	1439.388948369657	1
3	635	1447.509081999705	1
3	638	1449.142914548495	1
3	642	1456.225271383588	2
3	644	1456.400941635302	3
3	646	1461.965053672528	4
3	651	1467.67103100862	3
3	658	1474.515807855272	1
3	662	1479.677835639554	1
3	673	1554.358948512642	1
3	676	1558.420695990465	2
3	680	1562.464946648262	3
3	682	1562.828090074808	4
3	688	1572.194378599458	2
3	692	1574.705130952569	1
3	695	1594.176936871932	1
3	700	1598.708315021286	1
3	710	1613.903273049395	1
3	713	1621.40366481471	1
3	716	1630.241630788371	1
3	719	1644.260086479798	1
3	722	1669.832094513945	1
3	725	1681.611071161843	1
3	733	1713.472986293194	1
3	735	1714.640646851212	2
3	737	1721.30860318063	3
3	754	1766.226882172695	1
3	759	1779.98537330806	2
3	766	1807.823965274978	1
3	772	1819.60630046076	1
3	778	1826.548979276419	1
3	780	1826.651877243888	2
3	785	1838.134966215622	1
3	790	1847.293015477357	1
3	794	1853.976238258592	1
3	796	1855.10675154571	2
3	798	1857.631578485873	3
3	803	1860.606685251931	1
3	806	1865.691340515226	1
3	812	1880.814585492101	1
3	816	1887.931572451922	2
3	820	1903.497259501524	2
3	829	1937.445960383169	1
3	831	1938.859698529189	2
3	834	1941.176329864383	3
3	836	1943.536124637245	4
3	840	1950.784732485768	3
3	851	1967.794394560158	1
3	854	1976.287166789391	1
3	857	1985.897270703852	1
3	860	2007.719498988818	1
3	863	2010.177268959809	1
3	868	2021.901711754506	2
3	872	2031.30342569397	1
3	875	2037.136179608095	1
3	877	2040.809530510809	2
3	881	2053.674137517185	1
3	886	2059.816619114803	1
3	888	2060.448777503511	2
3	890	2063.058595777536	3
3	892	2063.394189174223	4
3	897	2072.07663982243	3
3	900	2072.759239173926	3
3	904	2083.275534212787	2
3	908	2122.161339140629	1
3	914	2140.78073805428	1
3	919	2163.337331253465	1
3	928	2177.74862608756	2
3	932	2189.633811910056	1
3	935	2193.770199773401	1
3	937	2194.819181776313	2
3	939	2195.465914992879	3
3	944	2211.311766695371	1
3	947	2215.304386083665	1
3	950	2226.004219507096	1
3	953	2251.224778920485	1
3	956	2254.497456116578	1
3	959	2256.847869803007	1
3	962	2257.714496912013	1
3	968	2273.201925482636	1
3	971	2280.192910292888	1
3	974	2284.721547061188	1
3	977	2287.575491926138	1
3	979	2287.868131191911	2
3	981	2296.617862611394	3
3	992	2325.974203586855	1
3	997	2334.310906074741	1
3	999	2334.384825843069	2
3	1001	2343.657463510586	3
3	1007	2365.52260337468	4
3	1019	2377.755021187577	1
3	1022	2398.406299735043	1
3	1025	2410.564342124642	1
3	1027	2410.626546255374	2
3	1031	2413.549859208002	3
3	1036	2418.857725134264	2
3	1043	2458.946133014052	1
3	1045	2459.312248017999	2
3	1049	2463.17615093269	1
3	1055	2469.069714972963	1
3	1058	2478.484167057322	1
3	1061	2491.184429780078	1
3	1063	2493.000563500548	2
4	152	355.033945535691	0
4	153	357.066368784065	0
4	157	360.847648264445	0
4	160	365.819027899354	1
4	161	367.906972093437	1
4	162	369.366607964742	0
4	164	387.095718742011	0
4	165	387.534540970742	0
4	172	398.088058073479	0
4	174	407.733884112485	0
4	176	411.419678450139	0
4	178	413.093427385525	1
4	179	416.610179044714	1
4	180	421.47563722184	0
4	182	425.563623459991	0
4	183	425.69754752318	0
4	185	437.666459119456	0
4	187	438.029696684342	1
4	188	438.644870032967	1
4	190	447.815078122995	1
4	192	448.014362986578	2
4	193	450.804582122599	2
4	194	452.199820225241	1
4	195	452.477560643462	0
4	197	460.719474807882	0
4	199	464.691421886986	1
4	200	465.267774108193	1
4	204	468.31375369647	1
4	206	472.314980044897	1
4	210	476.019099806218	0
4	212	476.592355171942	0
4	213	476.778723764532	0
4	215	480.99996210736	0
4	216	481.33213324452	0
4	218	494.693038600887	0
4	219	494.741487635863	0
4	223	510.591329069228	0
4	225	518.139398993674	0
4	227	523.668671067401	0
4	228	526.862846280268	0
4	230	527.598294093744	0
4	231	536.222734223251	0
4	239	573.842969895357	0
4	240	573.948845169762	0
4	242	578.455437527969	0
4	243	579.057784731307	0
4	245	611.555413684417	0
4	246	611.602480302102	0
4	250	615.939352714958	0
4	256	623.928771261495	1
4	257	625.898445896011	1
4	258	626.114895665772	0
4	260	640.673975379459	0
4	261	646.126647707587	0
4	271	685.122935878473	0
4	274	687.110961404252	1
4	275	687.24916864214	1
4	276	687.258579648172	0
4	278	694.229259922791	0
4	279	695.630795630096	0
4	281	701.444758777024	0
4	282	701.466169729494	0
4	284	705.749087531437	0
4	285	705.798906491515	0
4	290	725.2216939068	0
4	291	731.536156745569	0
4	293	752.004625109296	0
4	294	753.55282417645	0
4	296	755.485935073437	0
4	297	756.047105908417	0
4	299	757.769784631013	0
4	303	761.964320013034	0
4	311	800.144084995374	0
4	313	805.271801913546	1
4	318	807.820099495089	2
4	319	809.541113210142	2
4	320	813.710214379673	1
4	322	814.210414154197	1
4	326	816.643396720179	2
4	328	818.126394379828	3
4	338	834.316834260483	4
4	341	844.33110990972	4
4	342	846.042103824756	3
4	344	847.234050476089	3
4	346	851.786460812176	4
4	347	851.959765100812	4
4	352	860.598996821791	4
4	353	861.60177824479	4
4	354	867.233266008637	3
4	355	868.149663613194	2
4	356	868.321409524745	1
4	357	872.184133674348	0
4	359	894.948001405393	0
4	360	896.452178710716	0
4	362	896.650259971945	0
4	363	899.377049670651	0
4	374	934.819959063106	0
4	378	939.966221020917	0
4	383	950.241304898061	0
4	384	955.029157551295	0
4	386	958.062632827699	0
4	387	958.33509135218	0
4	389	959.86991923007	0
4	390	961.835203173462	0
4	392	976.77582752251	0
4	393	977.141875421325	0
4	395	990.414800602808	0
4	396	990.964770084525	0
4	401	1002.459897149837	0
4	402	1005.450551806596	0
4	404	1005.460868939708	0
4	406	1006.451086213564	1
4	407	1007.395186238265	1
4	408	1009.458770784987	0
4	413	1020.40415877667	0
4	414	1022.173744993098	0
4	419	1030.872134027189	0
4	421	1032.252396590645	1
4	423	1033.053287518108	2
4	425	1033.310784231591	3
4	427	1033.610600588183	4
4	429	1035.553503453612	5
4	433	1041.240048900413	6
4	435	1047.419879539728	6
4	436	1049.173296782233	5
4	437	1051.933496513993	4
4	438	1053.173090795733	3
4	439	1056.459023699357	2
4	440	1059.9833725323	1
4	441	1062.742192060209	0
4	443	1075.493779429228	0
4	444	1078.443720373472	0
4	446	1082.115014041595	0
4	447	1083.142018012078	0
4	449	1085.432242173332	0
4	450	1087.718374820821	0
4	452	1092.014265008028	0
4	453	1097.196115250325	0
4	455	1109.518560920317	0
4	456	1110.064690464504	0
4	458	1114.688937990352	0
4	460	1119.343587080697	1
4	462	1124.314779321839	2
4	463	1125.056993675421	2
4	464	1127.748445813856	1
4	469	1130.644362471608	1
4	473	1133.534161420969	1
4	482	1143.781660615884	1
4	484	1145.868995392401	2
4	487	1153.73048230477	3
4	489	1155.387906672459	4
4	491	1160.125658919034	4
4	492	1160.644132517407	3
4	494	1160.734199300354	3
4	496	1160.750637223976	4
4	498	1161.396249084582	5
4	499	1161.796726184097	5
4	500	1162.142947985094	4
4	501	1162.980875237606	3
4	505	1167.5326024227	3
4	507	1167.598052850385	4
4	509	1167.993915492425	5
4	511	1173.20143576488	6
4	513	1182.170138526539	6
4	514	1185.266028938554	5
4	515	1185.337802447784	4
4	517	1186.418747567496	4
4	518	1189.072742879315	4
4	519	1189.25871387473	3
4	521	1189.947228181589	3
4	522	1191.821993756072	3
4	523	1200.690866115577	2
4	525	1201.319841001969	2
4	526	1201.53326698124	2
4	527	1201.552715303353	1
4	528	1204.284803194466	0
4	535	1216.520669937629	0
4	538	1218.100005335566	1
4	539	1218.303573961429	1
4	540	1218.664891050193	0
4	542	1226.703128561465	0
4	546	1230.740172563694	0
4	548	1234.366186994145	0
4	549	1236.072510585621	0
4	551	1236.615598461658	0
4	555	1240.700770043268	0
4	563	1269.362910494722	0
4	564	1271.964351077151	0
4	568	1283.054924494812	0
4	574	1296.441175643018	1
4	576	1297.069316463925	2
4	577	1300.876786558928	2
4	584	1322.234929577251	1
4	586	1324.647391818103	1
4	587	1326.455793457875	1
4	588	1341.462333593689	0
4	595	1374.056657797941	0
4	599	1378.022606618429	1
4	605	1392.346358009746	1
4	606	1392.854005209591	0
4	608	1398.933525870826	0
4	615	1413.531623325382	0
4	619	1417.818834180346	0
4	621	1418.731874372363	1
4	629	1437.674729450842	1
4	630	1439.059335229693	0
4	632	1439.388948369657	0
4	633	1442.325009878264	0
4	635	1447.509081999705	0
4	636	1448.62628447099	0
4	638	1449.142914548495	0
4	642	1456.225271383588	1
4	644	1456.400941635302	2
4	646	1461.965053672528	3
4	648	1466.147676186606	3
4	649	1466.794847489745	2
4	651	1467.67103100862	2
4	652	1467.982424420101	2
4	653	1468.282443799654	1
4	654	1470.459874827245	0
4	658	1474.515807855272	0
4	660	1475.508739425383	0
4	662	1479.677835639554	0
4	663	1482.150704517943	0
4	673	1554.358948512642	0
4	676	1558.420695990465	1
4	680	1562.464946648262	2
4	682	1562.828090074808	3
4	684	1568.941321019609	3
4	685	1569.591861527601	2
4	686	1569.90912721745	1
4	688	1572.194378599458	1
4	689	1572.620894934738	1
4	690	1572.967567244148	0
4	692	1574.705130952569	0
4	693	1576.866105793136	0
4	695	1594.176936871932	0
4	696	1594.279371859543	0
4	700	1598.708315021286	0
4	702	1599.832633052926	0
4	710	1613.903273049395	0
4	711	1614.651745781711	0
4	713	1621.40366481471	0
4	714	1622.644375835676	0
4	716	1630.241630788371	0
4	717	1633.034181342749	0
4	719	1644.260086479798	0
4	720	1645.592517197503	0
4	722	1669.832094513945	0
4	723	1670.083843345927	0
4	725	1681.611071161843	0
4	726	1688.200538770487	0
4	733	1713.472986293194	0
4	735	1714.640646851212	1
4	737	1721.30860318063	2
4	742	1740.213623784287	2
4	743	1741.13626211968	1
4	744	1741.668719351736	0
4	754	1766.226882172695	0
4	759	1779.98537330806	1
4	761	1785.481464838326	1
4	762	1786.161098166033	0
4	766	1807.823965274978	0
4	768	1808.926832719881	0
4	772	1819.60630046076	0
4	774	1823.398972666831	0
4	778	1826.548979276419	0
4	780	1826.651877243888	1
4	782	1827.492592703176	1
4	783	1829.546954608181	0
4	785	1838.134966215622	0
4	786	1838.682781114688	0
4	790	1847.293015477357	0
4	792	1853.440315311931	0
4	794	1853.976238258592	0
4	796	1855.10675154571	1
4	798	1857.631578485873	2
4	799	1858.777905402836	2
4	800	1859.136149905805	1
4	801	1860.049757324886	0
4	803	1860.606685251931	0
4	804	1860.75994645015	0
4	806	1865.691340515226	0
4	810	1873.431044759936	0
4	812	1880.814585492101	0
4	816	1887.931572451922	1
4	818	1898.342167424745	1
4	820	1903.497259501524	1
4	821	1906.354607151017	1
4	822	1912.214168037826	0
4	829	1937.445960383169	0
4	831	1938.859698529189	1
4	834	1941.176329864383	2
4	836	1943.536124637245	3
4	837	1946.272731176967	3
4	838	1950.404656502539	2
4	840	1950.784732485768	2
4	841	1951.907296484794	2
4	842	1952.500998778909	1
4	843	1952.964877556212	0
4	851	1967.794394560158	0
4	852	1968.569616885688	0
4	854	1976.287166789391	0
4	855	1977.165575629144	0
4	857	1985.897270703852	0
4	858	1986.367089710375	0
4	860	2007.719498988818	0
4	861	2009.658385031839	0
4	863	2010.177268959809	0
4	868	2021.901711754506	1
4	869	2023.425909581598	1
4	870	2027.005700023423	0
4	872	2031.30342569397	0
4	873	2031.410596041985	0
4	875	2037.136179608095	0
4	877	2040.809530510809	1
4	878	2042.639245194779	1
4	879	2043.772466540862	0
4	881	2053.674137517185	0
4	882	2055.771289659775	0
4	886	2059.816619114803	0
4	888	2060.448777503511	1
4	890	2063.058595777536	2
4	892	2063.394189174223	3
4	894	2068.307618238601	3
4	895	2069.915835798995	2
4	897	2072.07663982243	2
4	898	2072.268869363451	2
4	900	2072.759239173926	2
4	901	2075.877551211747	2
4	902	2081.003518979257	1
4	904	2083.275534212787	1
4	905	2085.243483111263	1
4	906	2087.40083043986	0
4	908	2122.161339140629	0
4	909	2122.562127821216	0
4	914	2140.78073805428	0
4	915	2144.764396055855	0
4	919	2163.337331253465	0
4	928	2177.74862608756	1
4	929	2180.006522091337	1
4	930	2182.264129579568	0
4	932	2189.633811910056	0
4	933	2191.804260408115	0
4	935	2193.770199773401	0
4	937	2194.819181776313	1
4	939	2195.465914992879	2
4	940	2195.574813755688	2
4	941	2196.728148211254	1
4	942	2207.886580876661	0
4	944	2211.311766695371	0
4	945	2211.68011924324	0
4	947	2215.304386083665	0
4	948	2215.610981405074	0
4	950	2226.004219507096	0
4	951	2230.892251305139	0
4	953	2251.224778920485	0
4	954	2253.514562395672	0
4	956	2254.497456116578	0
4	957	2255.311129541931	0
4	959	2256.847869803007	0
4	960	2257.186173766085	0
4	962	2257.714496912013	0
4	963	2259.100769642911	0
4	968	2273.201925482636	0
4	969	2273.796868176685	0
4	971	2280.192910292888	0
4	972	2283.503797586458	0
4	974	2284.721547061188	0
4	975	2285.824354576561	0
4	977	2287.575491926138	0
4	979	2287.868131191911	1
4	981	2296.617862611394	2
4	982	2299.54764533859	2
4	989	2315.503333048444	1
4	990	2323.416655772157	0
4	992	2325.974203586855	0
4	993	2327.862838206769	0
4	997	2334.310906074741	0
4	999	2334.384825843069	1
4	1001	2343.657463510586	2
4	1007	2365.52260337468	3
4	1014	2371.26116519244	3
4	1015	2371.549054550908	2
4	1016	2372.341077592611	1
4	1017	2373.845797606646	0
4	1019	2377.755021187577	0
4	1020	2380.208167095468	0
4	1022	2398.406299735043	0
4	1023	2399.965619474693	0
4	1025	2410.564342124642	0
4	1027	2410.626546255374	1
4	1031	2413.549859208002	2
4	1033	2417.569458780358	2
4	1034	2417.989269756962	1
4	1036	2418.857725134264	1
4	1037	2424.279506234561	1
4	1038	2429.130669016478	0
4	1043	2458.946133014052	0
4	1045	2459.312248017999	1
4	1046	2462.067623678258	1
4	1047	2462.214167586706	0
4	1049	2463.17615093269	0
4	1053	2468.870849110236	0
4	1055	2469.069714972963	0
4	1056	2469.918510646725	0
4	1058	2478.484167057322	0
4	1059	2480.234683520801	0
4	1061	2491.184429780078	0
4	1063	2493.000563500548	1
4	1064	2495.256254487026	1
4	1065	2496.946793773935	0
5	152	355.033945535691	0
5	158	361.353853708245	0.5062054438
5	161	367.906972093437	2.087944194083
5	164	387.095718742011	0
5	173	406.072269405462	7.984211331983
5	176	411.419678450139	0
5	179	416.610179044714	3.516751659189
5	182	425.563623459991	0
5	185	437.666459119456	0
5	188	438.644870032967	0.615173348625
5	193	450.804582122599	2.989503999604
5	194	452.199820225241	4.185457238663
5	197	460.719474807882	0
5	200	465.267774108193	0.576352221207
5	205	471.029681608628	5.752391152344
5	206	472.314980044897	4.001226348427
5	209	475.695635782299	0.30253059974
5	212	476.592355171942	0
5	215	480.99996210736	0
5	218	494.693038600887	0
5	224	511.934867689784	1.343538620556
5	227	523.668671067401	0
5	230	527.598294093744	0
5	239	573.842969895357	0
5	242	578.455437527969	0
5	245	611.555413684417	0
5	254	623.573451265191	7.634098550233
5	257	625.898445896011	1.969674634516
5	260	640.673975379459	0
5	272	686.424765681728	1.301829803255
5	275	687.24916864214	0.138207237888
5	278	694.229259922791	0
5	281	701.444758777024	0
5	284	705.749087531437	0
5	290	725.2216939068	0
5	293	752.004625109296	0
5	296	755.485935073437	0
5	299	757.769784631013	0
5	302	759.428391658524	0.856139483896
5	311	800.144084995374	0
5	316	806.746290041993	1.474488128447
5	319	809.541113210142	3.403181919459
5	320	813.710214379673	5.890114884584
5	340	840.345156594053	26.134742439856
5	341	844.33110990972	29.738403574888
5	342	846.042103824756	29.398707104577
5	347	851.959765100812	33.833370720984
5	350	857.081911397303	22.76507713682
5	353	861.60177824479	14.367727768701
5	354	867.233266008637	15.446805196461
5	355	868.149663613194	16.088715394543
5	356	868.321409524745	7.722412702954
5	359	894.948001405393	0
5	362	896.650259971945	0
5	374	934.819959063106	0
5	377	938.893880917914	3.139435732878
5	383	950.241304898061	0
5	386	958.062632827699	0
5	389	959.86991923007	0
5	392	976.77582752251	0
5	395	990.414800602808	0
5	401	1002.459897149837	0
5	404	1005.460868939708	0
5	407	1007.395186238265	0.944100024701
5	413	1020.40415877667	0
5	419	1030.872134027189	0
5	434	1046.607779500986	14.355382910341
5	435	1047.419879539728	14.36659202162
5	436	1049.173296782233	15.862512550642
5	437	1051.933496513993	18.32289592581
5	438	1053.173090795733	17.619587342121
5	439	1056.459023699357	17.920777112568
5	440	1059.9833725323	18.743323631887
5	443	1075.493779429228	0
5	446	1082.115014041595	0
5	449	1085.432242173332	0
5	452	1092.014265008028	0
5	455	1109.518560920317	0
5	458	1114.688937990352	0
5	463	1125.056993675421	5.713406594724
5	464	1127.748445813856	3.433666492017
5	467	1129.514406946932	0.199770604217
5	472	1132.611538560433	1.967176088825
5	473	1133.534161420969	2.563633575542
5	476	1137.027805204047	1.907335735945
5	490	1155.642653564044	16.92068535567
5	491	1160.125658919034	16.34399830315
5	492	1160.644132517407	14.775137125006
5	499	1161.796726184097	8.066243879327
5	500	1162.142947985094	6.755041312635
5	501	1162.980875237606	2.246675937252
5	512	1175.622883649608	14.872246425632
5	513	1182.170138526539	20.773889441957
5	514	1185.266028938554	18.720711371408
5	515	1185.337802447784	17.805200025084
5	518	1189.072742879315	21.47469002893
5	519	1189.25871387473	21.264798382305
5	522	1191.821993756072	18.620557991192
5	523	1200.690866115577	14.272118548081
5	526	1201.53326698124	11.586038799651
5	527	1201.552715303353	0.232874301384
5	536	1217.106544229435	0.585874291806
5	539	1218.303573961429	0.203568625863
5	542	1226.703128561465	0
5	545	1229.791803470457	2.305920275785
5	548	1234.366186994145	0
5	551	1236.615598461658	0
5	554	1240.361763018699	3.717946100876
5	563	1269.362910494722	0
5	569	1285.890188727099	2.835264232287
5	572	1289.97093567288	3.13279860324
5	577	1300.876786558928	4.43561091591
5	583	1320.017050523669	22.947734059744
5	584	1322.234929577251	16.999227805849
5	587	1326.455793457875	1.808401639772
5	601	1384.047525261687	9.990867463746
5	604	1388.210207726935	10.187601108506
5	605	1392.346358009746	7.320167171654
5	608	1398.933525870826	0
5	611	1402.24216415374	2.974330862817
5	614	1411.712224805554	3.180420553398
5	625	1433.860075591167	16.041241410821
5	628	1437.290677186667	18.558802814304
5	629	1437.674729450842	3.361671957859
5	632	1439.388948369657	0
5	635	1447.509081999705	0
5	638	1449.142914548495	0
5	647	1465.033697370863	13.436459525913
5	648	1466.147676186606	9.922404803018
5	649	1466.794847489745	10.393905854443
5	652	1467.982424420101	6.017370747573
5	653	1468.282443799654	0.611412791034
5	659	1474.877254205219	0.361446349947
5	662	1479.677835639554	0
5	674	1558.118476895429	3.759528382787
5	683	1568.648424226793	10.227728236328
5	684	1568.941321019609	10.398719602039
5	685	1569.591861527601	7.126914879339
5	686	1569.90912721745	7.081037142642
5	689	1572.620894934738	0.42651633528
5	692	1574.705130952569	0
5	695	1594.176936871932	0
5	701	1598.902661628254	0.194346606968
5	710	1613.903273049395	0
5	713	1621.40366481471	0
5	716	1630.241630788371	0
5	719	1644.260086479798	0
5	722	1669.832094513945	0
5	725	1681.611071161843	0
5	741	1729.642769190628	16.169782897434
5	742	1740.213623784287	25.572976933075
5	743	1741.13626211968	19.82765893905
5	760	1782.640205825551	16.413323652856
5	761	1785.481464838326	5.496091530266
5	767	1808.175898183521	0.351932908543
5	773	1820.983583226185	1.377282765425
5	781	1827.163736593228	0.614757316809
5	782	1827.492592703176	0.840715459288
5	785	1838.134966215622	0
5	791	1851.056748980436	3.763733503079
5	794	1853.976238258592	0
5	799	1858.777905402836	3.671153857126
5	800	1859.136149905805	1.504571419932
5	803	1860.606685251931	0
5	806	1865.691340515226	0
5	809	1871.822239532095	5.24817086012
5	812	1880.814585492101	0
5	817	1894.174964038891	11.906627901743
5	818	1898.342167424745	10.410594972823
5	821	1906.354607151017	2.857347649493
5	832	1940.846987924169	3.401027541
5	837	1946.272731176967	7.413032647778
5	838	1950.404656502539	9.228326638156
5	841	1951.907296484794	8.371171847549
5	842	1952.500998778909	1.716266293141
5	851	1967.794394560158	0
5	854	1976.287166789391	0
5	857	1985.897270703852	0
5	860	2007.719498988818	0
5	863	2010.177268959809	0
5	866	2017.956764107414	2.043651731885
5	869	2023.425909581598	1.524197827092
5	872	2031.30342569397	0
5	875	2037.136179608095	0
5	878	2042.639245194779	1.82971468397
5	881	2053.674137517185	0
5	893	2065.754174721836	5.937555607033
5	894	2068.307618238601	7.85884073509
5	895	2069.915835798995	6.857240021459
5	898	2072.268869363451	8.874680189228
5	901	2075.877551211747	3.800911389317
5	902	2081.003518979257	8.244279805331
5	905	2085.243483111263	1.967948898476
5	908	2122.161339140629	0
5	914	2140.78073805428	0
5	926	2177.205422942629	13.868091689164
5	929	2180.006522091337	2.257896003777
5	932	2189.633811910056	0
5	935	2193.770199773401	0
5	940	2195.574813755688	0.755631979375
5	941	2196.728148211254	1.262233218375
5	944	2211.311766695371	0
5	947	2215.304386083665	0
5	950	2226.004219507096	0
5	953	2251.224778920485	0
5	956	2254.497456116578	0
5	959	2256.847869803007	0
5	962	2257.714496912013	0
5	968	2273.201925482636	0
5	971	2280.192910292888	0
5	974	2284.721547061188	0
5	977	2287.575491926138	0
5	982	2299.54764533859	11.679514146679
5	985	2305.873766587215	9.255903975821
5	988	2313.116351942691	12.837152313567
5	989	2315.503333048444	9.000003479924
5	992	2325.974203586855	0
5	1002	2346.231646803373	11.920740728632
5	1005	2361.274983485988	26.890157642919
5	1013	2369.64553046393	25.988066953344
5	1014	2371.26116519244	24.081900320612
5	1015	2371.549054550908	6.026451176228
5	1016	2372.341077592611	5.870865906976
5	1019	2377.755021187577	0
5	1022	2398.406299735043	0
5	1025	2410.564342124642	0
5	1032	2417.002253284021	6.375707028647
5	1033	2417.569458780358	6.668092916758
5	1034	2417.989269756962	4.43941054896
5	1037	2424.279506234561	5.421781100297
5	1043	2458.946133014052	0
5	1046	2462.067623678258	2.755375660259
5	1049	2463.17615093269	0
5	1052	2467.082580146683	2.94091149435
5	1055	2469.069714972963	0
5	1058	2478.484167057322	0
5	1061	2491.184429780078	0
5	1064	2495.256254487026	2.255690986478
6	153	357.066368784065	36
6	161	367.906972093437	37
6	162	369.366607964742	38
6	165	387.534540970742	39
6	174	407.733884112485	40
6	179	416.610179044714	41
6	180	421.47563722184	42
6	183	425.69754752318	43
6	188	438.644870032967	44
6	193	450.804582122599	45
6	194	452.199820225241	46
6	195	452.477560643462	47
6	200	465.267774108193	48
6	206	472.314980044897	49
6	210	476.019099806218	50
6	213	476.778723764532	51
6	216	481.33213324452	52
6	219	494.741487635863	53
6	225	518.139398993674	54
6	228	526.862846280268	55
6	231	536.222734223251	56
6	240	573.948845169762	57
6	243	579.057784731307	58
6	246	611.602480302102	59
6	257	625.898445896011	60
6	258	626.114895665772	61
6	261	646.126647707587	62
6	275	687.24916864214	63
6	276	687.258579648172	64
6	279	695.630795630096	65
6	282	701.466169729494	66
6	285	705.798906491515	67
6	291	731.536156745569	68
6	294	753.55282417645	69
6	297	756.047105908417	70
6	303	761.964320013034	71
6	319	809.541113210142	72
6	320	813.710214379673	73
6	341	844.33110990972	74
6	342	846.042103824756	75
6	347	851.959765100812	76
6	353	861.60177824479	77
6	354	867.233266008637	78
6	355	868.149663613194	79
6	356	868.321409524745	80
6	357	872.184133674348	81
6	360	896.452178710716	82
6	363	899.377049670651	83
6	378	939.966221020917	84
6	384	955.029157551295	85
6	387	958.33509135218	86
6	390	961.835203173462	87
6	393	977.141875421325	88
6	396	990.964770084525	89
6	402	1005.450551806596	90
6	407	1007.395186238265	91
6	408	1009.458770784987	92
6	414	1022.173744993098	93
6	435	1047.419879539728	94
6	436	1049.173296782233	95
6	437	1051.933496513993	96
6	438	1053.173090795733	97
6	439	1056.459023699357	98
6	440	1059.9833725323	99
6	441	1062.742192060209	100
6	444	1078.443720373472	101
6	447	1083.142018012078	102
6	450	1087.718374820821	103
6	453	1097.196115250325	104
6	456	1110.064690464504	105
6	463	1125.056993675421	106
6	464	1127.748445813856	107
6	473	1133.534161420969	108
6	491	1160.125658919034	109
6	492	1160.644132517407	110
6	499	1161.796726184097	111
6	500	1162.142947985094	112
6	501	1162.980875237606	113
6	513	1182.170138526539	114
6	514	1185.266028938554	115
6	515	1185.337802447784	116
6	518	1189.072742879315	117
6	519	1189.25871387473	118
6	522	1191.821993756072	119
6	523	1200.690866115577	120
6	526	1201.53326698124	121
6	527	1201.552715303353	122
6	528	1204.284803194466	123
6	539	1218.303573961429	124
6	540	1218.664891050193	125
6	546	1230.740172563694	126
6	549	1236.072510585621	127
6	555	1240.700770043268	128
6	564	1271.964351077151	129
6	577	1300.876786558928	130
6	584	1322.234929577251	131
6	587	1326.455793457875	132
6	588	1341.462333593689	133
6	605	1392.346358009746	134
6	606	1392.854005209591	135
6	615	1413.531623325382	136
6	629	1437.674729450842	137
6	630	1439.059335229693	138
6	633	1442.325009878264	139
6	636	1448.62628447099	140
6	648	1466.147676186606	141
6	649	1466.794847489745	142
6	652	1467.982424420101	143
6	653	1468.282443799654	144
6	654	1470.459874827245	145
6	660	1475.508739425383	146
6	663	1482.150704517943	147
6	684	1568.941321019609	148
6	685	1569.591861527601	149
6	686	1569.90912721745	150
6	689	1572.620894934738	151
6	690	1572.967567244148	152
6	693	1576.866105793136	153
6	696	1594.279371859543	154
6	702	1599.832633052926	155
6	711	1614.651745781711	156
6	714	1622.644375835676	157
6	717	1633.034181342749	158
6	720	1645.592517197503	159
6	723	1670.083843345927	160
6	726	1688.200538770487	161
6	742	1740.213623784287	162
6	743	1741.13626211968	163
6	744	1741.668719351736	164
6	761	1785.481464838326	165
6	762	1786.161098166033	166
6	768	1808.926832719881	167
6	774	1823.398972666831	168
6	782	1827.492592703176	169
6	783	1829.546954608181	170
6	786	1838.682781114688	171
6	792	1853.440315311931	172
6	799	1858.777905402836	173
6	800	1859.136149905805	174
6	801	1860.049757324886	175
6	804	1860.75994645015	176
6	810	1873.431044759936	177
6	818	1898.342167424745	178
6	821	1906.354607151017	179
6	822	1912.214168037826	180
6	837	1946.272731176967	181
6	838	1950.404656502539	182
6	841	1951.907296484794	183
6	842	1952.500998778909	184
6	843	1952.964877556212	185
6	852	1968.569616885688	186
6	855	1977.165575629144	187
6	858	1986.367089710375	188
6	861	2009.658385031839	189
6	869	2023.425909581598	190
6	870	2027.005700023423	191
6	873	2031.410596041985	192
6	878	2042.639245194779	193
6	879	2043.772466540862	194
6	882	2055.771289659775	195
6	894	2068.307618238601	196
6	895	2069.915835798995	197
6	898	2072.268869363451	198
6	901	2075.877551211747	199
6	902	2081.003518979257	200
6	905	2085.243483111263	201
6	906	2087.40083043986	202
6	909	2122.562127821216	203
6	915	2144.764396055855	204
6	929	2180.006522091337	205
6	930	2182.264129579568	206
6	933	2191.804260408115	207
6	940	2195.574813755688	208
6	941	2196.728148211254	209
6	942	2207.886580876661	210
6	945	2211.68011924324	211
6	948	2215.610981405074	212
6	951	2230.892251305139	213
6	954	2253.514562395672	214
6	957	2255.311129541931	215
6	960	2257.186173766085	216
6	963	2259.100769642911	217
6	969	2273.796868176685	218
6	972	2283.503797586458	219
6	975	2285.824354576561	220
6	982	2299.54764533859	221
6	989	2315.503333048444	222
6	990	2323.416655772157	223
6	993	2327.862838206769	224
6	1014	2371.26116519244	225
6	1015	2371.549054550908	226
6	1016	2372.341077592611	227
6	1017	2373.845797606646	228
6	1020	2380.208167095468	229
6	1023	2399.965619474693	230
6	1033	2417.569458780358	231
6	1034	2417.989269756962	232
6	1037	2424.279506234561	233
6	1038	2429.130669016478	234
6	1046	2462.067623678258	235
6	1047	2462.214167586706	236
6	1053	2468.870849110236	237
6	1056	2469.918510646725	238
6	1059	2480.234683520801	239
6	1064	2495.256254487026	240
6	1065	2496.946793773935	241
7	153	357.066368784065	2.032423248374
7	161	367.906972093437	7.059323828992
7	162	369.366607964742	3.547580065388
7	165	387.534540970742	0.438822228731
7	174	407.733884112485	9.645826039006
7	179	416.610179044714	5.190500594575
7	180	421.47563722184	8.382209836315
7	183	425.69754752318	0.133924063189
7	188	438.644870032967	0.978410913511
7	193	450.804582122599	12.774885438257
7	194	452.199820225241	4.384742102246
7	195	452.477560643462	4.463197656884
7	200	465.267774108193	4.548299300311
7	206	472.314980044897	7.037689588613
7	210	476.019099806218	0.625994623659
7	213	476.778723764532	0.18636859259
7	216	481.33213324452	0.33217113716
7	219	494.741487635863	0.048449034976
7	225	518.139398993674	7.548069924446
7	228	526.862846280268	3.194175212867
7	231	536.222734223251	8.624440129507
7	240	573.948845169762	0.105875274405
7	243	579.057784731307	0.602347203338
7	246	611.602480302102	0.047066617685
7	257	625.898445896011	9.959093181053
7	258	626.114895665772	2.186124404277
7	261	646.126647707587	5.452672328128
7	275	687.24916864214	2.126232763667
7	276	687.258579648172	0.14761824392
7	279	695.630795630096	1.401535707305
7	282	701.466169729494	0.02141095247
7	285	705.798906491515	0.049818960078
7	291	731.536156745569	6.314462838769
7	294	753.55282417645	1.548199067154
7	297	756.047105908417	0.56117083498
7	303	761.964320013034	3.392067838406
7	319	809.541113210142	4.269311296596
7	320	813.710214379673	7.57228308899
7	341	844.33110990972	30.120695755523
7	342	846.042103824756	31.449397489924
7	347	851.959765100812	35.316368380633
7	353	861.60177824479	27.284943984307
7	354	867.233266008637	19.999215532548
7	355	868.149663613194	16.363202801018
7	356	868.321409524745	16.260461306094
7	357	872.184133674348	11.585136852557
7	360	896.452178710716	1.504177305323
7	363	899.377049670651	2.726789698706
7	378	939.966221020917	4.211775835881
7	384	955.029157551295	4.787852653234
7	387	958.33509135218	0.272458524481
7	390	961.835203173462	1.965283943392
7	393	977.141875421325	0.366047898815
7	396	990.964770084525	0.549969481717
7	402	1005.450551806596	2.990654656759
7	407	1007.395186238265	1.934317298557
7	408	1009.458770784987	3.007684571423
7	414	1022.173744993098	1.769586216428
7	435	1047.419879539728	15.167482949083
7	436	1049.173296782233	16.120009264125
7	437	1051.933496513993	18.622712282402
7	438	1053.173090795733	19.56249020755
7	439	1056.459023699357	20.905520245745
7	440	1059.9833725323	21.445125945511
7	441	1062.742192060209	21.502143159796
7	444	1078.443720373472	2.949940944244
7	447	1083.142018012078	1.027003970483
7	450	1087.718374820821	2.286132647489
7	453	1097.196115250325	5.181850242297
7	456	1110.064690464504	0.546129544187
7	463	1125.056993675421	10.368055685069
7	464	1127.748445813856	8.404858733159
7	473	1133.534161420969	2.889798949361
7	491	1160.125658919034	21.40369071066
7	492	1160.644132517407	16.862471901523
7	499	1161.796726184097	15.927730791696
7	500	1162.142947985094	8.412465680324
7	501	1162.980875237606	7.592968565147
7	513	1182.170138526539	21.419501302563
7	514	1185.266028938554	23.869779853972
7	515	1185.337802447784	18.792484880638
7	518	1189.072742879315	21.540140456615
7	519	1189.25871387473	21.660661024345
7	522	1191.821993756072	23.828078263647
7	523	1200.690866115577	27.489430350697
7	526	1201.53326698124	15.114519413744
7	527	1201.552715303353	11.605487121764
7	528	1204.284803194466	2.964962192497
7	539	1218.303573961429	1.7829040238
7	540	1218.664891050193	0.564885714627
7	546	1230.740172563694	3.254289369022
7	549	1236.072510585621	1.706323591476
7	555	1240.700770043268	4.056953125445
7	564	1271.964351077151	2.601440582429
7	577	1300.876786558928	14.038649489288
7	584	1322.234929577251	25.165613113326
7	587	1326.455793457875	21.220091686473
7	588	1341.462333593689	16.814941775586
7	605	1392.346358009746	14.323751391317
7	606	1392.854005209591	7.827814371499
7	615	1413.531623325382	4.999819073226
7	629	1437.674729450842	18.942855078479
7	630	1439.059335229693	4.74627773671
7	633	1442.325009878264	2.936061508607
7	636	1448.62628447099	1.117202471285
7	648	1466.147676186606	14.550438341656
7	649	1466.794847489745	10.569576106157
7	652	1467.982424420101	11.581482784799
7	653	1468.282443799654	6.317390127126
7	654	1470.459874827245	2.788843818625
7	660	1475.508739425383	0.992931570111
7	663	1482.150704517943	2.472868878389
7	684	1568.941321019609	10.520625029144
7	685	1569.591861527601	11.049260110031
7	686	1569.90912721745	7.444180569188
7	689	1572.620894934738	9.79280485993
7	690	1572.967567244148	0.77318864469
7	693	1576.866105793136	2.160974840567
7	696	1594.279371859543	0.102434987611
7	702	1599.832633052926	1.12431803164
7	711	1614.651745781711	0.748472732316
7	714	1622.644375835676	1.240711020966
7	717	1633.034181342749	2.792550554378
7	720	1645.592517197503	1.332430717705
7	723	1670.083843345927	0.251748831982
7	726	1688.200538770487	6.589467608644
7	742	1740.213623784287	26.740637491093
7	743	1741.13626211968	26.495615268468
7	744	1741.668719351736	20.360116171106
7	761	1785.481464838326	19.254582665631
7	762	1786.161098166033	6.175724857973
7	768	1808.926832719881	1.102867444903
7	774	1823.398972666831	3.792672206071
7	782	1827.492592703176	0.943613426757
7	783	1829.546954608181	2.895077364293
7	786	1838.682781114688	0.547814899066
7	792	1853.440315311931	6.147299834574
7	799	1858.777905402836	4.801667144244
7	800	1859.136149905805	4.029398360095
7	801	1860.049757324886	2.418178839013
7	804	1860.75994645015	0.153261198219
7	810	1873.431044759936	6.856976087961
7	818	1898.342167424745	16.073831287597
7	821	1906.354607151017	18.423034699095
7	822	1912.214168037826	8.716908536302
7	837	1946.272731176967	8.826770793798
7	838	1950.404656502539	11.54495797335
7	841	1951.907296484794	10.730966620411
7	842	1952.500998778909	8.964874141664
7	843	1952.964877556212	2.180145070444
7	852	1968.569616885688	0.77522232553
7	855	1977.165575629144	0.878408839753
7	858	1986.367089710375	0.469819006523
7	861	2009.658385031839	1.938886043021
7	869	2023.425909581598	7.512797206069
7	870	2027.005700023423	5.103988268917
7	873	2031.410596041985	0.107170348015
7	878	2042.639245194779	5.503065586684
7	879	2043.772466540862	2.962936030053
7	882	2055.771289659775	2.09715214259
7	894	2068.307618238601	8.490999123798
7	895	2069.915835798995	9.467058295484
7	898	2072.268869363451	9.210273585915
7	901	2075.877551211747	12.483362037524
7	902	2081.003518979257	8.926879156827
7	905	2085.243483111263	12.484243937337
7	906	2087.40083043986	4.125296227073
7	909	2122.562127821216	0.400788680587
7	915	2144.764396055855	3.983658001575
7	929	2180.006522091337	16.669190837872
7	930	2182.264129579568	4.515503492008
7	933	2191.804260408115	2.170448498059
7	940	2195.574813755688	1.804613982287
7	941	2196.728148211254	1.908966434941
7	942	2207.886580876661	12.420665883782
7	945	2211.68011924324	0.368352547869
7	948	2215.610981405074	0.306595321409
7	951	2230.892251305139	4.888031798043
7	954	2253.514562395672	2.289783475187
7	957	2255.311129541931	0.813673425353
7	960	2257.186173766085	0.338303963078
7	963	2259.100769642911	1.386272730898
7	969	2273.796868176685	0.594942694049
7	972	2283.503797586458	3.31088729357
7	975	2285.824354576561	1.102807515373
7	982	2299.54764533859	11.972153412452
7	989	2315.503333048444	15.22413341932
7	990	2323.416655772157	16.913326203637
7	993	2327.862838206769	1.888634619914
7	1014	2371.26116519244	27.603701681854
7	1015	2371.549054550908	24.36978967908
7	1016	2372.341077592611	6.818474217931
7	1017	2373.845797606646	7.375585921011
7	1020	2380.208167095468	2.453145907891
7	1023	2399.965619474693	1.55931973965
7	1033	2417.569458780358	6.942912524984
7	1034	2417.989269756962	7.087903893362
7	1037	2424.279506234561	10.729647026559
7	1038	2429.130669016478	10.272943882214
7	1046	2462.067623678258	3.121490664206
7	1047	2462.214167586706	2.901919568707
7	1053	2468.870849110236	4.729180457903
7	1056	2469.918510646725	0.848795673762
7	1059	2480.234683520801	1.750516463479
7	1064	2495.256254487026	4.071824706948
7	1065	2496.946793773935	3.946230273387
8	155	357.206506079018	1
8	167	391.047324288703	1
8	170	395.908292557247	1
8	202	465.277290456284	1
8	208	475.393105182559	1
8	221	506.499791779649	1
8	233	552.180011467169	1
8	236	561.762733894234	1
8	248	615.348425057337	1
8	252	618.900269317537	2
8	263	659.041663215175	1
8	266	674.896049565265	1
8	269	682.19995766715	1
8	287	712.477119971921	1
8	301	758.572252174628	1
8	305	765.706999917469	1
8	308	784.978755077148	1
8	315	806.137931290683	1
8	324	814.592706334832	1
8	330	821.626426792798	2
8	333	824.836198466085	2
8	336	825.499667755023	2
8	349	852.060948218651	1
8	365	911.483787810045	1
8	368	917.070564889174	1
8	370	920.385567146477	2
8	376	935.754445185036	1
8	380	942.293628006038	1
8	398	999.060599541854	1
8	410	1016.150775054257	1
8	416	1022.394637542636	1
8	431	1038.538246586789	1
8	466	1129.314636342715	1
8	471	1130.970527845427	1
8	475	1135.120469468102	1
8	478	1138.721968208374	1
8	480	1140.538363023018	2
8	503	1166.545317567146	1
8	530	1212.235030563073	1
8	533	1214.859992130296	1
8	544	1227.485883194672	1
8	553	1236.643816917823	1
8	557	1245.185824588694	1
8	559	1245.473148778668	2
8	566	1272.319734415131	1
8	571	1286.83813706964	1
8	579	1305.235701771402	1
8	581	1310.732245537385	2
8	590	1351.241493944332	1
8	593	1365.328541869756	1
8	597	1375.741575967684	2
8	603	1385.026190838092	1
8	610	1399.267833290923	1
8	613	1408.531804252156	1
8	617	1416.866283432641	1
8	623	1427.924704791414	2
8	627	1434.313057492983	1
8	640	1451.59723784495	1
8	656	1473.378666856534	1
8	665	1491.689037357241	1
8	668	1538.272590616996	1
8	671	1553.901690264833	1
8	678	1558.54260141757	1
8	698	1595.681554309851	1
8	704	1603.998637226888	1
8	707	1610.690213821691	1
8	728	1706.356756001619	1
8	730	1708.08451424638	2
8	739	1721.710537312419	2
8	746	1743.189173685306	1
8	749	1753.349503705846	1
8	752	1758.340419657439	1
8	756	1770.084095394452	2
8	764	1804.85575399758	1
8	770	1814.320946502234	1
8	776	1824.452226560445	1
8	788	1844.071205200833	1
8	808	1866.574068671975	1
8	814	1882.268336137148	1
8	824	1930.068896973113	1
8	826	1932.893391889637	2
8	845	1955.889998953772	1
8	847	1959.222495235312	2
8	865	2015.913112375529	1
8	884	2059.313257916285	1
8	911	2130.479222310669	1
8	917	2152.854575283436	1
8	921	2170.102954966602	2
8	923	2172.239960610976	3
8	965	2263.481900039759	1
8	984	2300.279199629124	1
8	987	2306.50332956852	1
8	995	2330.823323660804	1
8	1004	2347.179264871828	1
8	1009	2366.470211685635	1
8	1011	2366.72911705343	2
8	1029	2410.9013658636	1
8	1040	2438.53470917593	1
8	1051	2464.141668652333	1
9	155	357.206506079018	0
9	167	391.047324288703	0
9	170	395.908292557247	0
9	202	465.277290456284	0
9	208	475.393105182559	0
9	221	506.499791779649	0
9	233	552.180011467169	0
9	236	561.762733894234	0
9	248	615.348425057337	0
9	253	620.740546706306	1.840277388769
9	263	659.041663215175	0
9	266	674.896049565265	0
9	269	682.19995766715	0
9	287	712.477119971921	0
9	301	758.572252174628	0
9	305	765.706999917469	0
9	308	784.978755077148	0
9	315	806.137931290683	0
9	324	814.592706334832	0
9	331	821.680544933996	0.054118141198
9	334	825.20349392967	0.367295463585
9	339	839.680392170633	14.18072441561
9	349	852.060948218651	0
9	365	911.483787810045	0
9	368	917.070564889174	0
9	371	922.936332868625	2.550765722148
9	376	935.754445185036	0
9	380	942.293628006038	0
9	398	999.060599541854	0
9	410	1016.150775054257	0
9	416	1022.394637542636	0
9	431	1038.538246586789	0
9	466	1129.314636342715	0
9	471	1130.970527845427	0
9	475	1135.120469468102	0
9	478	1138.721968208374	0
9	485	1153.706421748734	13.168058725716
9	503	1166.545317567146	0
9	530	1212.235030563073	0
9	533	1214.859992130296	0
9	544	1227.485883194672	0
9	553	1236.643816917823	0
9	557	1245.185824588694	0
9	560	1256.669835178087	11.196686399419
9	566	1272.319734415131	0
9	571	1286.83813706964	0
9	579	1305.235701771402	0
9	582	1314.330426221613	3.598180684228
9	590	1351.241493944332	0
9	593	1365.328541869756	0
9	600	1383.280814990852	7.539239023168
9	603	1385.026190838092	0
9	610	1399.267833290923	0
9	613	1408.531804252156	0
9	617	1416.866283432641	0
9	624	1428.237508360267	0.312803568853
9	627	1434.313057492983	0
9	640	1451.59723784495	0
9	656	1473.378666856534	0
9	665	1491.689037357241	0
9	668	1538.272590616996	0
9	671	1553.901690264833	0
9	678	1558.54260141757	0
9	698	1595.681554309851	0
9	704	1603.998637226888	0
9	707	1610.690213821691	0
9	728	1706.356756001619	0
9	731	1711.31499627826	3.23048203188
9	740	1726.380708538442	4.670171226023
9	746	1743.189173685306	0
9	749	1753.349503705846	0
9	752	1758.340419657439	0
9	757	1774.812112447005	4.728017052553
9	764	1804.85575399758	0
9	770	1814.320946502234	0
9	776	1824.452226560445	0
9	788	1844.071205200833	0
9	808	1866.574068671975	0
9	814	1882.268336137148	0
9	824	1930.068896973113	0
9	827	1936.198276703846	3.304884814209
9	845	1955.889998953772	0
9	848	1963.819895775482	4.59740054017
9	865	2015.913112375529	0
9	884	2059.313257916285	0
9	911	2130.479222310669	0
9	917	2152.854575283436	0
9	924	2172.872888599821	2.769933633219
9	925	2174.102849729515	1.862889118539
9	965	2263.481900039759	0
9	984	2300.279199629124	0
9	987	2306.50332956852	0
9	995	2330.823323660804	0
9	1004	2347.179264871828	0
9	1009	2366.470211685635	0
9	1012	2367.351686254375	0.622569200945
9	1029	2410.9013658636	0
9	1040	2438.53470917593	0
9	1051	2464.141668652333	0
10	202	465.277290456284	3
10	208	475.393105182559	4
10	301	758.572252174628	5
10	315	806.137931290683	6
10	324	814.592706334832	7
10	349	852.060948218651	8
10	376	935.754445185036	9
10	431	1038.538246586789	10
10	466	1129.314636342715	11
10	471	1130.970527845427	12
10	475	1135.120469468102	13
10	478	1138.721968208374	14
10	503	1166.545317567146	15
10	544	1227.485883194672	16
10	553	1236.643816917823	17
10	571	1286.83813706964	18
10	579	1305.235701771402	19
10	603	1385.026190838092	20
10	610	1399.267833290923	21
10	613	1408.531804252156	22
10	627	1434.313057492983	23
10	640	1451.59723784495	24
10	678	1558.54260141757	25
10	808	1866.574068671975	26
10	814	1882.268336137148	27
10	865	2015.913112375529	28
10	984	2300.279199629124	29
10	987	2306.50332956852	30
10	1004	2347.179264871828	31
10	1009	2366.470211685635	32
10	1029	2410.9013658636	33
10	1051	2464.141668652333	34
11	1066	2500	0.0964
12	1066	2500	0.0456

