version 2
run experiments_easy_game_mode1-2119-20230308-12:09:11-29385
attr configname experiments_easy_game_mode1
attr datetime 20230308-12:09:11
attr experiment experiments_easy_game_mode1
attr inifile omnetpp.ini
attr iterationvars "$0=7.5, $1=3.5, $2=0"
attr iterationvarsf 7.5,3.5,0-
attr measurement "$0=7.5, $1=3.5, $2=0"
attr network Network
attr processid 29385
attr repetition 19
attr replication #19
attr resultdir results
attr runnumber 2119
attr seedset 19
param *.boss.arrival_mean 20
param *.boss.service_mean 7.5
param *.minion.arrival_mean 10
param *.minion.service_mean 3.5
param *.player.recover_rate_x 0
param **.minion.arrival_distribution 0
param **.minion.service_distribution 0
param **.boss.arrival_distribution 0
param **.boss.service_distribution 0

vector 0 Network.player boss_jobs_number_stat:vector ETV
attr source signal_boss_jobs_number
vector 1 Network.player boss_jobs_queue_number_stat:vector ETV
attr source signal_boss_jobs_queue_number
vector 2 Network.player boss_waiting_time_stat:vector ETV
attr source signal_boss_waiting_time
vector 3 Network.player boss_defeated_stat:vector ETV
attr source signal_boss_defeated
vector 4 Network.player boss_response_time_stat:vector ETV
attr source signal_boss_response_time
vector 5 Network.player minion_jobs_number_stat:vector ETV
attr source signal_minion_jobs_number
vector 6 Network.player minion_jobs_queue_number_stat:vector ETV
attr source signal_minion_jobs_queue_number
vector 7 Network.player minion_waiting_time_stat:vector ETV
attr source signal_minion_waiting_time
vector 8 Network.player minion_defeated_stat:vector ETV
attr source signal_minion_defeated
vector 9 Network.player minion_response_time_stat:vector ETV
attr source signal_minion_response_time
vector 10 Network.player minion_recovered_stat:vector ETV
attr source signal_minion_recovered
vector 11 Network.player minion_throughput:vector ETV
attr source signal_minion_throughput
vector 12 Network.player boss_throughput:vector ETV
attr source signal_boss_throughput
0	149	383.641814753773	1
0	158	419.226760993783	1
0	164	435.937457159369	1
0	166	441.599777676986	2
0	178	469.450297919605	1
0	181	470.48201465898	1
0	190	487.295243787722	1
0	197	500.66167326089	1
0	203	512.100524100803	1
0	209	533.110556723408	1
0	227	593.771786700608	1
0	237	644.532565131582	1
0	252	676.48596019194	1
0	260	703.330286601906	1
0	266	725.90316117181	1
0	270	731.588175821006	2
0	279	744.524420255921	2
0	290	759.122019627825	1
0	299	793.863135443444	1
0	305	815.681009898624	2
0	314	863.224603851332	1
0	317	870.153391622639	1
0	320	882.120463111697	1
0	326	923.471158080421	1
0	335	966.760995902482	1
0	347	1009.684344432772	1
0	355	1031.036760996085	1
0	369	1047.446284074941	1
0	372	1052.038242407772	1
0	374	1057.115240070998	2
0	390	1082.835420605179	1
0	420	1137.016704517448	1
0	428	1149.581529118299	1
0	434	1159.462263681971	1
0	457	1206.487230796995	1
0	462	1209.753595283991	1
0	466	1210.941507576878	1
0	472	1218.708561659235	1
0	484	1259.670195305888	1
0	486	1267.815771895886	2
0	497	1309.843732171748	1
0	506	1355.647566428243	1
0	521	1402.044285638431	1
0	523	1402.263904548659	2
0	539	1454.961072960112	1
0	541	1459.590822304099	2
0	554	1480.52788114512	2
0	574	1513.15314658393	1
0	578	1529.657626253454	2
0	582	1546.559532398319	1
0	590	1593.631743264632	1
0	593	1612.416300588425	1
0	596	1623.988397099659	1
0	631	1690.602733536229	1
0	655	1717.657651786433	1
0	657	1728.25733841582	2
0	670	1746.040566456924	1
0	672	1747.235335168242	2
0	675	1748.389845209716	2
0	677	1750.168091953481	3
0	682	1765.122783763006	3
0	684	1767.541957923034	4
0	688	1774.146124514192	5
0	718	1832.144477992951	1
0	728	1860.507320941987	1
0	737	1883.699473873445	1
0	741	1884.464361408446	2
0	743	1886.181841591436	3
0	757	1913.197721752833	1
0	759	1913.281949448185	2
0	762	1920.442455957637	2
0	765	1927.473728951076	2
0	779	1964.969949338338	1
0	783	1974.166259690969	2
0	798	1994.452365368981	1
0	805	2003.186013006887	1
0	820	2040.615125239329	1
0	838	2080.987086470017	1
0	848	2100.91784688331	1
0	862	2129.599279851329	1
0	864	2132.426180659516	2
0	868	2138.766813623332	3
0	872	2142.690949916287	4
0	876	2144.082990020558	5
0	891	2183.968035022845	1
0	903	2214.237337116187	1
0	911	2232.344284238071	1
0	919	2254.27334360207	1
0	927	2266.555854746247	1
0	937	2284.15446303664	1
0	952	2300.48471194332	1
0	968	2327.398750057176	1
0	971	2335.312333411039	1
0	976	2348.102139344011	1
0	979	2351.896011637656	1
0	989	2397.305582690173	1
0	998	2421.735659092536	1
0	1000	2428.024523204963	2
0	1002	2431.526234007268	3
0	1010	2447.718939005172	2
0	1015	2454.499579047895	2
0	1017	2457.358068384767	3
0	1027	2473.1920250507	2
0	1031	2483.711986540473	1
1	149	383.641814753773	0
1	150	385.162881806727	0
1	158	419.226760993783	0
1	161	430.554612454819	0
1	164	435.937457159369	0
1	166	441.599777676986	1
1	167	442.969496553705	1
1	172	455.628248965643	0
1	178	469.450297919605	0
1	179	469.923063544436	0
1	181	470.48201465898	0
1	182	470.593861612275	0
1	190	487.295243787722	0
1	191	487.492300433894	0
1	197	500.66167326089	0
1	198	502.598371917333	0
1	203	512.100524100803	0
1	204	512.727000717917	0
1	209	533.110556723408	0
1	210	542.439530607762	0
1	227	593.771786700608	0
1	234	641.325602596503	0
1	237	644.532565131582	0
1	242	657.440068043134	0
1	252	676.48596019194	0
1	253	678.800052165145	0
1	260	703.330286601906	0
1	263	715.154861893416	0
1	266	725.90316117181	0
1	270	731.588175821006	1
1	277	743.564624404579	1
1	279	744.524420255921	1
1	282	748.691809216791	1
1	283	753.261236062235	0
1	290	759.122019627825	0
1	291	765.289176037293	0
1	299	793.863135443444	0
1	305	815.681009898624	1
1	306	834.921075036927	1
1	307	840.347052507577	0
1	314	863.224603851332	0
1	315	863.407357713053	0
1	317	870.153391622639	0
1	318	872.690585768682	0
1	320	882.120463111697	0
1	323	898.564988386371	0
1	326	923.471158080421	0
1	327	925.033899567148	0
1	335	966.760995902482	0
1	336	968.961698831887	0
1	347	1009.684344432772	0
1	348	1012.812146615902	0
1	355	1031.036760996085	0
1	358	1039.218906096167	0
1	369	1047.446284074941	0
1	370	1049.768792369275	0
1	372	1052.038242407772	0
1	374	1057.115240070998	1
1	379	1065.434563464587	1
1	380	1067.134519076268	0
1	390	1082.835420605179	0
1	401	1106.298943136339	0
1	420	1137.016704517448	0
1	421	1140.944359008006	0
1	428	1149.581529118299	0
1	431	1155.90405392408	0
1	434	1159.462263681971	0
1	435	1164.986504034128	0
1	457	1206.487230796995	0
1	458	1209.148652492936	0
1	462	1209.753595283991	0
1	463	1209.81726131526	0
1	466	1210.941507576878	0
1	467	1211.267291954291	0
1	472	1218.708561659235	0
1	473	1243.464158766677	0
1	484	1259.670195305888	0
1	486	1267.815771895886	1
1	489	1272.956408242449	1
1	490	1287.727705498805	0
1	497	1309.843732171748	0
1	500	1318.025118074109	0
1	506	1355.647566428243	0
1	507	1367.353310930304	0
1	521	1402.044285638431	0
1	523	1402.263904548659	1
1	526	1402.855657373274	1
1	527	1413.317455442491	0
1	539	1454.961072960112	0
1	541	1459.590822304099	1
1	544	1462.033762049714	1
1	554	1480.52788114512	1
1	555	1483.032827060263	1
1	558	1491.065654795063	0
1	574	1513.15314658393	0
1	578	1529.657626253454	1
1	579	1544.272392748393	1
1	580	1545.766525898574	0
1	582	1546.559532398319	0
1	583	1547.226334892487	0
1	590	1593.631743264632	0
1	591	1595.408198205947	0
1	593	1612.416300588425	0
1	594	1618.121317600442	0
1	596	1623.988397099659	0
1	599	1641.79429439543	0
1	631	1690.602733536229	0
1	634	1701.177584728095	0
1	655	1717.657651786433	0
1	657	1728.25733841582	1
1	660	1731.182506266439	1
1	663	1733.969158219841	0
1	670	1746.040566456924	0
1	672	1747.235335168242	1
1	673	1747.827742081463	1
1	675	1748.389845209716	1
1	677	1750.168091953481	2
1	678	1756.654525448017	2
1	682	1765.122783763006	2
1	684	1767.541957923034	3
1	688	1774.146124514192	4
1	689	1777.653593186259	4
1	690	1779.283725533829	3
1	691	1788.192086337277	2
1	696	1802.633540571647	1
1	699	1809.647422104164	0
1	718	1832.144477992951	0
1	721	1836.467550321963	0
1	728	1860.507320941987	0
1	729	1861.084733916599	0
1	737	1883.699473873445	0
1	741	1884.464361408446	1
1	743	1886.181841591436	2
1	744	1891.249796443781	2
1	745	1894.047039632573	1
1	746	1896.50082213242	0
1	757	1913.197721752833	0
1	759	1913.281949448185	1
1	760	1916.784422585424	1
1	762	1920.442455957637	1
1	763	1925.218477135988	1
1	765	1927.473728951076	1
1	768	1938.286285105471	1
1	771	1941.918674614217	0
1	779	1964.969949338338	0
1	783	1974.166259690969	1
1	784	1977.607630950843	1
1	785	1979.402208776365	0
1	798	1994.452365368981	0
1	801	2000.503675898878	0
1	805	2003.186013006887	0
1	806	2004.574390250423	0
1	820	2040.615125239329	0
1	821	2041.015035245743	0
1	838	2080.987086470017	0
1	839	2085.362305176597	0
1	848	2100.91784688331	0
1	849	2108.547241313017	0
1	862	2129.599279851329	0
1	864	2132.426180659516	1
1	868	2138.766813623332	2
1	872	2142.690949916287	3
1	876	2144.082990020558	4
1	877	2148.94018674166	4
1	878	2156.82587924582	3
1	881	2168.551504409193	2
1	882	2173.889455751576	1
1	883	2176.806388943269	0
1	891	2183.968035022845	0
1	900	2206.168681040172	0
1	903	2214.237337116187	0
1	904	2214.271800610735	0
1	911	2232.344284238071	0
1	912	2234.850501501365	0
1	919	2254.27334360207	0
1	924	2263.014430998543	0
1	927	2266.555854746247	0
1	930	2272.374051275472	0
1	937	2284.15446303664	0
1	944	2291.906522624516	0
1	952	2300.48471194332	0
1	955	2307.162797771847	0
1	968	2327.398750057176	0
1	969	2331.230518282301	0
1	971	2335.312333411039	0
1	974	2346.328610714533	0
1	976	2348.102139344011	0
1	977	2348.134026069078	0
1	979	2351.896011637656	0
1	980	2353.669091948371	0
1	989	2397.305582690173	0
1	994	2403.726178931243	0
1	998	2421.735659092536	0
1	1000	2428.024523204963	1
1	1002	2431.526234007268	2
1	1003	2438.743398533913	2
1	1006	2440.643399117392	1
1	1010	2447.718939005172	1
1	1013	2449.158398189128	1
1	1015	2454.499579047895	1
1	1017	2457.358068384767	2
1	1020	2463.705578381672	2
1	1021	2463.897874407698	1
1	1027	2473.1920250507	1
1	1028	2475.913531883715	1
1	1029	2479.535597693171	0
1	1031	2483.711986540473	0
1	1032	2493.613176892169	0
2	149	383.641814753773	0
2	158	419.226760993783	0
2	164	435.937457159369	0
2	167	442.969496553705	1.369718876719
2	178	469.450297919605	0
2	181	470.48201465898	0
2	190	487.295243787722	0
2	197	500.66167326089	0
2	203	512.100524100803	0
2	209	533.110556723408	0
2	227	593.771786700608	0
2	237	644.532565131582	0
2	252	676.48596019194	0
2	260	703.330286601906	0
2	266	725.90316117181	0
2	277	743.564624404579	11.976448583573
2	282	748.691809216791	4.16738896087
2	290	759.122019627825	0
2	299	793.863135443444	0
2	306	834.921075036927	19.240065138303
2	314	863.224603851332	0
2	317	870.153391622639	0
2	320	882.120463111697	0
2	326	923.471158080421	0
2	335	966.760995902482	0
2	347	1009.684344432772	0
2	355	1031.036760996085	0
2	369	1047.446284074941	0
2	372	1052.038242407772	0
2	379	1065.434563464587	8.319323393589
2	390	1082.835420605179	0
2	420	1137.016704517448	0
2	428	1149.581529118299	0
2	434	1159.462263681971	0
2	457	1206.487230796995	0
2	462	1209.753595283991	0
2	466	1210.941507576878	0
2	472	1218.708561659235	0
2	484	1259.670195305888	0
2	489	1272.956408242449	5.140636346563
2	497	1309.843732171748	0
2	506	1355.647566428243	0
2	521	1402.044285638431	0
2	526	1402.855657373274	0.591752824615
2	539	1454.961072960112	0
2	544	1462.033762049714	2.442939745615
2	555	1483.032827060263	2.504945915143
2	574	1513.15314658393	0
2	579	1544.272392748393	14.614766494939
2	582	1546.559532398319	0
2	590	1593.631743264632	0
2	593	1612.416300588425	0
2	596	1623.988397099659	0
2	631	1690.602733536229	0
2	655	1717.657651786433	0
2	660	1731.182506266439	2.925167850619
2	670	1746.040566456924	0
2	673	1747.827742081463	0.592406913221
2	678	1756.654525448017	8.264680238301
2	689	1777.653593186259	27.485501232778
2	690	1779.283725533829	14.160941770823
2	691	1788.192086337277	20.650128414243
2	696	1802.633540571647	28.487416057455
2	718	1832.144477992951	0
2	728	1860.507320941987	0
2	737	1883.699473873445	0
2	744	1891.249796443781	6.785435035335
2	745	1894.047039632573	7.865198041137
2	757	1913.197721752833	0
2	760	1916.784422585424	3.502473137239
2	763	1925.218477135988	4.776021178351
2	768	1938.286285105471	10.812556154395
2	779	1964.969949338338	0
2	784	1977.607630950843	3.441371259874
2	798	1994.452365368981	0
2	805	2003.186013006887	0
2	820	2040.615125239329	0
2	838	2080.987086470017	0
2	848	2100.91784688331	0
2	862	2129.599279851329	0
2	877	2148.94018674166	16.514006082144
2	878	2156.82587924582	18.059065622488
2	881	2168.551504409193	25.860554492906
2	882	2173.889455751576	29.806465731018
2	891	2183.968035022845	0
2	903	2214.237337116187	0
2	911	2232.344284238071	0
2	919	2254.27334360207	0
2	927	2266.555854746247	0
2	937	2284.15446303664	0
2	952	2300.48471194332	0
2	968	2327.398750057176	0
2	971	2335.312333411039	0
2	976	2348.102139344011	0
2	979	2351.896011637656	0
2	989	2397.305582690173	0
2	998	2421.735659092536	0
2	1003	2438.743398533913	10.71887532895
2	1006	2440.643399117392	9.117165110124
2	1013	2449.158398189128	1.439459183956
2	1020	2463.705578381672	9.205999333777
2	1021	2463.897874407698	6.539806022931
2	1028	2475.913531883715	2.721506833015
2	1031	2483.711986540473	0
3	150	385.162881806727	12
3	161	430.554612454819	13
3	167	442.969496553705	14
3	172	455.628248965643	15
3	179	469.923063544436	16
3	182	470.593861612275	17
3	191	487.492300433894	18
3	198	502.598371917333	19
3	204	512.727000717917	20
3	210	542.439530607762	21
3	234	641.325602596503	22
3	242	657.440068043134	23
3	253	678.800052165145	24
3	263	715.154861893416	25
3	277	743.564624404579	26
3	282	748.691809216791	27
3	283	753.261236062235	28
3	291	765.289176037293	29
3	306	834.921075036927	30
3	307	840.347052507577	31
3	315	863.407357713053	32
3	318	872.690585768682	33
3	323	898.564988386371	34
3	327	925.033899567148	35
3	336	968.961698831887	36
3	348	1012.812146615902	37
3	358	1039.218906096167	38
3	370	1049.768792369275	39
3	379	1065.434563464587	40
3	380	1067.134519076268	41
3	401	1106.298943136339	42
3	421	1140.944359008006	43
3	431	1155.90405392408	44
3	435	1164.986504034128	45
3	458	1209.148652492936	46
3	463	1209.81726131526	47
3	467	1211.267291954291	48
3	473	1243.464158766677	49
3	489	1272.956408242449	50
3	490	1287.727705498805	51
3	500	1318.025118074109	52
3	507	1367.353310930304	53
3	526	1402.855657373274	54
3	527	1413.317455442491	55
3	544	1462.033762049714	56
3	555	1483.032827060263	57
3	558	1491.065654795063	58
3	579	1544.272392748393	59
3	580	1545.766525898574	60
3	583	1547.226334892487	61
3	591	1595.408198205947	62
3	594	1618.121317600442	63
3	599	1641.79429439543	64
3	634	1701.177584728095	65
3	660	1731.182506266439	66
3	663	1733.969158219841	67
3	673	1747.827742081463	68
3	678	1756.654525448017	69
3	689	1777.653593186259	70
3	690	1779.283725533829	71
3	691	1788.192086337277	72
3	696	1802.633540571647	73
3	699	1809.647422104164	74
3	721	1836.467550321963	75
3	729	1861.084733916599	76
3	744	1891.249796443781	77
3	745	1894.047039632573	78
3	746	1896.50082213242	79
3	760	1916.784422585424	80
3	763	1925.218477135988	81
3	768	1938.286285105471	82
3	771	1941.918674614217	83
3	784	1977.607630950843	84
3	785	1979.402208776365	85
3	801	2000.503675898878	86
3	806	2004.574390250423	87
3	821	2041.015035245743	88
3	839	2085.362305176597	89
3	849	2108.547241313017	90
3	877	2148.94018674166	91
3	878	2156.82587924582	92
3	881	2168.551504409193	93
3	882	2173.889455751576	94
3	883	2176.806388943269	95
3	900	2206.168681040172	96
3	904	2214.271800610735	97
3	912	2234.850501501365	98
3	924	2263.014430998543	99
3	930	2272.374051275472	100
3	944	2291.906522624516	101
3	955	2307.162797771847	102
3	969	2331.230518282301	103
3	974	2346.328610714533	104
3	977	2348.134026069078	105
3	980	2353.669091948371	106
3	994	2403.726178931243	107
3	1003	2438.743398533913	108
3	1006	2440.643399117392	109
3	1013	2449.158398189128	110
3	1020	2463.705578381672	111
3	1021	2463.897874407698	112
3	1028	2475.913531883715	113
3	1029	2479.535597693171	114
3	1032	2493.613176892169	115
4	150	385.162881806727	1.521067052954
4	161	430.554612454819	11.327851461036
4	167	442.969496553705	7.032039394336
4	172	455.628248965643	14.028471288657
4	179	469.923063544436	0.472765624831
4	182	470.593861612275	0.111846953295
4	191	487.492300433894	0.197056646172
4	198	502.598371917333	1.936698656443
4	204	512.727000717917	0.626476617114
4	210	542.439530607762	9.328973884354
4	234	641.325602596503	47.553815895895
4	242	657.440068043134	12.907502911552
4	253	678.800052165145	2.314091973205
4	263	715.154861893416	11.82457529151
4	277	743.564624404579	17.661463232769
4	282	748.691809216791	17.103633395785
4	283	753.261236062235	8.736815806314
4	291	765.289176037293	6.167156409468
4	306	834.921075036927	41.057939593483
4	307	840.347052507577	24.666042608953
4	315	863.407357713053	0.182753861721
4	318	872.690585768682	2.537194146043
4	323	898.564988386371	16.444525274674
4	327	925.033899567148	1.562741486727
4	336	968.961698831887	2.200702929405
4	348	1012.812146615902	3.12780218313
4	358	1039.218906096167	8.182145100082
4	370	1049.768792369275	2.322508294334
4	379	1065.434563464587	13.396321056815
4	380	1067.134519076268	10.01927900527
4	401	1106.298943136339	23.46352253116
4	421	1140.944359008006	3.927654490558
4	431	1155.90405392408	6.322524805781
4	435	1164.986504034128	5.524240352157
4	458	1209.148652492936	2.661421695941
4	463	1209.81726131526	0.063666031269
4	467	1211.267291954291	0.325784377413
4	473	1243.464158766677	24.755597107442
4	489	1272.956408242449	13.286212936561
4	490	1287.727705498805	19.911933602919
4	500	1318.025118074109	8.181385902361
4	507	1367.353310930304	11.705744502061
4	526	1402.855657373274	0.811371734843
4	527	1413.317455442491	11.053550893832
4	544	1462.033762049714	7.072689089602
4	555	1483.032827060263	23.442004756164
4	558	1491.065654795063	10.537773649943
4	579	1544.272392748393	31.119246164463
4	580	1545.766525898574	16.10889964512
4	583	1547.226334892487	0.666802494168
4	591	1595.408198205947	1.776454941315
4	594	1618.121317600442	5.705017012017
4	599	1641.79429439543	17.805897295771
4	634	1701.177584728095	10.574851191866
4	660	1731.182506266439	13.524854480006
4	663	1733.969158219841	5.711819804021
4	673	1747.827742081463	1.787175624539
4	678	1756.654525448017	9.419190279775
4	689	1777.653593186259	29.263747976543
4	690	1779.283725533829	29.115633580348
4	691	1788.192086337277	23.069302574271
4	696	1802.633540571647	35.091582648613
4	699	1809.647422104164	35.501297589972
4	721	1836.467550321963	4.323072329012
4	729	1861.084733916599	0.577412974612
4	744	1891.249796443781	7.550322570336
4	745	1894.047039632573	9.582678224127
4	746	1896.50082213242	10.318980540984
4	760	1916.784422585424	3.586700832591
4	763	1925.218477135988	11.936527687803
4	768	1938.286285105471	17.843829147834
4	771	1941.918674614217	14.444945663141
4	784	1977.607630950843	12.637681612505
4	785	1979.402208776365	5.235949085396
4	801	2000.503675898878	6.051310529897
4	806	2004.574390250423	1.388377243536
4	821	2041.015035245743	0.399910006414
4	839	2085.362305176597	4.37521870658
4	849	2108.547241313017	7.629394429707
4	877	2148.94018674166	19.340906890331
4	878	2156.82587924582	24.399698586304
4	881	2168.551504409193	29.784690785861
4	882	2173.889455751576	31.198505835289
4	883	2176.806388943269	32.723398922711
4	900	2206.168681040172	22.200646017327
4	904	2214.271800610735	0.034463494548
4	912	2234.850501501365	2.506217263294
4	924	2263.014430998543	8.741087396473
4	930	2272.374051275472	5.818196529225
4	944	2291.906522624516	7.752059587876
4	955	2307.162797771847	6.678085828527
4	969	2331.230518282301	3.831768225125
4	974	2346.328610714533	11.016277303494
4	977	2348.134026069078	0.031886725067
4	980	2353.669091948371	1.773080310715
4	994	2403.726178931243	6.42059624107
4	1003	2438.743398533913	17.007739441377
4	1006	2440.643399117392	12.618875912429
4	1013	2449.158398189128	17.63216418186
4	1020	2463.705578381672	15.9866393765
4	1021	2463.897874407698	9.398295359803
4	1028	2475.913531883715	18.555463498948
4	1029	2479.535597693171	6.343572642471
4	1032	2493.613176892169	9.901190351696
5	152	385.856899874733	1
5	155	408.691715619325	1
5	160	422.13264824982	1
5	169	445.819057629507	1
5	171	454.087649832625	2
5	175	466.825941906207	2
5	185	481.958246252984	1
5	188	484.368239412351	1
5	194	491.184902048821	1
5	200	507.395280976871	1
5	206	530.648492201309	1
5	212	543.588478983341	1
5	215	554.755673435099	1
5	217	555.313263309698	2
5	221	575.587625228941	1
5	224	579.283341760883	1
5	229	596.194993200021	1
5	231	616.827667599831	2
5	233	640.926297437906	3
5	239	649.886856687228	3
5	241	655.991254291414	4
5	244	658.258721181871	5
5	248	661.594702362575	4
5	257	683.557625529397	1
5	262	707.612973189694	1
5	268	731.363546110908	1
5	272	732.555186216837	2
5	274	733.938954235922	3
5	276	734.751258498641	4
5	281	745.076474176766	5
5	288	757.68685211186	3
5	296	790.217733311095	1
5	301	797.60490314529	1
5	303	810.26358369908	2
5	311	844.825138635796	1
5	322	885.099273410516	1
5	329	948.972755669185	1
5	332	950.843979774307	1
5	338	972.02407510722	1
5	341	981.928561880455	1
5	344	1004.842236377678	1
5	350	1025.758625337468	1
5	352	1026.600216556579	2
5	357	1034.755844313557	2
5	361	1042.537682298745	2
5	363	1042.903472205063	3
5	365	1043.289063513605	4
5	367	1046.0639403592	5
5	376	1057.550270121693	6
5	378	1061.03259428033	7
5	383	1070.191146829727	7
5	385	1070.286842594129	8
5	392	1086.027920857735	6
5	394	1094.231740682781	7
5	396	1101.25677937566	8
5	398	1103.206723378744	9
5	400	1106.186864163115	10
5	405	1109.171080301339	9
5	407	1111.387788992762	10
5	411	1121.809931380067	9
5	413	1124.366351542074	10
5	430	1154.570025499484	1
5	437	1167.05463710117	1
5	439	1171.721424202972	2
5	442	1179.208781504965	2
5	446	1186.537198072979	1
5	448	1187.891230891189	2
5	452	1202.67566319902	1
5	455	1204.01364622619	1
5	460	1209.213125572176	2
5	469	1212.525211650875	2
5	475	1243.543414230326	2
5	477	1246.956304856231	3
5	479	1248.25184246608	4
5	488	1268.876528944801	2
5	493	1288.324820709837	2
5	499	1311.522300834359	1
5	503	1347.919863570171	1
5	509	1374.868030005294	1
5	512	1379.578036641553	1
5	515	1380.636937306802	1
5	518	1392.15735548521	1
5	525	1402.608920941986	1
5	530	1422.721074296431	1
5	533	1434.530211434858	1
5	536	1447.566384208322	1
5	543	1460.540129749878	1
5	546	1465.639866408089	2
5	548	1466.106117658667	3
5	550	1471.368291647667	4
5	552	1478.976951480305	5
5	557	1486.661311713835	6
5	563	1498.512310193738	4
5	566	1505.425528053387	4
5	572	1510.933478874596	1
5	576	1521.879486692066	2
5	586	1563.378368305413	2
5	598	1639.056986888519	1
5	601	1643.095036236944	2
5	604	1645.546022462589	2
5	608	1661.634814004436	1
5	611	1671.579912758762	1
5	613	1672.025614561915	2
5	616	1673.769670837592	2
5	620	1679.416565973792	1
5	623	1681.617957238574	1
5	625	1681.707524378777	2
5	628	1688.170722645438	2
5	633	1692.82202740727	2
5	638	1702.191657967471	1
5	641	1704.833006367118	1
5	643	1705.599151971544	2
5	645	1710.030724900868	3
5	649	1713.741763839065	2
5	652	1714.940245213364	2
5	659	1728.87665711158	2
5	662	1733.694104865433	3
5	668	1740.128382121185	1
5	680	1761.815259399482	2
5	686	1773.795755106873	3
5	693	1792.918935437412	4
5	695	1802.277444354918	5
5	698	1803.676666182345	6
5	701	1813.440534849893	7
5	704	1814.60925833719	7
5	708	1820.402365016173	6
5	710	1821.614431305861	7
5	715	1827.149029616638	5
5	720	1833.437028583181	5
5	731	1876.226428141584	1
5	734	1879.711272229701	1
5	739	1883.806687998546	1
5	748	1902.470646176537	2
5	752	1907.529091213011	1
5	754	1908.263601933055	2
5	767	1935.123759178274	2
5	770	1938.497859420328	3
5	776	1962.257532328165	1
5	781	1969.299355942594	1
5	788	1984.117516746036	1
5	790	1986.044914204507	2
5	792	1989.687237629296	3
5	794	1990.620009507669	4
5	796	1991.781384648472	5
5	800	1995.076524006025	6
5	808	2008.288417313999	5
5	810	2009.93813881571	6
5	814	2025.56978282973	5
5	818	2040.550524347734	4
5	827	2054.211906877718	1
5	830	2065.159803241648	1
5	833	2072.225498533218	1
5	836	2080.539873363293	1
5	841	2087.090379295645	2
5	844	2088.891266320457	2
5	851	2113.982284071148	1
5	853	2114.816664513199	2
5	855	2115.391268542159	3
5	857	2116.680605292526	4
5	866	2134.837579236397	2
5	870	2139.045435916166	3
5	874	2143.647369207872	4
5	880	2157.816230141225	5
5	885	2178.162557058013	6
5	888	2180.332846172576	6
5	893	2186.758955664257	6
5	895	2191.137331745992	7
5	897	2194.998118816962	8
5	899	2196.124755564521	9
5	907	2215.071349859126	8
5	921	2255.125267489965	2
5	923	2258.251636537411	3
5	929	2269.820350887882	3
5	932	2275.391187735827	4
5	939	2285.943208414918	2
5	941	2288.567040384363	3
5	943	2288.72831507386	4
5	947	2295.55461015028	4
5	949	2295.615227937649	5
5	954	2305.385790729079	5
5	961	2311.454745772018	2
5	965	2319.928991314839	1
5	973	2339.568903514049	1
5	983	2361.142496454305	1
5	986	2373.270587371442	1
5	991	2400.670039269132	1
5	993	2401.423215500016	2
5	1005	2440.135947521906	1
5	1008	2443.649004060011	2
5	1012	2448.608729818361	3
5	1019	2460.892213925155	4
5	1023	2464.399823215664	5
5	1025	2465.102922889915	6
5	1035	2496.33997144847	6
6	152	385.856899874733	0
6	153	390.667557836333	0
6	155	408.691715619325	0
6	156	415.577839558563	0
6	160	422.13264824982	0
6	162	432.661792125001	0
6	169	445.819057629507	0
6	171	454.087649832625	1
6	173	466.694764113625	1
6	175	466.825941906207	1
6	176	467.371354040324	1
6	183	481.372137183763	0
6	185	481.958246252984	0
6	186	482.135478255164	0
6	188	484.368239412351	0
6	192	488.376805324866	0
6	194	491.184902048821	0
6	195	492.395841843595	0
6	200	507.395280976871	0
6	201	509.523962395616	0
6	206	530.648492201309	0
6	207	530.890464019244	0
6	212	543.588478983341	0
6	213	546.861477980403	0
6	215	554.755673435099	0
6	217	555.313263309698	1
6	218	559.623931971024	1
6	219	568.561245982306	0
6	221	575.587625228941	0
6	222	575.818260303171	0
6	224	579.283341760883	0
6	225	579.54941419248	0
6	229	596.194993200021	0
6	231	616.827667599831	1
6	233	640.926297437906	2
6	235	643.304756211563	2
6	239	649.886856687228	2
6	241	655.991254291414	3
6	244	658.258721181871	4
6	245	659.024965490267	4
6	246	659.228975299642	3
6	248	661.594702362575	3
6	249	668.668775694493	3
6	250	669.245719413605	2
6	254	681.569335921605	1
6	255	682.358489692307	0
6	257	683.557625529397	0
6	258	687.446210089127	0
6	262	707.612973189694	0
6	264	717.204868878601	0
6	268	731.363546110908	0
6	272	732.555186216837	1
6	274	733.938954235922	2
6	276	734.751258498641	3
6	281	745.076474176766	4
6	284	754.743245349402	4
6	285	754.871791908698	3
6	286	755.23004773838	2
6	288	757.68685211186	2
6	292	767.810945335757	2
6	293	768.928255495798	1
6	294	771.094791606745	0
6	296	790.217733311095	0
6	297	790.248423886816	0
6	301	797.60490314529	0
6	303	810.26358369908	1
6	308	840.994929459719	1
6	309	841.760141589309	0
6	311	844.825138635796	0
6	312	848.443661695181	0
6	322	885.099273410516	0
6	324	900.781892966397	0
6	329	948.972755669185	0
6	330	949.370967448142	0
6	332	950.843979774307	0
6	333	951.914692525821	0
6	338	972.02407510722	0
6	339	973.54933267396	0
6	341	981.928561880455	0
6	342	984.329568821555	0
6	344	1004.842236377678	0
6	345	1006.547708763135	0
6	350	1025.758625337468	0
6	352	1026.600216556579	1
6	353	1029.676965757904	1
6	357	1034.755844313557	1
6	359	1039.923373387889	1
6	361	1042.537682298745	1
6	363	1042.903472205063	2
6	365	1043.289063513605	3
6	367	1046.0639403592	4
6	376	1057.550270121693	5
6	378	1061.03259428033	6
6	381	1068.663930734324	6
6	383	1070.191146829727	6
6	385	1070.286842594129	7
6	386	1073.23875071295	7
6	387	1077.595007338462	6
6	388	1079.878694029008	5
6	392	1086.027920857735	5
6	394	1094.231740682781	6
6	396	1101.25677937566	7
6	398	1103.206723378744	8
6	400	1106.186864163115	9
6	402	1107.609021692798	9
6	403	1108.10108795227	8
6	405	1109.171080301339	8
6	407	1111.387788992762	9
6	408	1115.981221009761	9
6	409	1117.404608431077	8
6	411	1121.809931380067	8
6	413	1124.366351542074	9
6	414	1125.389368268066	9
6	415	1130.741286582511	8
6	416	1132.231414274286	7
6	417	1133.294755979472	6
6	418	1136.082901717627	5
6	422	1141.312799913784	4
6	423	1141.798007736546	3
6	424	1143.681877744281	2
6	425	1145.601550489016	1
6	426	1145.963850039143	0
6	430	1154.570025499484	0
6	432	1156.959584521537	0
6	437	1167.05463710117	0
6	439	1171.721424202972	1
6	440	1176.887895123007	1
6	442	1179.208781504965	1
6	443	1183.462151266795	1
6	444	1185.062885310537	0
6	446	1186.537198072979	0
6	448	1187.891230891189	1
6	449	1189.064060417956	1
6	450	1191.060920181923	0
6	452	1202.67566319902	0
6	453	1202.763409949757	0
6	455	1204.01364622619	0
6	460	1209.213125572176	1
6	464	1210.730003743757	1
6	469	1212.525211650875	1
6	470	1216.692409531049	1
6	475	1243.543414230326	1
6	477	1246.956304856231	2
6	479	1248.25184246608	3
6	480	1251.74859227812	3
6	481	1257.847049039623	2
6	482	1258.876281219817	1
6	488	1268.876528944801	1
6	491	1287.932886873313	1
6	493	1288.324820709837	1
6	494	1292.261871410448	1
6	495	1297.760190425542	0
6	499	1311.522300834359	0
6	501	1318.204557679989	0
6	503	1347.919863570171	0
6	504	1350.425105742835	0
6	509	1374.868030005294	0
6	510	1375.37458425855	0
6	512	1379.578036641553	0
6	513	1380.491616557277	0
6	515	1380.636937306802	0
6	516	1383.108792899267	0
6	518	1392.15735548521	0
6	519	1400.297092885064	0
6	525	1402.608920941986	0
6	528	1416.430136677644	0
6	530	1422.721074296431	0
6	531	1425.107521310669	0
6	533	1434.530211434858	0
6	534	1435.915718981077	0
6	536	1447.566384208322	0
6	537	1450.287437275137	0
6	543	1460.540129749878	0
6	546	1465.639866408089	1
6	548	1466.106117658667	2
6	550	1471.368291647667	3
6	552	1478.976951480305	4
6	557	1486.661311713835	5
6	559	1491.613183642899	5
6	560	1492.488882526738	4
6	561	1493.531598825208	3
6	563	1498.512310193738	3
6	564	1499.594767898525	3
6	566	1505.425528053387	3
6	567	1506.412885681359	3
6	568	1506.49675971627	2
6	569	1510.528514753339	1
6	570	1510.565559838863	0
6	572	1510.933478874596	0
6	576	1521.879486692066	1
6	584	1547.834025590659	1
6	586	1563.378368305413	1
6	587	1567.903315617746	1
6	588	1569.250333683099	0
6	598	1639.056986888519	0
6	601	1643.095036236944	1
6	602	1645.318572931261	1
6	604	1645.546022462589	1
6	605	1647.432758638054	1
6	606	1647.553891068554	0
6	608	1661.634814004436	0
6	609	1668.71214713545	0
6	611	1671.579912758762	0
6	613	1672.025614561915	1
6	614	1673.758400362202	1
6	616	1673.769670837592	1
6	617	1677.319841432773	1
6	618	1679.04790224914	0
6	620	1679.416565973792	0
6	621	1680.82813659401	0
6	623	1681.617957238574	0
6	625	1681.707524378777	1
6	626	1685.984976052347	1
6	628	1688.170722645438	1
6	629	1688.717906476117	1
6	633	1692.82202740727	1
6	635	1701.678724901146	1
6	636	1702.095743789385	0
6	638	1702.191657967471	0
6	639	1704.115763947557	0
6	641	1704.833006367118	0
6	643	1705.599151971544	1
6	645	1710.030724900868	2
6	646	1710.767845757071	2
6	647	1712.938536837334	1
6	649	1713.741763839065	1
6	650	1713.812334541423	1
6	652	1714.940245213364	1
6	653	1717.163169310992	1
6	659	1728.87665711158	1
6	662	1733.694104865433	2
6	664	1736.007112415423	2
6	665	1736.986386510467	1
6	666	1739.599952492827	0
6	668	1740.128382121185	0
6	680	1761.815259399482	1
6	686	1773.795755106873	2
6	693	1792.918935437412	3
6	695	1802.277444354918	4
6	698	1803.676666182345	5
6	701	1813.440534849893	6
6	702	1813.550448040978	6
6	704	1814.60925833719	6
6	705	1814.686088615251	6
6	706	1815.561875107563	5
6	708	1820.402365016173	5
6	710	1821.614431305861	6
6	711	1823.779169106057	6
6	712	1825.221846573037	5
6	713	1827.130969407494	4
6	715	1827.149029616638	4
6	716	1827.949358766305	4
6	720	1833.437028583181	4
6	722	1838.475663861528	4
6	723	1843.879606014253	3
6	724	1844.40517321142	2
6	725	1850.626803402886	1
6	726	1852.925973368975	0
6	731	1876.226428141584	0
6	732	1877.500067763102	0
6	734	1879.711272229701	0
6	735	1879.753248355759	0
6	739	1883.806687998546	0
6	748	1902.470646176537	1
6	749	1902.830734492938	1
6	750	1903.046258901869	0
6	752	1907.529091213011	0
6	754	1908.263601933055	1
6	755	1909.963386555433	1
6	767	1935.123759178274	1
6	770	1938.497859420328	2
6	772	1944.799116479996	2
6	773	1945.376162062498	1
6	774	1947.191205939881	0
6	776	1962.257532328165	0
6	777	1962.613377564642	0
6	781	1969.299355942594	0
6	786	1979.593371336692	0
6	788	1984.117516746036	0
6	790	1986.044914204507	1
6	792	1989.687237629296	2
6	794	1990.620009507669	3
6	796	1991.781384648472	4
6	800	1995.076524006025	5
6	802	2001.555836949938	5
6	803	2002.126467916527	4
6	808	2008.288417313999	4
6	810	2009.93813881571	5
6	811	2015.251593918122	5
6	812	2017.349538957217	4
6	814	2025.56978282973	4
6	815	2027.394660398308	4
6	816	2027.490477480198	3
6	818	2040.550524347734	3
6	822	2048.857925264069	3
6	823	2050.224495740314	2
6	824	2051.015528106249	1
6	825	2053.062218353676	0
6	827	2054.211906877718	0
6	828	2054.779578222648	0
6	830	2065.159803241648	0
6	831	2065.529968452651	0
6	833	2072.225498533218	0
6	834	2076.789901474959	0
6	836	2080.539873363293	0
6	841	2087.090379295645	1
6	842	2087.893844527987	1
6	844	2088.891266320457	1
6	845	2089.154180893339	1
6	846	2093.942085378881	0
6	851	2113.982284071148	0
6	853	2114.816664513199	1
6	855	2115.391268542159	2
6	857	2116.680605292526	3
6	858	2117.767059523049	3
6	859	2120.980737627654	2
6	860	2123.397080008551	1
6	866	2134.837579236397	1
6	870	2139.045435916166	2
6	874	2143.647369207872	3
6	880	2157.816230141225	4
6	885	2178.162557058013	5
6	886	2179.002549720962	5
6	888	2180.332846172576	5
6	889	2182.720440963057	5
6	893	2186.758955664257	5
6	895	2191.137331745992	6
6	897	2194.998118816962	7
6	899	2196.124755564521	8
6	901	2212.214865992526	8
6	905	2214.860367200873	7
6	907	2215.071349859126	7
6	908	2222.612391010834	7
6	909	2231.129738455638	6
6	913	2236.161818013096	5
6	914	2240.710827760796	4
6	915	2245.870762468753	3
6	916	2246.734203115807	2
6	917	2252.12851132476	1
6	921	2255.125267489965	1
6	923	2258.251636537411	2
6	925	2266.531346194937	2
6	929	2269.820350887882	2
6	932	2275.391187735827	3
6	933	2280.389749531416	3
6	934	2281.206480666748	2
6	935	2282.397044822053	1
6	939	2285.943208414918	1
6	941	2288.567040384363	2
6	943	2288.72831507386	3
6	945	2295.066494527152	3
6	947	2295.55461015028	3
6	949	2295.615227937649	4
6	950	2296.184527718731	4
6	954	2305.385790729079	4
6	956	2308.162695365682	4
6	957	2308.166615826969	3
6	958	2308.217646918957	2
6	959	2308.23409998424	1
6	961	2311.454745772018	1
6	962	2312.054615872619	1
6	963	2315.342294311658	0
6	965	2319.928991314839	0
6	966	2325.253889319742	0
6	973	2339.568903514049	0
6	981	2355.061424865491	0
6	983	2361.142496454305	0
6	984	2363.925813720333	0
6	986	2373.270587371442	0
6	987	2374.320392834747	0
6	991	2400.670039269132	0
6	993	2401.423215500016	1
6	995	2406.042443566529	1
6	996	2413.099808779801	0
6	1005	2440.135947521906	0
6	1008	2443.649004060011	1
6	1012	2448.608729818361	2
6	1019	2460.892213925155	3
6	1023	2464.399823215664	4
6	1025	2465.102922889915	5
6	1033	2495.559349778288	5
6	1035	2496.33997144847	5
7	152	385.856899874733	0
7	155	408.691715619325	0
7	161	430.554612454819	8.421964204999
7	172	455.628248965643	9.809191336136
7	173	466.694764113625	12.607114281
7	176	467.371354040324	0.545412134117
7	179	469.923063544436	0.472765624831
7	182	470.593861612275	0.111846953295
7	185	481.958246252984	0
7	188	484.368239412351	0
7	191	487.492300433894	0.197056646172
7	194	491.184902048821	0
7	200	507.395280976871	0
7	206	530.648492201309	0
7	212	543.588478983341	0
7	215	554.755673435099	0
7	218	559.623931971024	4.310668661326
7	221	575.587625228941	0
7	224	579.283341760883	0
7	234	641.325602596503	45.130609396482
7	235	643.304756211563	26.477088611732
7	242	657.440068043134	16.513770605228
7	245	659.024965490267	14.492400358685
7	246	659.228975299642	9.342118612414
7	249	668.668775694493	12.677521403079
7	250	669.245719413605	10.986998231734
7	253	678.800052165145	17.20534980257
7	254	681.569335921605	5.083375729665
7	257	683.557625529397	0
7	263	715.154861893416	7.541888703722
7	283	753.261236062235	21.897689951327
7	284	754.743245349402	22.188059132565
7	285	754.871791908698	20.932837672776
7	286	755.23004773838	20.478789239739
7	291	765.289176037293	20.212701860527
7	292	767.810945335757	10.124093223897
7	293	768.928255495798	9.806235867973
7	296	790.217733311095	0
7	307	840.347052507577	42.742149362287
7	308	840.994929459719	30.731345760639
7	311	844.825138635796	0
7	323	898.564988386371	13.465714975855
7	329	948.972755669185	0
7	332	950.843979774307	0
7	338	972.02407510722	0
7	341	981.928561880455	0
7	344	1004.842236377678	0
7	350	1025.758625337468	0
7	353	1029.676965757904	3.076749201325
7	358	1039.218906096167	8.182145100082
7	359	1039.923373387889	5.167529074332
7	370	1049.768792369275	7.23111007053
7	380	1067.134519076268	24.231046871205
7	381	1068.663930734324	25.374867220719
7	386	1073.23875071295	27.17481035375
7	387	1077.595007338462	30.148723263521
7	388	1079.878694029008	27.840451621236
7	401	1106.298943136339	48.748673014646
7	402	1107.609021692798	46.576427412468
7	403	1108.10108795227	37.909941122543
7	408	1115.981221009761	45.694378415632
7	409	1117.404608431077	34.569187825898
7	414	1125.389368268066	39.361447410331
7	415	1130.741286582511	36.50954589973
7	416	1132.231414274286	30.974634898626
7	417	1133.294755979472	30.088032600728
7	418	1136.082901717627	29.896037554512
7	421	1140.944359008006	31.773278706667
7	422	1141.312799913784	29.925010921022
7	423	1141.798007736546	19.988076356479
7	424	1143.681877744281	19.315526202207
7	425	1145.601550489016	8.584845971568
7	431	1155.90405392408	1.334028424596
7	437	1167.05463710117	0
7	440	1176.887895123007	5.166470920035
7	443	1183.462151266795	4.25336976183
7	446	1186.537198072979	0
7	449	1189.064060417956	1.172829526767
7	452	1202.67566319902	0
7	455	1204.01364622619	0
7	458	1209.148652492936	2.661421695941
7	463	1209.81726131526	0.604135743084
7	464	1210.730003743757	0.976408459766
7	467	1211.267291954291	0.325784377413
7	470	1216.692409531049	4.167197880174
7	473	1243.464158766677	24.755597107442
7	480	1251.74859227812	8.205178047794
7	481	1257.847049039623	10.890744183392
7	482	1258.876281219817	10.624438753737
7	490	1287.727705498805	28.057510192917
7	491	1287.932886873313	19.056357928512
7	494	1292.261871410448	3.937050700611
7	500	1318.025118074109	6.50281723975
7	503	1347.919863570171	0
7	509	1374.868030005294	0
7	512	1379.578036641553	0
7	515	1380.636937306802	0
7	518	1392.15735548521	0
7	527	1413.317455442491	10.708534500505
7	530	1422.721074296431	0
7	533	1434.530211434858	0
7	536	1447.566384208322	0
7	558	1491.065654795063	30.525525045185
7	559	1491.613183642899	25.97331723481
7	560	1492.488882526738	26.382764868071
7	561	1493.531598825208	22.163307177541
7	564	1499.594767898525	20.61781641822
7	567	1506.412885681359	19.751573967524
7	568	1506.49675971627	7.984449522532
7	569	1510.528514753339	5.102986699952
7	572	1510.933478874596	0
7	580	1545.766525898574	32.613379314644
7	583	1547.226334892487	25.346848200421
7	584	1547.834025590659	1.27449319234
7	587	1567.903315617746	4.524947312333
7	599	1641.79429439543	2.737307506911
7	602	1645.318572931261	2.223536694317
7	605	1647.432758638054	1.886736175465
7	608	1661.634814004436	0
7	611	1671.579912758762	0
7	614	1673.758400362202	1.732785800287
7	617	1677.319841432773	3.550170595181
7	620	1679.416565973792	0
7	623	1681.617957238574	0
7	626	1685.984976052347	4.27745167357
7	629	1688.717906476117	0.547183830679
7	634	1701.177584728095	10.574851191866
7	635	1701.678724901146	8.856697493876
7	638	1702.191657967471	0
7	641	1704.833006367118	0
7	646	1710.767845757071	5.168693785527
7	647	1712.938536837334	2.907811936466
7	650	1713.812334541423	0.070570702358
7	653	1717.163169310992	2.222924097628
7	663	1733.969158219841	16.311506433408
7	664	1736.007112415423	7.130455303843
7	665	1736.986386510467	3.292281645034
7	668	1740.128382121185	0
7	699	1809.647422104164	63.60685564724
7	702	1813.550448040978	51.735188641496
7	705	1814.686088615251	40.890333508378
7	706	1815.561875107563	22.642939670151
7	711	1823.779169106057	21.501724751139
7	712	1825.221846573037	21.545180390692
7	713	1827.130969407494	13.690434557601
7	716	1827.949358766305	13.340100429115
7	721	1836.467550321963	16.06518530579
7	722	1838.475663861528	16.861232555667
7	723	1843.879606014253	16.730576397615
7	724	1844.40517321142	12.260695218469
7	725	1850.626803402886	17.189774819705
7	731	1876.226428141584	0
7	734	1879.711272229701	0
7	746	1896.50082213242	12.694134133874
7	749	1902.830734492938	0.360088316401
7	752	1907.529091213011	0
7	755	1909.963386555433	1.699784622378
7	771	1941.918674614217	28.720952861384
7	772	1944.799116479996	9.675357301722
7	773	1945.376162062498	6.87830264217
7	776	1962.257532328165	0
7	785	1979.402208776365	10.102852833771
7	788	1984.117516746036	0
7	801	2000.503675898878	14.458761694371
7	802	2001.555836949938	11.868599320642
7	803	2002.126467916527	11.506458408858
7	806	2004.574390250423	12.793005601951
7	811	2015.251593918122	20.799228549141
7	812	2017.349538957217	22.273014951192
7	815	2027.394660398308	24.208647391421
7	816	2027.490477480198	19.202060166199
7	821	2041.015035245743	31.076896430033
7	822	2048.857925264069	23.288142434339
7	823	2050.224495740314	9.67397139258
7	824	2051.015528106249	10.40040286692
7	827	2054.211906877718	0
7	830	2065.159803241648	0
7	833	2072.225498533218	0
7	836	2080.539873363293	0
7	839	2085.362305176597	4.37521870658
7	842	2087.893844527987	0.803465232342
7	845	2089.154180893339	0.262914572882
7	851	2113.982284071148	0
7	858	2117.767059523049	2.95039500985
7	859	2120.980737627654	5.589469085495
7	860	2123.397080008551	6.716474716025
7	883	2176.806388943269	47.20710909194
7	886	2179.002549720962	44.164970484565
7	889	2182.720440963057	43.675005046891
7	900	2206.168681040172	62.5213118323
7	901	2212.214865992526	54.398635851301
7	904	2214.271800610735	36.109243552722
7	905	2214.860367200873	34.527521028297
7	908	2222.612391010834	38.644355987989
7	909	2231.129738455638	44.370782791381
7	912	2234.850501501365	43.713169755373
7	913	2236.161818013096	41.163699196134
7	914	2240.710827760796	44.586072196275
7	915	2245.870762468753	31.633425352566
7	916	2246.734203115807	31.662853256681
7	917	2252.12851132476	19.784227086689
7	924	2263.014430998543	8.741087396473
7	925	2266.531346194937	11.406078704972
7	930	2272.374051275472	14.122414738061
7	933	2280.389749531416	13.833894785169
7	934	2281.206480666748	11.386129778866
7	935	2282.397044822053	7.005857086226
7	944	2291.906522624516	7.752059587876
7	945	2295.066494527152	9.123286112234
7	950	2296.184527718731	7.617487334368
7	955	2307.162797771847	18.434482697987
7	956	2308.162695365682	12.608085215402
7	957	2308.166615826969	12.55138788932
7	958	2308.217646918957	7.732934975637
7	959	2308.23409998424	2.848309255161
7	962	2312.054615872619	0.599870100601
7	965	2319.928991314839	0
7	974	2346.328610714533	6.759707200484
7	977	2348.134026069078	0.031886725067
7	980	2353.669091948371	1.773080310715
7	983	2361.142496454305	0
7	986	2373.270587371442	0
7	994	2403.726178931243	3.056139662111
7	995	2406.042443566529	4.619228066513
7	1029	2479.535597693171	39.399650171265
7	1032	2493.613176892169	49.964172832158
7	1033	2495.559349778288	46.950619959927
8	153	390.667557836333	39
8	156	415.577839558563	40
8	162	432.661792125001	41
8	173	466.694764113625	42
8	176	467.371354040324	43
8	183	481.372137183763	44
8	186	482.135478255164	45
8	192	488.376805324866	46
8	195	492.395841843595	47
8	201	509.523962395616	48
8	207	530.890464019244	49
8	213	546.861477980403	50
8	218	559.623931971024	51
8	219	568.561245982306	52
8	222	575.818260303171	53
8	225	579.54941419248	54
8	235	643.304756211563	55
8	245	659.024965490267	56
8	246	659.228975299642	57
8	249	668.668775694493	58
8	250	669.245719413605	59
8	254	681.569335921605	60
8	255	682.358489692307	61
8	258	687.446210089127	62
8	264	717.204868878601	63
8	284	754.743245349402	64
8	285	754.871791908698	65
8	286	755.23004773838	66
8	292	767.810945335757	67
8	293	768.928255495798	68
8	294	771.094791606745	69
8	297	790.248423886816	70
8	308	840.994929459719	71
8	309	841.760141589309	72
8	312	848.443661695181	73
8	324	900.781892966397	74
8	330	949.370967448142	75
8	333	951.914692525821	76
8	339	973.54933267396	77
8	342	984.329568821555	78
8	345	1006.547708763135	79
8	353	1029.676965757904	80
8	359	1039.923373387889	81
8	381	1068.663930734324	82
8	386	1073.23875071295	83
8	387	1077.595007338462	84
8	388	1079.878694029008	85
8	402	1107.609021692798	86
8	403	1108.10108795227	87
8	408	1115.981221009761	88
8	409	1117.404608431077	89
8	414	1125.389368268066	90
8	415	1130.741286582511	91
8	416	1132.231414274286	92
8	417	1133.294755979472	93
8	418	1136.082901717627	94
8	422	1141.312799913784	95
8	423	1141.798007736546	96
8	424	1143.681877744281	97
8	425	1145.601550489016	98
8	426	1145.963850039143	99
8	432	1156.959584521537	100
8	440	1176.887895123007	101
8	443	1183.462151266795	102
8	444	1185.062885310537	103
8	449	1189.064060417956	104
8	450	1191.060920181923	105
8	453	1202.763409949757	106
8	464	1210.730003743757	107
8	470	1216.692409531049	108
8	480	1251.74859227812	109
8	481	1257.847049039623	110
8	482	1258.876281219817	111
8	491	1287.932886873313	112
8	494	1292.261871410448	113
8	495	1297.760190425542	114
8	501	1318.204557679989	115
8	504	1350.425105742835	116
8	510	1375.37458425855	117
8	513	1380.491616557277	118
8	516	1383.108792899267	119
8	519	1400.297092885064	120
8	528	1416.430136677644	121
8	531	1425.107521310669	122
8	534	1435.915718981077	123
8	537	1450.287437275137	124
8	559	1491.613183642899	125
8	560	1492.488882526738	126
8	561	1493.531598825208	127
8	564	1499.594767898525	128
8	567	1506.412885681359	129
8	568	1506.49675971627	130
8	569	1510.528514753339	131
8	570	1510.565559838863	132
8	584	1547.834025590659	133
8	587	1567.903315617746	134
8	588	1569.250333683099	135
8	602	1645.318572931261	136
8	605	1647.432758638054	137
8	606	1647.553891068554	138
8	609	1668.71214713545	139
8	614	1673.758400362202	140
8	617	1677.319841432773	141
8	618	1679.04790224914	142
8	621	1680.82813659401	143
8	626	1685.984976052347	144
8	629	1688.717906476117	145
8	635	1701.678724901146	146
8	636	1702.095743789385	147
8	639	1704.115763947557	148
8	646	1710.767845757071	149
8	647	1712.938536837334	150
8	650	1713.812334541423	151
8	653	1717.163169310992	152
8	664	1736.007112415423	153
8	665	1736.986386510467	154
8	666	1739.599952492827	155
8	702	1813.550448040978	156
8	705	1814.686088615251	157
8	706	1815.561875107563	158
8	711	1823.779169106057	159
8	712	1825.221846573037	160
8	713	1827.130969407494	161
8	716	1827.949358766305	162
8	722	1838.475663861528	163
8	723	1843.879606014253	164
8	724	1844.40517321142	165
8	725	1850.626803402886	166
8	726	1852.925973368975	167
8	732	1877.500067763102	168
8	735	1879.753248355759	169
8	749	1902.830734492938	170
8	750	1903.046258901869	171
8	755	1909.963386555433	172
8	772	1944.799116479996	173
8	773	1945.376162062498	174
8	774	1947.191205939881	175
8	777	1962.613377564642	176
8	786	1979.593371336692	177
8	802	2001.555836949938	178
8	803	2002.126467916527	179
8	811	2015.251593918122	180
8	812	2017.349538957217	181
8	815	2027.394660398308	182
8	816	2027.490477480198	183
8	822	2048.857925264069	184
8	823	2050.224495740314	185
8	824	2051.015528106249	186
8	825	2053.062218353676	187
8	828	2054.779578222648	188
8	831	2065.529968452651	189
8	834	2076.789901474959	190
8	842	2087.893844527987	191
8	845	2089.154180893339	192
8	846	2093.942085378881	193
8	858	2117.767059523049	194
8	859	2120.980737627654	195
8	860	2123.397080008551	196
8	886	2179.002549720962	197
8	889	2182.720440963057	198
8	901	2212.214865992526	199
8	905	2214.860367200873	200
8	908	2222.612391010834	201
8	909	2231.129738455638	202
8	913	2236.161818013096	203
8	914	2240.710827760796	204
8	915	2245.870762468753	205
8	916	2246.734203115807	206
8	917	2252.12851132476	207
8	925	2266.531346194937	208
8	933	2280.389749531416	209
8	934	2281.206480666748	210
8	935	2282.397044822053	211
8	945	2295.066494527152	212
8	950	2296.184527718731	213
8	956	2308.162695365682	214
8	957	2308.166615826969	215
8	958	2308.217646918957	216
8	959	2308.23409998424	217
8	962	2312.054615872619	218
8	963	2315.342294311658	219
8	966	2325.253889319742	220
8	981	2355.061424865491	221
8	984	2363.925813720333	222
8	987	2374.320392834747	223
8	995	2406.042443566529	224
8	996	2413.099808779801	225
8	1033	2495.559349778288	226
9	153	390.667557836333	4.8106579616
9	156	415.577839558563	6.886123939238
9	162	432.661792125001	10.529143875181
9	173	466.694764113625	20.875706484118
9	176	467.371354040324	13.283704207699
9	183	481.372137183763	10.890122524783
9	186	482.135478255164	0.17723200218
9	192	488.376805324866	1.081561537144
9	195	492.395841843595	1.210939794774
9	201	509.523962395616	2.128681418745
9	207	530.890464019244	0.241971817935
9	213	546.861477980403	3.272998997062
9	218	559.623931971024	4.868258535925
9	219	568.561245982306	13.247982672608
9	222	575.818260303171	0.23063507423
9	225	579.54941419248	0.266072431597
9	235	643.304756211563	47.109763011542
9	245	659.024965490267	18.098668052361
9	246	659.228975299642	14.69641016806
9	249	668.668775694493	18.781919007265
9	250	669.245719413605	13.254465122191
9	254	681.569335921605	19.97463355903
9	255	682.358489692307	5.872529500367
9	258	687.446210089127	3.88858455973
9	264	717.204868878601	9.591895688907
9	284	754.743245349402	23.379699238494
9	285	754.871791908698	22.316605691861
9	286	755.23004773838	21.291093502458
9	292	767.810945335757	22.734471158991
9	293	768.928255495798	11.241403383938
9	294	771.094791606745	11.97277197892
9	297	790.248423886816	0.030690575721
9	308	840.994929459719	43.390026314429
9	309	841.760141589309	31.496557890229
9	312	848.443661695181	3.618523059385
9	324	900.781892966397	15.682619555881
9	330	949.370967448142	0.398211778957
9	333	951.914692525821	1.070712751514
9	339	973.54933267396	1.52525756674
9	342	984.329568821555	2.4010069411
9	345	1006.547708763135	1.705472385457
9	353	1029.676965757904	3.918340420436
9	359	1039.923373387889	8.886612391804
9	381	1068.663930734324	25.760458529261
9	386	1073.23875071295	29.949687199345
9	387	1077.595007338462	31.531066979262
9	388	1079.878694029008	32.432409954067
9	402	1107.609021692798	50.058751571105
9	403	1108.10108795227	47.06849367194
9	408	1115.981221009761	45.790074180034
9	409	1117.404608431077	47.117765836948
9	414	1125.389368268066	42.553947662887
9	415	1130.741286582511	44.713365724776
9	416	1132.231414274286	37.999673591505
9	417	1133.294755979472	32.037976603812
9	418	1136.082901717627	32.876178338883
9	422	1141.312799913784	32.141719612445
9	423	1141.798007736546	30.410218743784
9	424	1143.681877744281	21.871946364214
9	425	1145.601550489016	21.235198946942
9	426	1145.963850039143	8.947145521695
9	432	1156.959584521537	2.389559022053
9	440	1176.887895123007	9.833258021837
9	443	1183.462151266795	11.740727063823
9	444	1185.062885310537	5.854103805572
9	449	1189.064060417956	2.526862344977
9	450	1191.060920181923	3.169689290734
9	453	1202.763409949757	0.087746750737
9	464	1210.730003743757	1.516878171581
9	470	1216.692409531049	5.750901954171
9	480	1251.74859227812	33.040030618885
9	481	1257.847049039623	14.303634809297
9	482	1258.876281219817	11.919976363586
9	491	1287.932886873313	28.262691567425
9	494	1292.261871410448	23.385342465647
9	495	1297.760190425542	9.435369715705
9	501	1318.204557679989	6.68225684563
9	504	1350.425105742835	2.505242172664
9	510	1375.37458425855	0.506554253256
9	513	1380.491616557277	0.913579915724
9	516	1383.108792899267	2.471855592465
9	519	1400.297092885064	8.139737399854
9	528	1416.430136677644	13.821215735658
9	531	1425.107521310669	2.386447014238
9	534	1435.915718981077	1.385507546219
9	537	1450.287437275137	2.721053066815
9	559	1491.613183642899	31.073053893021
9	560	1492.488882526738	26.849016118649
9	561	1493.531598825208	27.425481166541
9	564	1499.594767898525	28.226476250858
9	567	1506.412885681359	27.435934201054
9	568	1506.49675971627	19.835448002435
9	569	1510.528514753339	12.016204559601
9	570	1510.565559838863	5.140031785476
9	584	1547.834025590659	25.954538898593
9	587	1567.903315617746	21.343783219427
9	588	1569.250333683099	5.871965377686
9	602	1645.318572931261	6.261586042742
9	605	1647.432758638054	4.33772240111
9	606	1647.553891068554	2.007868605965
9	609	1668.71214713545	7.077333131014
9	614	1673.758400362202	2.17848760344
9	617	1677.319841432773	5.294226870858
9	618	1679.04790224914	5.278231411548
9	621	1680.82813659401	1.411570620218
9	626	1685.984976052347	4.367018813773
9	629	1688.717906476117	7.01038209734
9	635	1701.678724901146	11.075991364917
9	636	1702.095743789385	9.273716382115
9	639	1704.115763947557	1.924105980086
9	646	1710.767845757071	5.934839389953
9	647	1712.938536837334	7.33938486579
9	650	1713.812334541423	3.781609640555
9	653	1717.163169310992	3.421405471927
9	664	1736.007112415423	18.34946062899
9	665	1736.986386510467	8.109729398887
9	666	1739.599952492827	5.905847627394
9	702	1813.550448040978	67.509881584054
9	705	1814.686088615251	52.870829215769
9	706	1815.561875107563	41.76612000069
9	711	1823.779169106057	30.860233668645
9	712	1825.221846573037	22.944402218119
9	713	1827.130969407494	23.454303225149
9	716	1827.949358766305	14.508823916412
9	722	1838.475663861528	18.073298845355
9	723	1843.879606014253	22.265174708392
9	724	1844.40517321142	17.256143594782
9	725	1850.626803402886	18.482325409935
9	726	1852.925973368975	19.488944785794
9	732	1877.500067763102	1.273639621518
9	735	1879.753248355759	0.041976126058
9	749	1902.830734492938	19.024046494392
9	750	1903.046258901869	0.575612725332
9	755	1909.963386555433	2.434295342422
9	772	1944.799116479996	31.601394727163
9	773	1945.376162062498	10.252402884224
9	774	1947.191205939881	8.693346519553
9	777	1962.613377564642	0.355845236477
9	786	1979.593371336692	10.294015394098
9	802	2001.555836949938	15.510922745431
9	803	2002.126467916527	12.439230287231
9	811	2015.251593918122	23.47020926965
9	812	2017.349538957217	22.897173588236
9	815	2027.394660398308	32.318136392283
9	816	2027.490477480198	24.304464473311
9	822	2048.857925264069	38.919786448359
9	823	2050.224495740314	24.654712910584
9	824	2051.015528106249	10.465003758515
9	825	2053.062218353676	12.447093114347
9	828	2054.779578222648	0.56767134493
9	831	2065.529968452651	0.370165211003
9	834	2076.789901474959	4.564402941741
9	842	2087.893844527987	6.90675805797
9	845	2089.154180893339	2.063801597694
9	846	2093.942085378881	5.050819058424
9	858	2117.767059523049	3.784775451901
9	859	2120.980737627654	6.164073114455
9	860	2123.397080008551	8.005811466392
9	886	2179.002549720962	49.403269869633
9	889	2182.720440963057	47.88286172666
9	901	2212.214865992526	68.567496784654
9	905	2214.860367200873	36.69781014286
9	908	2222.612391010834	42.279544838258
9	909	2231.129738455638	47.161703432793
9	913	2236.161818013096	45.024486267104
9	914	2240.710827760796	45.712708943834
9	915	2245.870762468753	49.746006904232
9	916	2246.734203115807	32.49686599962
9	917	2252.12851132476	37.057161465634
9	925	2266.531346194937	12.258002592867
9	933	2280.389749531416	22.138112994005
9	934	2281.206480666748	14.650625920501
9	935	2282.397044822053	12.576693934171
9	945	2295.066494527152	10.912031490512
9	950	2296.184527718731	10.241319303813
9	956	2308.162695365682	19.434380291822
9	957	2308.166615826969	12.612005676689
9	958	2308.217646918957	12.602418981308
9	959	2308.23409998424	7.74938804092
9	962	2312.054615872619	6.66882514354
9	963	2315.342294311658	3.88754853964
9	966	2325.253889319742	5.324898004903
9	981	2355.061424865491	3.165413227835
9	984	2363.925813720333	2.783317266028
9	987	2374.320392834747	1.049805463305
9	995	2406.042443566529	5.372404297397
9	996	2413.099808779801	11.676593279785
9	1033	2495.559349778288	51.910345718277
10	178	469.450297919605	5
10	181	470.48201465898	6
10	190	487.295243787722	7
10	237	644.532565131582	8
10	252	676.48596019194	9
10	290	759.122019627825	10
10	355	1031.036760996085	11
10	369	1047.446284074941	12
10	372	1052.038242407772	13
10	390	1082.835420605179	14
10	420	1137.016704517448	15
10	457	1206.487230796995	16
10	462	1209.753595283991	17
10	466	1210.941507576878	18
10	472	1218.708561659235	19
10	484	1259.670195305888	20
10	574	1513.15314658393	21
10	582	1546.559532398319	22
10	631	1690.602733536229	23
10	655	1717.657651786433	24
10	670	1746.040566456924	25
10	718	1832.144477992951	26
10	757	1913.197721752833	27
10	798	1994.452365368981	28
10	805	2003.186013006887	29
10	820	2040.615125239329	30
10	838	2080.987086470017	31
10	862	2129.599279851329	32
10	891	2183.968035022845	33
10	903	2214.237337116187	34
10	911	2232.344284238071	35
10	919	2254.27334360207	36
10	927	2266.555854746247	37
10	937	2284.15446303664	38
10	952	2300.48471194332	39
10	976	2348.102139344011	40
10	979	2351.896011637656	41
10	1031	2483.711986540473	42
11	1036	2500	0.0904
12	1036	2500	0.046

