version 2
run experiments_easy_game_mode1-1828-20230308-12:08:37-27929
attr configname experiments_easy_game_mode1
attr datetime 20230308-12:08:37
attr experiment experiments_easy_game_mode1
attr inifile omnetpp.ini
attr iterationvars "$0=7.5, $1=1, $2=0"
attr iterationvarsf 7.5,1,0-
attr measurement "$0=7.5, $1=1, $2=0"
attr network Network
attr processid 27929
attr repetition 28
attr replication #28
attr resultdir results
attr runnumber 1828
attr seedset 28
param *.boss.arrival_mean 20
param *.boss.service_mean 7.5
param *.minion.arrival_mean 10
param *.minion.service_mean 1
param *.player.recover_rate_x 0
param **.minion.arrival_distribution 0
param **.minion.service_distribution 0
param **.boss.arrival_distribution 0
param **.boss.service_distribution 0

vector 0 Network.player minion_jobs_number_stat:vector ETV
attr source signal_minion_jobs_number
vector 1 Network.player minion_jobs_queue_number_stat:vector ETV
attr source signal_minion_jobs_queue_number
vector 2 Network.player minion_waiting_time_stat:vector ETV
attr source signal_minion_waiting_time
vector 3 Network.player minion_defeated_stat:vector ETV
attr source signal_minion_defeated
vector 4 Network.player minion_response_time_stat:vector ETV
attr source signal_minion_response_time
vector 5 Network.player boss_jobs_number_stat:vector ETV
attr source signal_boss_jobs_number
vector 6 Network.player boss_jobs_queue_number_stat:vector ETV
attr source signal_boss_jobs_queue_number
vector 7 Network.player boss_waiting_time_stat:vector ETV
attr source signal_boss_waiting_time
vector 8 Network.player boss_defeated_stat:vector ETV
attr source signal_boss_defeated
vector 9 Network.player boss_response_time_stat:vector ETV
attr source signal_boss_response_time
vector 10 Network.player minion_recovered_stat:vector ETV
attr source signal_minion_recovered
vector 11 Network.player minion_throughput:vector ETV
attr source signal_minion_throughput
vector 12 Network.player boss_throughput:vector ETV
attr source signal_boss_throughput
0	170	350.294513694894	1
0	173	363.639385191236	1
0	185	395.967732442049	1
0	191	427.159591447421	2
0	193	432.765782918222	3
0	198	449.947678496786	4
0	205	454.945726975953	2
0	210	459.176667775983	2
0	223	486.255948306324	1
0	227	491.012857394079	1
0	230	491.777575685855	1
0	235	507.137759544897	1
0	239	512.556181913125	1
0	241	513.4579622533	2
0	245	527.808006862067	1
0	248	535.706216348722	1
0	251	538.604951992273	1
0	254	540.375021267488	1
0	259	560.447999415621	1
0	261	563.873884554785	2
0	263	571.726134409241	3
0	265	572.186659351179	4
0	272	582.163489332664	1
0	275	586.200971562991	1
0	278	586.801018141556	1
0	285	600.139297678135	1
0	295	621.370227739097	2
0	300	639.646881293396	3
0	306	659.060776399104	4
0	309	671.417531041499	5
0	312	674.211585846454	6
0	315	676.299076244988	6
0	323	693.681225810529	1
0	329	736.134221527032	1
0	332	747.297448632487	1
0	335	752.207732643532	1
0	338	758.413090383666	1
0	341	765.407851661881	1
0	344	770.463541129355	1
0	347	784.88289423812	1
0	353	792.246328686303	1
0	356	803.757996106487	1
0	362	830.613305193708	1
0	365	843.413113944246	1
0	368	849.294871178456	1
0	371	851.704791292802	1
0	374	852.417378293355	1
0	379	866.818236715752	1
0	381	869.09392381702	2
0	383	869.875876308415	3
0	385	876.496034911976	4
0	392	885.934984987796	1
0	394	886.335462395712	2
0	400	891.880284731485	1
0	405	900.205063499668	2
0	407	902.875379046943	3
0	411	908.889970047335	4
0	417	916.853486259358	5
0	419	917.693032700502	6
0	421	926.294494189633	7
0	423	926.930844007641	8
0	428	934.871934789699	9
0	430	935.994326362746	10
0	432	937.677465601314	11
0	445	944.889580167609	2
0	454	954.901572751685	1
0	464	971.368637164473	2
0	466	972.524355441693	3
0	468	979.736233024576	4
0	470	980.954520292716	5
0	474	985.458950389984	6
0	481	992.314140590091	2
0	485	1011.689877239094	1
0	488	1016.425793707413	1
0	491	1023.747950625016	1
0	499	1062.408896828515	1
0	503	1073.920307508341	1
0	506	1086.412763685241	1
0	520	1129.504131067294	1
0	522	1130.137690966545	2
0	530	1142.125729052923	1
0	541	1165.179712411229	1
0	543	1165.298295139806	2
0	554	1194.743970844658	1
0	559	1217.401377583172	1
0	563	1235.076840789736	2
0	565	1237.656652970642	3
0	567	1239.329840174216	4
0	569	1242.417205123507	5
0	577	1253.007032138073	5
0	584	1270.715093928246	1
0	589	1287.140139812766	1
0	596	1311.575579480774	1
0	599	1312.641631723577	1
0	602	1316.994823514032	1
0	605	1318.060865432187	1
0	608	1328.019285020217	1
0	611	1330.670337975008	1
0	614	1333.970644627878	1
0	617	1340.742713307508	1
0	622	1346.771012237382	1
0	624	1351.270470131262	2
0	626	1359.232090685853	3
0	629	1359.562117816025	4
0	631	1360.141407267009	5
0	637	1362.380936788234	2
0	639	1362.446556802255	3
0	644	1364.573313357586	1
0	647	1371.430722611907	1
0	650	1376.481791297443	1
0	653	1388.535971260675	1
0	655	1390.92568428937	2
0	659	1396.260086775359	1
0	662	1398.526102203502	1
0	665	1413.164292923553	1
0	673	1438.443018201108	1
0	675	1446.242418118421	2
0	680	1452.889507469076	1
0	683	1454.61648399024	1
0	686	1457.106807366308	1
0	691	1463.341150504445	1
0	693	1464.518839651967	2
0	695	1465.471329612148	3
0	697	1465.677038760284	4
0	709	1474.210476258838	1
0	713	1476.798781879275	1
0	719	1482.087081506948	2
0	721	1482.241627916752	3
0	732	1490.828201086264	1
0	734	1491.60009994703	2
0	749	1528.860948272361	1
0	756	1535.771305000355	1
0	758	1542.574818051796	2
0	761	1546.140151323238	3
0	763	1550.28545153088	4
0	765	1550.620890325931	5
0	767	1550.911886505854	6
0	769	1551.388269856311	7
0	793	1610.406475456756	1
0	795	1619.737148409179	2
0	799	1623.255613144863	3
0	806	1636.170622927085	1
0	809	1647.276199399388	1
0	815	1653.367597601162	1
0	823	1677.043312469711	1
0	825	1677.669644042182	2
0	833	1696.856404307526	1
0	836	1700.616095823832	1
0	839	1703.81731854165	1
0	841	1703.958884704604	2
0	848	1721.840881323087	1
0	851	1738.639292207234	1
0	854	1740.28301290746	1
0	857	1741.94231495916	1
0	860	1746.278323822409	1
0	862	1747.132978468727	2
0	866	1763.744959369342	1
0	869	1766.832317197775	1
0	872	1781.194061412384	1
0	875	1784.007172870224	1
0	878	1791.444793225007	1
0	889	1818.767574374127	1
0	892	1823.912494308424	2
0	896	1825.031935837156	3
0	898	1826.742113535859	4
0	900	1829.177898004458	5
0	902	1830.475974871447	6
0	905	1832.727478097734	7
0	910	1837.836836424692	5
0	917	1849.063043979003	1
0	920	1855.172356944006	1
0	923	1857.001293247168	1
0	925	1858.512785288162	2
0	929	1865.0163181571	1
0	932	1870.890209302152	1
0	937	1882.319536835075	1
0	939	1894.652070974355	2
0	941	1897.0452703193	3
0	945	1901.13905651228	3
0	950	1906.165645035977	1
0	953	1911.414594258261	1
0	956	1913.696463255112	1
0	961	1918.988644349112	1
0	963	1921.236140018328	2
0	965	1925.822683503792	3
0	967	1930.040236147994	4
0	974	1942.644956077952	1
0	977	1954.128819601869	1
0	979	1954.985926865917	2
0	983	1976.050555183861	1
0	986	1988.908814795108	1
0	989	1994.899296821272	1
0	992	2000.710797375236	1
0	995	2017.872222831108	1
0	998	2023.586400580186	1
0	1001	2035.149372275751	1
0	1004	2036.383769932827	1
0	1009	2052.6402209119	1
0	1011	2053.438782548318	2
0	1013	2056.466399041406	3
0	1018	2067.862028175937	4
0	1020	2076.376692711629	5
0	1024	2081.776984030721	5
0	1028	2083.457158291611	4
0	1034	2105.145380865089	1
0	1037	2135.309728064205	1
0	1040	2154.455229077172	1
0	1042	2156.522746367308	2
0	1046	2169.554756261325	1
0	1049	2170.07863638295	1
0	1060	2198.576693982376	1
0	1062	2201.61030075626	2
0	1065	2203.10283473555	3
0	1069	2204.885680249809	2
0	1073	2212.638258954712	1
0	1076	2229.449308528692	1
0	1079	2233.203004793729	1
0	1082	2234.707007767304	1
0	1085	2242.872358595071	1
0	1091	2255.528460384978	1
0	1097	2271.690803451792	1
0	1100	2277.261690615057	1
0	1103	2286.562431843466	1
0	1106	2288.617014748565	1
0	1109	2290.195723633174	1
0	1112	2291.789356918091	1
0	1115	2294.486130733997	1
0	1118	2301.721929275329	1
0	1121	2304.632968356191	1
0	1128	2330.756959188175	1
0	1136	2347.337730131784	1
0	1138	2347.355279760539	2
0	1141	2347.821212135755	2
0	1145	2349.35594733363	1
0	1148	2353.101277890705	1
0	1151	2357.587073636544	1
0	1154	2360.550717446282	1
0	1157	2392.293092303921	1
0	1163	2398.988939380238	1
0	1165	2399.35765296574	2
0	1169	2405.934133730232	1
0	1172	2415.654602181887	1
0	1183	2440.870673671743	1
0	1185	2444.982830372601	2
0	1190	2454.204788739677	1
0	1193	2463.184025075622	1
0	1195	2463.460184766505	2
1	170	350.294513694894	0
1	171	350.375407180281	0
1	173	363.639385191236	0
1	174	365.426635339652	0
1	185	395.967732442049	0
1	191	427.159591447421	1
1	193	432.765782918222	2
1	198	449.947678496786	3
1	201	454.172892976537	3
1	202	454.482150626873	2
1	203	454.580664956471	1
1	205	454.945726975953	1
1	206	456.392741729341	1
1	210	459.176667775983	1
1	212	462.401495226092	1
1	213	463.161053412799	0
1	223	486.255948306324	0
1	225	487.161476001706	0
1	227	491.012857394079	0
1	228	491.740404646579	0
1	230	491.777575685855	0
1	231	493.620480713214	0
1	235	507.137759544897	0
1	237	508.220525303669	0
1	239	512.556181913125	0
1	241	513.4579622533	1
1	242	514.09584864668	1
1	243	516.607538726544	0
1	245	527.808006862067	0
1	246	529.299981573666	0
1	248	535.706216348722	0
1	249	536.804804121555	0
1	251	538.604951992273	0
1	252	538.728682971817	0
1	254	540.375021267488	0
1	255	540.567125897582	0
1	259	560.447999415621	0
1	261	563.873884554785	1
1	263	571.726134409241	2
1	265	572.186659351179	3
1	267	575.46032893331	3
1	268	575.705835067276	2
1	269	575.937415768497	1
1	270	576.568293161246	0
1	272	582.163489332664	0
1	273	582.323998569376	0
1	275	586.200971562991	0
1	276	586.773479776969	0
1	278	586.801018141556	0
1	279	587.004264507287	0
1	285	600.139297678135	0
1	295	621.370227739097	1
1	300	639.646881293396	2
1	306	659.060776399104	3
1	309	671.417531041499	4
1	312	674.211585846454	5
1	313	675.361794856164	5
1	315	676.299076244988	5
1	316	677.065116531485	5
1	317	677.316915850697	4
1	318	677.884716495137	3
1	319	678.773925688633	2
1	320	678.842096842652	1
1	321	679.166721743225	0
1	323	693.681225810529	0
1	324	693.690177539914	0
1	329	736.134221527032	0
1	330	736.880183556098	0
1	332	747.297448632487	0
1	333	747.341770179674	0
1	335	752.207732643532	0
1	336	752.507969342757	0
1	338	758.413090383666	0
1	339	758.5759321391	0
1	341	765.407851661881	0
1	342	766.160639787414	0
1	344	770.463541129355	0
1	345	770.979262058801	0
1	347	784.88289423812	0
1	351	790.973846484481	0
1	353	792.246328686303	0
1	354	793.234401291009	0
1	356	803.757996106487	0
1	357	804.543614438177	0
1	362	830.613305193708	0
1	363	831.505175140163	0
1	365	843.413113944246	0
1	366	843.690260386522	0
1	368	849.294871178456	0
1	369	849.345641486764	0
1	371	851.704791292802	0
1	372	851.803770019874	0
1	374	852.417378293355	0
1	375	853.085095042358	0
1	379	866.818236715752	0
1	381	869.09392381702	1
1	383	869.875876308415	2
1	385	876.496034911976	3
1	387	880.744504247504	3
1	388	884.129515154117	2
1	389	884.292369817823	1
1	390	884.638161305848	0
1	392	885.934984987796	0
1	394	886.335462395712	1
1	395	888.183525521845	1
1	396	888.438374600918	0
1	400	891.880284731485	0
1	405	900.205063499668	1
1	407	902.875379046943	2
1	411	908.889970047335	3
1	417	916.853486259358	4
1	419	917.693032700502	5
1	421	926.294494189633	6
1	423	926.930844007641	7
1	428	934.871934789699	8
1	430	935.994326362746	9
1	432	937.677465601314	10
1	434	938.686987260065	10
1	435	939.0432351987	9
1	436	939.361877592939	8
1	437	939.511104345811	7
1	438	939.517605172242	6
1	439	940.588663885886	5
1	440	941.500000554029	4
1	441	941.692515687912	3
1	442	943.274099545512	2
1	443	944.044706472213	1
1	445	944.889580167609	1
1	446	944.957555801489	1
1	447	946.028949490202	0
1	454	954.901572751685	0
1	464	971.368637164473	1
1	466	972.524355441693	2
1	468	979.736233024576	3
1	470	980.954520292716	4
1	474	985.458950389984	5
1	475	985.776615429909	5
1	476	986.797697926303	4
1	477	988.838732679491	3
1	478	989.668378859863	2
1	479	990.975812825906	1
1	481	992.314140590091	1
1	482	994.179490199122	1
1	483	995.628348631276	0
1	485	1011.689877239094	0
1	486	1013.984141621143	0
1	488	1016.425793707413	0
1	489	1020.398415251214	0
1	491	1023.747950625016	0
1	492	1024.535316401278	0
1	499	1062.408896828515	0
1	501	1066.89013655513	0
1	503	1073.920307508341	0
1	504	1074.787901611439	0
1	506	1086.412763685241	0
1	507	1087.178107601729	0
1	520	1129.504131067294	0
1	522	1130.137690966545	1
1	524	1131.826151116524	1
1	525	1131.912782049247	0
1	530	1142.125729052923	0
1	531	1142.784717368633	0
1	541	1165.179712411229	0
1	543	1165.298295139806	1
1	545	1167.42646350219	1
1	546	1167.460793449658	0
1	554	1194.743970844658	0
1	555	1195.050739115617	0
1	559	1217.401377583172	0
1	563	1235.076840789736	1
1	565	1237.656652970642	2
1	567	1239.329840174216	3
1	569	1242.417205123507	4
1	575	1252.328540280593	4
1	577	1253.007032138073	4
1	578	1253.801361479907	4
1	579	1254.041361846161	3
1	580	1257.535991702594	2
1	581	1257.538395886145	1
1	582	1257.916337809019	0
1	584	1270.715093928246	0
1	585	1271.048960621959	0
1	589	1287.140139812766	0
1	591	1290.891959004461	0
1	596	1311.575579480774	0
1	597	1312.142784554697	0
1	599	1312.641631723577	0
1	600	1312.868837015762	0
1	602	1316.994823514032	0
1	603	1317.649774526583	0
1	605	1318.060865432187	0
1	606	1319.213595252777	0
1	608	1328.019285020217	0
1	609	1328.214521664237	0
1	611	1330.670337975008	0
1	612	1332.484636377459	0
1	614	1333.970644627878	0
1	615	1334.157264986402	0
1	617	1340.742713307508	0
1	618	1342.228256734052	0
1	622	1346.771012237382	0
1	624	1351.270470131262	1
1	626	1359.232090685853	2
1	629	1359.562117816025	3
1	631	1360.141407267009	4
1	632	1360.833787768205	4
1	633	1361.237540893225	3
1	634	1361.910054914306	2
1	635	1362.060634293802	1
1	637	1362.380936788234	1
1	639	1362.446556802255	2
1	640	1362.90302280362	2
1	641	1363.103282613284	1
1	642	1363.680644356959	0
1	644	1364.573313357586	0
1	645	1366.052387086937	0
1	647	1371.430722611907	0
1	648	1372.957250129551	0
1	650	1376.481791297443	0
1	651	1376.615444275235	0
1	653	1388.535971260675	0
1	655	1390.92568428937	1
1	656	1391.138061867606	1
1	657	1392.80614057201	0
1	659	1396.260086775359	0
1	660	1396.715545889536	0
1	662	1398.526102203502	0
1	663	1399.728305825928	0
1	665	1413.164292923553	0
1	666	1413.444666124301	0
1	673	1438.443018201108	0
1	675	1446.242418118421	1
1	677	1448.761583949073	1
1	678	1449.399756562267	0
1	680	1452.889507469076	0
1	681	1453.967840781783	0
1	683	1454.61648399024	0
1	684	1454.667313799087	0
1	686	1457.106807366308	0
1	687	1459.896132004832	0
1	691	1463.341150504445	0
1	693	1464.518839651967	1
1	695	1465.471329612148	2
1	697	1465.677038760284	3
1	699	1466.340535016989	3
1	703	1467.177250069075	2
1	704	1467.515226615453	1
1	705	1469.381988531425	0
1	709	1474.210476258838	0
1	711	1476.414125799263	0
1	713	1476.798781879275	0
1	719	1482.087081506948	1
1	721	1482.241627916752	2
1	724	1486.123908777066	2
1	725	1486.620362471399	1
1	726	1487.14504776561	0
1	732	1490.828201086264	0
1	734	1491.60009994703	1
1	737	1502.53558343265	1
1	738	1503.748256535226	0
1	749	1528.860948272361	0
1	750	1529.667920859161	0
1	756	1535.771305000355	0
1	758	1542.574818051796	1
1	761	1546.140151323238	2
1	763	1550.28545153088	3
1	765	1550.620890325931	4
1	767	1550.911886505854	5
1	769	1551.388269856311	6
1	771	1555.882868418165	6
1	772	1556.36478495776	5
1	773	1557.571735907516	4
1	774	1557.849222454788	3
1	775	1557.944938811129	2
1	776	1559.592722560528	1
1	777	1560.039022212603	0
1	793	1610.406475456756	0
1	795	1619.737148409179	1
1	799	1623.255613144863	2
1	802	1632.506801687145	2
1	803	1632.596562766722	1
1	804	1634.403513179491	0
1	806	1636.170622927085	0
1	807	1636.835148746697	0
1	809	1647.276199399388	0
1	810	1648.578999684637	0
1	815	1653.367597601162	0
1	816	1653.650320271525	0
1	823	1677.043312469711	0
1	825	1677.669644042182	1
1	827	1681.854462135314	1
1	828	1682.982510733338	0
1	833	1696.856404307526	0
1	834	1697.615349175398	0
1	836	1700.616095823832	0
1	837	1702.355104030589	0
1	839	1703.81731854165	0
1	841	1703.958884704604	1
1	842	1704.011161954346	1
1	843	1704.207835712868	0
1	848	1721.840881323087	0
1	849	1722.594891314693	0
1	851	1738.639292207234	0
1	852	1738.659492674885	0
1	854	1740.28301290746	0
1	855	1740.34036654743	0
1	857	1741.94231495916	0
1	858	1743.263684942193	0
1	860	1746.278323822409	0
1	862	1747.132978468727	1
1	863	1747.265236094822	1
1	864	1748.409615698129	0
1	866	1763.744959369342	0
1	867	1764.406070965107	0
1	869	1766.832317197775	0
1	870	1768.437141589549	0
1	872	1781.194061412384	0
1	873	1781.246982663056	0
1	875	1784.007172870224	0
1	876	1784.244667371414	0
1	878	1791.444793225007	0
1	879	1791.511071929357	0
1	889	1818.767574374127	0
1	892	1823.912494308424	1
1	896	1825.031935837156	2
1	898	1826.742113535859	3
1	900	1829.177898004458	4
1	902	1830.475974871447	5
1	905	1832.727478097734	6
1	906	1833.530540863117	6
1	907	1836.139642839508	5
1	908	1836.74320303742	4
1	910	1837.836836424692	4
1	911	1838.209776628106	4
1	912	1839.236520326953	3
1	913	1839.272195859416	2
1	914	1839.687334758493	1
1	915	1841.536368348047	0
1	917	1849.063043979003	0
1	918	1849.980031048436	0
1	920	1855.172356944006	0
1	921	1855.256057649485	0
1	923	1857.001293247168	0
1	925	1858.512785288162	1
1	926	1858.950247015511	1
1	927	1860.566669772524	0
1	929	1865.0163181571	0
1	930	1865.053710624765	0
1	932	1870.890209302152	0
1	933	1872.753147110646	0
1	937	1882.319536835075	0
1	939	1894.652070974355	1
1	941	1897.0452703193	2
1	943	1900.606837499963	2
1	945	1901.13905651228	2
1	946	1901.654518796479	2
1	947	1902.635747861746	1
1	948	1902.965182181154	0
1	950	1906.165645035977	0
1	951	1907.000331571306	0
1	953	1911.414594258261	0
1	954	1911.440455962182	0
1	956	1913.696463255112	0
1	957	1914.212584182094	0
1	961	1918.988644349112	0
1	963	1921.236140018328	1
1	965	1925.822683503792	2
1	967	1930.040236147994	3
1	969	1931.048048637379	3
1	970	1931.058068511461	2
1	971	1932.77836663299	1
1	972	1934.977561744123	0
1	974	1942.644956077952	0
1	975	1943.607820607693	0
1	977	1954.128819601869	0
1	979	1954.985926865917	1
1	980	1958.431601726582	1
1	981	1960.015844870591	0
1	983	1976.050555183861	0
1	984	1976.330860614698	0
1	986	1988.908814795108	0
1	987	1990.021542435332	0
1	989	1994.899296821272	0
1	990	1995.154536669166	0
1	992	2000.710797375236	0
1	993	2001.130496601346	0
1	995	2017.872222831108	0
1	996	2018.286053031677	0
1	998	2023.586400580186	0
1	999	2023.870582978451	0
1	1001	2035.149372275751	0
1	1002	2035.974621479238	0
1	1004	2036.383769932827	0
1	1005	2038.090302774832	0
1	1009	2052.6402209119	0
1	1011	2053.438782548318	1
1	1013	2056.466399041406	2
1	1018	2067.862028175937	3
1	1020	2076.376692711629	4
1	1022	2080.975207722568	4
1	1024	2081.776984030721	4
1	1025	2082.113813471063	4
1	1026	2082.144339345253	3
1	1028	2083.457158291611	3
1	1029	2084.139565055899	3
1	1030	2085.177068981538	2
1	1031	2085.546720537791	1
1	1032	2086.278976001262	0
1	1034	2105.145380865089	0
1	1035	2105.582978369982	0
1	1037	2135.309728064205	0
1	1038	2135.539638618228	0
1	1040	2154.455229077172	0
1	1042	2156.522746367308	1
1	1043	2156.524983999774	1
1	1044	2156.879002865802	0
1	1046	2169.554756261325	0
1	1047	2169.667003353336	0
1	1049	2170.07863638295	0
1	1050	2175.173164647589	0
1	1060	2198.576693982376	0
1	1062	2201.61030075626	1
1	1065	2203.10283473555	2
1	1066	2203.281296740843	2
1	1067	2204.306360821167	1
1	1069	2204.885680249809	1
1	1070	2210.428347953542	1
1	1071	2210.947165783508	0
1	1073	2212.638258954712	0
1	1074	2215.361550437061	0
1	1076	2229.449308528692	0
1	1077	2230.180350652066	0
1	1079	2233.203004793729	0
1	1080	2233.587098848372	0
1	1082	2234.707007767304	0
1	1083	2235.282464044122	0
1	1085	2242.872358595071	0
1	1089	2245.680628036504	0
1	1091	2255.528460384978	0
1	1092	2255.626380262295	0
1	1097	2271.690803451792	0
1	1098	2272.724598605712	0
1	1100	2277.261690615057	0
1	1101	2279.220251178389	0
1	1103	2286.562431843466	0
1	1104	2286.603907392764	0
1	1106	2288.617014748565	0
1	1107	2290.115348475938	0
1	1109	2290.195723633174	0
1	1110	2290.969791024116	0
1	1112	2291.789356918091	0
1	1113	2292.971329316884	0
1	1115	2294.486130733997	0
1	1116	2294.842219705225	0
1	1118	2301.721929275329	0
1	1119	2302.820415857554	0
1	1121	2304.632968356191	0
1	1122	2305.380943143684	0
1	1128	2330.756959188175	0
1	1131	2334.091519286187	0
1	1136	2347.337730131784	0
1	1138	2347.355279760539	1
1	1139	2347.711584852395	1
1	1141	2347.821212135755	1
1	1142	2347.906096150325	1
1	1143	2348.613381800857	0
1	1145	2349.35594733363	0
1	1146	2349.971572280975	0
1	1148	2353.101277890705	0
1	1149	2354.177755567167	0
1	1151	2357.587073636544	0
1	1152	2360.492636994685	0
1	1154	2360.550717446282	0
1	1155	2362.81316654634	0
1	1157	2392.293092303921	0
1	1158	2393.80049595942	0
1	1163	2398.988939380238	0
1	1165	2399.35765296574	1
1	1166	2400.864976072501	1
1	1167	2402.753461636873	0
1	1169	2405.934133730232	0
1	1170	2405.973931160298	0
1	1172	2415.654602181887	0
1	1176	2419.750080716447	0
1	1183	2440.870673671743	0
1	1185	2444.982830372601	1
1	1187	2448.104612233657	1
1	1188	2450.807335795844	0
1	1190	2454.204788739677	0
1	1191	2454.968503339078	0
1	1193	2463.184025075622	0
1	1195	2463.460184766505	1
1	1196	2464.641733712623	1
1	1197	2465.518065173821	0
2	170	350.294513694894	0
2	173	363.639385191236	0
2	200	454.07024671745	58.102514275401
2	201	454.172892976537	27.013301529116
2	202	454.482150626873	21.716367708651
2	203	454.580664956471	4.632986459685
2	206	456.392741729341	1.447014753388
2	211	460.098558733044	2.679535498482
2	212	462.401495226092	3.224827450109
2	224	486.641584195766	0.385635889442
2	227	491.012857394079	0
2	230	491.777575685855	0
2	236	508.116732772616	0.978973227719
2	239	512.556181913125	0
2	242	514.09584864668	0.63788639338
2	245	527.808006862067	0
2	248	535.706216348722	0
2	251	538.604951992273	0
2	254	540.375021267488	0
2	266	574.767670267163	14.319670851542
2	267	575.46032893331	11.586444378525
2	268	575.705835067276	3.979700658035
2	269	575.937415768497	3.750756417318
2	272	582.163489332664	0
2	275	586.200971562991	0
2	278	586.801018141556	0
2	310	673.160371153048	73.021073474913
2	313	675.361794856164	53.991567117067
2	316	677.065116531485	37.418235238089
2	317	677.316915850697	18.256139451593
2	318	677.884716495137	6.467185453638
2	319	678.773925688633	4.562339842179
2	320	678.842096842652	2.543020597664
2	323	693.681225810529	0
2	329	736.134221527032	0
2	332	747.297448632487	0
2	335	752.207732643532	0
2	338	758.413090383666	0
2	341	765.407851661881	0
2	344	770.463541129355	0
2	347	784.88289423812	0
2	350	790.815317791403	5.716781217403
2	353	792.246328686303	0
2	356	803.757996106487	0
2	362	830.613305193708	0
2	365	843.413113944246	0
2	368	849.294871178456	0
2	371	851.704791292802	0
2	374	852.417378293355	0
2	386	880.53444179825	13.716205082498
2	387	880.744504247504	11.650580430484
2	388	884.129515154117	14.253638845702
2	389	884.292369817823	7.796334905847
2	392	885.934984987796	0
2	395	888.183525521845	1.848063126133
2	433	938.329237305515	46.44895257403
2	434	938.686987260065	38.481923760397
2	435	939.0432351987	36.167856151757
2	436	939.361877592939	30.471907545604
2	437	939.511104345811	22.657618086453
2	438	939.517605172242	21.82457247174
2	439	940.588663885886	14.294169696253
2	440	941.500000554029	14.569156546388
2	441	941.692515687912	6.820580898213
2	442	943.274099545512	7.279773182766
2	443	944.044706472213	6.367240870899
2	446	944.957555801489	0.06797563388
2	472	984.822138054851	29.920565303166
2	475	985.776615429909	14.407978265436
2	476	986.797697926303	14.27334248461
2	477	988.838732679491	9.102499654915
2	478	989.668378859863	8.713858567147
2	479	990.975812825906	5.516862435922
2	482	994.179490199122	1.865349609031
2	485	1011.689877239094	0
2	488	1016.425793707413	0
2	491	1023.747950625016	0
2	500	1066.153333406212	3.744436577697
2	503	1073.920307508341	0
2	506	1086.412763685241	0
2	523	1131.211554901334	1.70742383404
2	524	1131.826151116524	1.688460149979
2	530	1142.125729052923	0
2	544	1167.407221318364	2.227508907135
2	545	1167.42646350219	2.128168362384
2	554	1194.743970844658	0
2	574	1250.543006109229	33.141628526057
2	575	1252.328540280593	17.251699490857
2	578	1253.801361479907	16.144708509265
2	579	1254.041361846161	14.711521671945
2	580	1257.535991702594	15.118786579087
2	581	1257.538395886145	4.531363748072
2	584	1270.715093928246	0
2	590	1290.201860265077	3.061720452311
2	596	1311.575579480774	0
2	599	1312.641631723577	0
2	602	1316.994823514032	0
2	605	1318.060865432187	0
2	608	1328.019285020217	0
2	611	1330.670337975008	0
2	614	1333.970644627878	0
2	617	1340.742713307508	0
2	627	1359.484170590401	12.713158353019
2	632	1360.833787768205	9.563317636943
2	633	1361.237540893225	2.005450207372
2	634	1361.910054914306	2.347937098281
2	635	1362.060634293802	1.919227026793
2	640	1362.90302280362	0.522086015386
2	641	1363.103282613284	0.656725811029
2	644	1364.573313357586	0
2	647	1371.430722611907	0
2	650	1376.481791297443	0
2	653	1388.535971260675	0
2	656	1391.138061867606	0.212377578236
2	659	1396.260086775359	0
2	662	1398.526102203502	0
2	665	1413.164292923553	0
2	676	1447.580880914695	9.137862713587
2	677	1448.761583949073	2.519165830652
2	680	1452.889507469076	0
2	683	1454.61648399024	0
2	686	1457.106807366308	0
2	698	1465.89693943629	2.555788931845
2	699	1466.340535016989	1.821695365022
2	702	1466.969150660398	1.49782104825
2	703	1467.177250069075	1.500211308791
2	704	1467.515226615453	1.173621712466
2	710	1475.612502025077	1.402025766239
2	713	1476.798781879275	0
2	723	1485.796052485383	8.017807236423
2	724	1486.123908777066	4.036827270118
2	725	1486.620362471399	4.378734554647
2	736	1501.031395413896	10.203194327632
2	737	1502.53558343265	10.93548348562
2	749	1528.860948272361	0
2	770	1555.536639147544	19.765334147189
2	771	1555.882868418165	13.308050366369
2	772	1556.36478495776	10.224633634522
2	773	1557.571735907516	7.286284376636
2	774	1557.849222454788	7.228332128857
2	775	1557.944938811129	7.033052305275
2	776	1559.592722560528	8.204452704217
2	801	1631.160000214327	20.753524757571
2	802	1632.506801687145	12.769653277966
2	803	1632.596562766722	9.340949621859
2	806	1636.170622927085	0
2	809	1647.276199399388	0
2	815	1653.367597601162	0
2	826	1679.18271881736	2.139406347649
2	827	1681.854462135314	4.184818093132
2	833	1696.856404307526	0
2	836	1700.616095823832	0
2	839	1703.81731854165	0
2	842	1704.011161954346	0.052277249742
2	848	1721.840881323087	0
2	851	1738.639292207234	0
2	854	1740.28301290746	0
2	857	1741.94231495916	0
2	860	1746.278323822409	0
2	863	1747.265236094822	0.132257626095
2	866	1763.744959369342	0
2	869	1766.832317197775	0
2	872	1781.194061412384	0
2	875	1784.007172870224	0
2	878	1791.444793225007	0
2	890	1822.9474043475	4.179829973373
2	903	1831.987898224169	8.075403915745
2	906	1833.530540863117	9.141642922858
2	907	1836.139642839508	11.107707002352
2	908	1836.74320303742	10.001089501561
2	911	1838.209776628106	9.031878623648
2	912	1839.236520326953	8.760545455506
2	913	1839.272195859416	6.544717761682
2	914	1839.687334758493	1.850498333801
2	917	1849.063043979003	0
2	920	1855.172356944006	0
2	923	1857.001293247168	0
2	926	1858.950247015511	0.437461727349
2	929	1865.0163181571	0
2	932	1870.890209302152	0
2	942	1900.054263375388	17.734726540313
2	943	1900.606837499963	5.954766525608
2	946	1901.654518796479	4.609248477179
2	947	1902.635747861746	1.496691349466
2	950	1906.165645035977	0
2	953	1911.414594258261	0
2	956	1913.696463255112	0
2	968	1930.879711916983	11.891067567871
2	969	1931.048048637379	9.811908619051
2	970	1931.058068511461	5.235385007669
2	971	1932.77836663299	2.738130484996
2	974	1942.644956077952	0
2	977	1954.128819601869	0
2	980	1958.431601726582	3.445674860665
2	983	1976.050555183861	0
2	986	1988.908814795108	0
2	989	1994.899296821272	0
2	992	2000.710797375236	0
2	995	2017.872222831108	0
2	998	2023.586400580186	0
2	1001	2035.149372275751	0
2	1004	2036.383769932827	0
2	1021	2079.222024416164	26.581803504264
2	1022	2080.975207722568	27.53642517425
2	1025	2082.113813471063	25.647414429657
2	1026	2082.144339345253	14.282311169316
2	1029	2084.139565055899	7.76287234427
2	1030	2085.177068981538	3.400084950817
2	1031	2085.546720537791	2.08956224618
2	1034	2105.145380865089	0
2	1037	2135.309728064205	0
2	1040	2154.455229077172	0
2	1043	2156.524983999774	0.002237632466
2	1046	2169.554756261325	0
2	1049	2170.07863638295	0
2	1063	2202.442812672438	3.866118690062
2	1066	2203.281296740843	1.670995984583
2	1067	2204.306360821167	1.203526085617
2	1070	2210.428347953542	5.542667703733
2	1073	2212.638258954712	0
2	1076	2229.449308528692	0
2	1079	2233.203004793729	0
2	1082	2234.707007767304	0
2	1085	2242.872358595071	0
2	1088	2245.66032716098	1.56298466286
2	1091	2255.528460384978	0
2	1097	2271.690803451792	0
2	1100	2277.261690615057	0
2	1103	2286.562431843466	0
2	1106	2288.617014748565	0
2	1109	2290.195723633174	0
2	1112	2291.789356918091	0
2	1115	2294.486130733997	0
2	1118	2301.721929275329	0
2	1121	2304.632968356191	0
2	1130	2331.991965231219	1.235006043044
2	1136	2347.337730131784	0
2	1139	2347.711584852395	0.356305091856
2	1142	2347.906096150325	0.08488401457
2	1145	2349.35594733363	0
2	1148	2353.101277890705	0
2	1151	2357.587073636544	0
2	1154	2360.550717446282	0
2	1157	2392.293092303921	0
2	1163	2398.988939380238	0
2	1166	2400.864976072501	1.507323106761
2	1169	2405.934133730232	0
2	1172	2415.654602181887	0
2	1175	2419.113139491138	1.401077206697
2	1186	2447.614386844789	6.743713173046
2	1187	2448.104612233657	3.121781861056
2	1190	2454.204788739677	0
2	1193	2463.184025075622	0
2	1196	2464.641733712623	1.181548946118
3	171	350.375407180281	32
3	174	365.426635339652	33
3	201	454.172892976537	34
3	202	454.482150626873	35
3	203	454.580664956471	36
3	206	456.392741729341	37
3	212	462.401495226092	38
3	213	463.161053412799	39
3	225	487.161476001706	40
3	228	491.740404646579	41
3	231	493.620480713214	42
3	237	508.220525303669	43
3	242	514.09584864668	44
3	243	516.607538726544	45
3	246	529.299981573666	46
3	249	536.804804121555	47
3	252	538.728682971817	48
3	255	540.567125897582	49
3	267	575.46032893331	50
3	268	575.705835067276	51
3	269	575.937415768497	52
3	270	576.568293161246	53
3	273	582.323998569376	54
3	276	586.773479776969	55
3	279	587.004264507287	56
3	313	675.361794856164	57
3	316	677.065116531485	58
3	317	677.316915850697	59
3	318	677.884716495137	60
3	319	678.773925688633	61
3	320	678.842096842652	62
3	321	679.166721743225	63
3	324	693.690177539914	64
3	330	736.880183556098	65
3	333	747.341770179674	66
3	336	752.507969342757	67
3	339	758.5759321391	68
3	342	766.160639787414	69
3	345	770.979262058801	70
3	351	790.973846484481	71
3	354	793.234401291009	72
3	357	804.543614438177	73
3	363	831.505175140163	74
3	366	843.690260386522	75
3	369	849.345641486764	76
3	372	851.803770019874	77
3	375	853.085095042358	78
3	387	880.744504247504	79
3	388	884.129515154117	80
3	389	884.292369817823	81
3	390	884.638161305848	82
3	395	888.183525521845	83
3	396	888.438374600918	84
3	434	938.686987260065	85
3	435	939.0432351987	86
3	436	939.361877592939	87
3	437	939.511104345811	88
3	438	939.517605172242	89
3	439	940.588663885886	90
3	440	941.500000554029	91
3	441	941.692515687912	92
3	442	943.274099545512	93
3	443	944.044706472213	94
3	446	944.957555801489	95
3	447	946.028949490202	96
3	475	985.776615429909	97
3	476	986.797697926303	98
3	477	988.838732679491	99
3	478	989.668378859863	100
3	479	990.975812825906	101
3	482	994.179490199122	102
3	483	995.628348631276	103
3	486	1013.984141621143	104
3	489	1020.398415251214	105
3	492	1024.535316401278	106
3	501	1066.89013655513	107
3	504	1074.787901611439	108
3	507	1087.178107601729	109
3	524	1131.826151116524	110
3	525	1131.912782049247	111
3	531	1142.784717368633	112
3	545	1167.42646350219	113
3	546	1167.460793449658	114
3	555	1195.050739115617	115
3	575	1252.328540280593	116
3	578	1253.801361479907	117
3	579	1254.041361846161	118
3	580	1257.535991702594	119
3	581	1257.538395886145	120
3	582	1257.916337809019	121
3	585	1271.048960621959	122
3	591	1290.891959004461	123
3	597	1312.142784554697	124
3	600	1312.868837015762	125
3	603	1317.649774526583	126
3	606	1319.213595252777	127
3	609	1328.214521664237	128
3	612	1332.484636377459	129
3	615	1334.157264986402	130
3	618	1342.228256734052	131
3	632	1360.833787768205	132
3	633	1361.237540893225	133
3	634	1361.910054914306	134
3	635	1362.060634293802	135
3	640	1362.90302280362	136
3	641	1363.103282613284	137
3	642	1363.680644356959	138
3	645	1366.052387086937	139
3	648	1372.957250129551	140
3	651	1376.615444275235	141
3	656	1391.138061867606	142
3	657	1392.80614057201	143
3	660	1396.715545889536	144
3	663	1399.728305825928	145
3	666	1413.444666124301	146
3	677	1448.761583949073	147
3	678	1449.399756562267	148
3	681	1453.967840781783	149
3	684	1454.667313799087	150
3	687	1459.896132004832	151
3	699	1466.340535016989	152
3	703	1467.177250069075	153
3	704	1467.515226615453	154
3	705	1469.381988531425	155
3	711	1476.414125799263	156
3	724	1486.123908777066	157
3	725	1486.620362471399	158
3	726	1487.14504776561	159
3	737	1502.53558343265	160
3	738	1503.748256535226	161
3	750	1529.667920859161	162
3	771	1555.882868418165	163
3	772	1556.36478495776	164
3	773	1557.571735907516	165
3	774	1557.849222454788	166
3	775	1557.944938811129	167
3	776	1559.592722560528	168
3	777	1560.039022212603	169
3	802	1632.506801687145	170
3	803	1632.596562766722	171
3	804	1634.403513179491	172
3	807	1636.835148746697	173
3	810	1648.578999684637	174
3	816	1653.650320271525	175
3	827	1681.854462135314	176
3	828	1682.982510733338	177
3	834	1697.615349175398	178
3	837	1702.355104030589	179
3	842	1704.011161954346	180
3	843	1704.207835712868	181
3	849	1722.594891314693	182
3	852	1738.659492674885	183
3	855	1740.34036654743	184
3	858	1743.263684942193	185
3	863	1747.265236094822	186
3	864	1748.409615698129	187
3	867	1764.406070965107	188
3	870	1768.437141589549	189
3	873	1781.246982663056	190
3	876	1784.244667371414	191
3	879	1791.511071929357	192
3	906	1833.530540863117	193
3	907	1836.139642839508	194
3	908	1836.74320303742	195
3	911	1838.209776628106	196
3	912	1839.236520326953	197
3	913	1839.272195859416	198
3	914	1839.687334758493	199
3	915	1841.536368348047	200
3	918	1849.980031048436	201
3	921	1855.256057649485	202
3	926	1858.950247015511	203
3	927	1860.566669772524	204
3	930	1865.053710624765	205
3	933	1872.753147110646	206
3	943	1900.606837499963	207
3	946	1901.654518796479	208
3	947	1902.635747861746	209
3	948	1902.965182181154	210
3	951	1907.000331571306	211
3	954	1911.440455962182	212
3	957	1914.212584182094	213
3	969	1931.048048637379	214
3	970	1931.058068511461	215
3	971	1932.77836663299	216
3	972	1934.977561744123	217
3	975	1943.607820607693	218
3	980	1958.431601726582	219
3	981	1960.015844870591	220
3	984	1976.330860614698	221
3	987	1990.021542435332	222
3	990	1995.154536669166	223
3	993	2001.130496601346	224
3	996	2018.286053031677	225
3	999	2023.870582978451	226
3	1002	2035.974621479238	227
3	1005	2038.090302774832	228
3	1022	2080.975207722568	229
3	1025	2082.113813471063	230
3	1026	2082.144339345253	231
3	1029	2084.139565055899	232
3	1030	2085.177068981538	233
3	1031	2085.546720537791	234
3	1032	2086.278976001262	235
3	1035	2105.582978369982	236
3	1038	2135.539638618228	237
3	1043	2156.524983999774	238
3	1044	2156.879002865802	239
3	1047	2169.667003353336	240
3	1050	2175.173164647589	241
3	1066	2203.281296740843	242
3	1067	2204.306360821167	243
3	1070	2210.428347953542	244
3	1071	2210.947165783508	245
3	1074	2215.361550437061	246
3	1077	2230.180350652066	247
3	1080	2233.587098848372	248
3	1083	2235.282464044122	249
3	1089	2245.680628036504	250
3	1092	2255.626380262295	251
3	1098	2272.724598605712	252
3	1101	2279.220251178389	253
3	1104	2286.603907392764	254
3	1107	2290.115348475938	255
3	1110	2290.969791024116	256
3	1113	2292.971329316884	257
3	1116	2294.842219705225	258
3	1119	2302.820415857554	259
3	1122	2305.380943143684	260
3	1131	2334.091519286187	261
3	1139	2347.711584852395	262
3	1142	2347.906096150325	263
3	1143	2348.613381800857	264
3	1146	2349.971572280975	265
3	1149	2354.177755567167	266
3	1152	2360.492636994685	267
3	1155	2362.81316654634	268
3	1158	2393.80049595942	269
3	1166	2400.864976072501	270
3	1167	2402.753461636873	271
3	1170	2405.973931160298	272
3	1176	2419.750080716447	273
3	1187	2448.104612233657	274
3	1188	2450.807335795844	275
3	1191	2454.968503339078	276
3	1196	2464.641733712623	277
3	1197	2465.518065173821	278
4	171	350.375407180281	0.080893485387
4	174	365.426635339652	1.787250148416
4	201	454.172892976537	58.205160534488
4	202	454.482150626873	27.322559179452
4	203	454.580664956471	21.814882038249
4	206	456.392741729341	6.445063232555
4	212	462.401495226092	4.98247199153
4	213	463.161053412799	3.984385636816
4	225	487.161476001706	0.905527695382
4	228	491.740404646579	0.7275472525
4	231	493.620480713214	1.842905027359
4	237	508.220525303669	1.082765758772
4	242	514.09584864668	1.539666733555
4	243	516.607538726544	3.149576473244
4	246	529.299981573666	1.491974711599
4	249	536.804804121555	1.098587772833
4	252	538.728682971817	0.123730979544
4	255	540.567125897582	0.192104630094
4	267	575.46032893331	15.012329517689
4	268	575.705835067276	11.831950512491
4	269	575.937415768497	4.211281359256
4	270	576.568293161246	4.381633810067
4	273	582.323998569376	0.160509236712
4	276	586.773479776969	0.572508213978
4	279	587.004264507287	0.203246365731
4	313	675.361794856164	75.222497178029
4	316	677.065116531485	55.694888792388
4	317	677.316915850697	37.670034557301
4	318	677.884716495137	18.823940096033
4	319	678.773925688633	7.356394647134
4	320	678.842096842652	4.630510996198
4	321	679.166721743225	2.867645498237
4	324	693.690177539914	0.008951729385
4	330	736.880183556098	0.745962029066
4	333	747.341770179674	0.044321547187
4	336	752.507969342757	0.300236699225
4	339	758.5759321391	0.162841755434
4	342	766.160639787414	0.752788125533
4	345	770.979262058801	0.515720929446
4	351	790.973846484481	5.875309910481
4	354	793.234401291009	0.988072604706
4	357	804.543614438177	0.78561833169
4	363	831.505175140163	0.891869946455
4	366	843.690260386522	0.277146442276
4	369	849.345641486764	0.050770308308
4	372	851.803770019874	0.098978727072
4	375	853.085095042358	0.667716749003
4	387	880.744504247504	13.926267531752
4	388	884.129515154117	15.035591337097
4	389	884.292369817823	14.416493509408
4	390	884.638161305848	8.142126393872
4	395	888.183525521845	2.248540534049
4	396	888.438374600918	2.102912205206
4	434	938.686987260065	46.80670252858
4	435	939.0432351987	38.838171699032
4	436	939.361877592939	36.486498545996
4	437	939.511104345811	30.621134298476
4	438	939.517605172242	22.664118912884
4	439	940.588663885886	22.895631185384
4	440	941.500000554029	15.205506364396
4	441	941.692515687912	14.761671680271
4	442	943.274099545512	8.402164755813
4	443	944.044706472213	8.050380109467
4	446	944.957555801489	7.280090200175
4	447	946.028949490202	1.139369322593
4	475	985.776615429909	30.875042678224
4	476	986.797697926303	15.42906076183
4	477	988.838732679491	16.314377237798
4	478	989.668378859863	9.932145835287
4	479	990.975812825906	10.02129253319
4	482	994.179490199122	8.720539809138
4	483	995.628348631276	3.314208041185
4	486	1013.984141621143	2.294264382049
4	489	1020.398415251214	3.972621543801
4	492	1024.535316401278	0.787365776262
4	501	1066.89013655513	4.481239726615
4	504	1074.787901611439	0.867594103098
4	507	1087.178107601729	0.765343916488
4	524	1131.826151116524	2.32202004923
4	525	1131.912782049247	1.775091082702
4	531	1142.784717368633	0.65898831571
4	545	1167.42646350219	2.246751090961
4	546	1167.460793449658	2.162498309852
4	555	1195.050739115617	0.306768270959
4	575	1252.328540280593	34.927162697421
4	578	1253.801361479907	18.724520690171
4	579	1254.041361846161	16.384708875519
4	580	1257.535991702594	18.206151528378
4	581	1257.538395886145	15.121190762638
4	582	1257.916337809019	4.909305670946
4	585	1271.048960621959	0.333866693713
4	591	1290.891959004461	3.751819191695
4	597	1312.142784554697	0.567205073923
4	600	1312.868837015762	0.227205292185
4	603	1317.649774526583	0.654951012551
4	606	1319.213595252777	1.15272982059
4	609	1328.214521664237	0.19523664402
4	612	1332.484636377459	1.814298402451
4	615	1334.157264986402	0.186620358524
4	618	1342.228256734052	1.485543426544
4	632	1360.833787768205	14.062775530823
4	633	1361.237540893225	9.967070761963
4	634	1361.910054914306	2.677964228453
4	635	1362.060634293802	2.498516477777
4	640	1362.90302280362	2.761615536611
4	641	1363.103282613284	0.72234582505
4	642	1363.680644356959	1.234087554704
4	645	1366.052387086937	1.479073729351
4	648	1372.957250129551	1.526527517644
4	651	1376.615444275235	0.133652977792
4	656	1391.138061867606	2.602090606931
4	657	1392.80614057201	1.88045628264
4	660	1396.715545889536	0.455459114177
4	663	1399.728305825928	1.202203622426
4	666	1413.444666124301	0.280373200748
4	677	1448.761583949073	10.318565747965
4	678	1449.399756562267	3.157338443846
4	681	1453.967840781783	1.078333312707
4	684	1454.667313799087	0.050829808847
4	687	1459.896132004832	2.789324638524
4	699	1466.340535016989	2.999384512544
4	703	1467.177250069075	1.705920456927
4	704	1467.515226615453	1.838187855169
4	705	1469.381988531425	3.040383628438
4	711	1476.414125799263	2.203649540425
4	724	1486.123908777066	8.345663528106
4	725	1486.620362471399	4.533280964451
4	726	1487.14504776561	4.903419848858
4	737	1502.53558343265	11.707382346386
4	738	1503.748256535226	12.148156588196
4	750	1529.667920859161	0.8069725868
4	771	1555.882868418165	20.11156341781
4	772	1556.36478495776	13.789966905964
4	773	1557.571735907516	11.431584584278
4	774	1557.849222454788	7.563770923908
4	775	1557.944938811129	7.324048485198
4	776	1559.592722560528	8.680836054674
4	777	1560.039022212603	8.650752356292
4	802	1632.506801687145	22.100326230389
4	803	1632.596562766722	12.859414357543
4	804	1634.403513179491	11.147900034628
4	807	1636.835148746697	0.664525819612
4	810	1648.578999684637	1.302800285249
4	816	1653.650320271525	0.282722670363
4	827	1681.854462135314	4.811149665603
4	828	1682.982510733338	5.312866691156
4	834	1697.615349175398	0.758944867872
4	837	1702.355104030589	1.739008206757
4	842	1704.011161954346	0.193843412696
4	843	1704.207835712868	0.248951008264
4	849	1722.594891314693	0.754009991606
4	852	1738.659492674885	0.020200467651
4	855	1740.34036654743	0.05735363997
4	858	1743.263684942193	1.321369983033
4	863	1747.265236094822	0.986912272413
4	864	1748.409615698129	1.276637229402
4	867	1764.406070965107	0.661111595765
4	870	1768.437141589549	1.604824391774
4	873	1781.246982663056	0.052921250672
4	876	1784.244667371414	0.23749450119
4	879	1791.511071929357	0.06627870435
4	906	1833.530540863117	9.618046554693
4	907	1836.139642839508	11.750744899249
4	908	1836.74320303742	11.711267200264
4	911	1838.209776628106	11.467663092247
4	912	1839.236520326953	10.058622322495
4	913	1839.272195859416	8.796220987969
4	914	1839.687334758493	6.959856660759
4	915	1841.536368348047	3.699531923355
4	918	1849.980031048436	0.916987069433
4	921	1855.256057649485	0.083700705479
4	926	1858.950247015511	1.948953768343
4	927	1860.566669772524	2.053884484362
4	930	1865.053710624765	0.037392467665
4	933	1872.753147110646	1.862937808494
4	943	1900.606837499963	18.287300664888
4	946	1901.654518796479	7.002447822124
4	947	1902.635747861746	5.590477542446
4	948	1902.965182181154	1.826125668874
4	951	1907.000331571306	0.834686535329
4	954	1911.440455962182	0.025861703921
4	957	1914.212584182094	0.516120926982
4	969	1931.048048637379	12.059404288267
4	970	1931.058068511461	9.821928493133
4	971	1932.77836663299	6.955683129198
4	972	1934.977561744123	4.937325596129
4	975	1943.607820607693	0.962864529741
4	980	1958.431601726582	4.302782124713
4	981	1960.015844870591	5.029918004674
4	984	1976.330860614698	0.280305430837
4	987	1990.021542435332	1.112727640224
4	990	1995.154536669166	0.255239847894
4	993	2001.130496601346	0.41969922611
4	996	2018.286053031677	0.413830200569
4	999	2023.870582978451	0.284182398265
4	1002	2035.974621479238	0.825249203487
4	1005	2038.090302774832	1.706532842005
4	1022	2080.975207722568	28.334986810668
4	1025	2082.113813471063	28.675030922745
4	1026	2082.144339345253	25.677940303847
4	1029	2084.139565055899	16.277536879962
4	1030	2085.177068981538	8.800376269909
4	1031	2085.546720537791	3.76973650707
4	1032	2086.278976001262	2.821817709651
4	1035	2105.582978369982	0.437597504893
4	1038	2135.539638618228	0.229910554023
4	1043	2156.524983999774	2.069754922602
4	1044	2156.879002865802	0.356256498494
4	1047	2169.667003353336	0.112247092011
4	1050	2175.173164647589	5.094528264639
4	1066	2203.281296740843	4.704602758467
4	1067	2204.306360821167	2.696060064907
4	1070	2210.428347953542	7.325513217992
4	1071	2210.947165783508	6.061485533699
4	1074	2215.361550437061	2.723291482349
4	1077	2230.180350652066	0.731042123374
4	1080	2233.587098848372	0.384094054643
4	1083	2235.282464044122	0.575456276818
4	1089	2245.680628036504	1.583285538384
4	1092	2255.626380262295	0.097919877317
4	1098	2272.724598605712	1.03379515392
4	1101	2279.220251178389	1.958560563332
4	1104	2286.603907392764	0.041475549298
4	1107	2290.115348475938	1.498333727373
4	1110	2290.969791024116	0.774067390942
4	1113	2292.971329316884	1.181972398793
4	1116	2294.842219705225	0.356088971228
4	1119	2302.820415857554	1.098486582225
4	1122	2305.380943143684	0.747974787493
4	1131	2334.091519286187	3.334560098012
4	1139	2347.711584852395	0.373854720611
4	1142	2347.906096150325	0.550816389786
4	1143	2348.613381800857	0.792169665102
4	1146	2349.971572280975	0.615624947345
4	1149	2354.177755567167	1.076477676462
4	1152	2360.492636994685	2.905563358141
4	1155	2362.81316654634	2.262449100058
4	1158	2393.80049595942	1.507403655499
4	1166	2400.864976072501	1.876036692263
4	1167	2402.753461636873	3.395808671133
4	1170	2405.973931160298	0.039797430066
4	1176	2419.750080716447	2.038018432006
4	1187	2448.104612233657	7.233938561914
4	1188	2450.807335795844	5.824505423243
4	1191	2454.968503339078	0.763714599401
4	1196	2464.641733712623	1.457708637001
4	1197	2465.518065173821	2.057880407316
5	176	378.709152250134	1
5	178	380.27431564241	2
5	181	389.235505617551	2
5	183	390.977351324658	3
5	189	418.365243161892	2
5	195	440.53012720774	3
5	208	457.419023234562	1
5	215	468.799064145291	1
5	218	480.318230797203	1
5	221	484.90952384887	1
5	233	505.961850649434	1
5	257	554.110108776546	1
5	281	587.178436144109	1
5	283	592.643012636746	2
5	287	600.245437869745	3
5	289	600.66151758005	4
5	292	608.864634039198	4
5	298	628.992075770935	3
5	304	655.198673069575	2
5	326	721.458044270898	1
5	349	785.098536574	1
5	359	813.085741460761	1
5	377	854.831562937981	1
5	398	890.868092084467	1
5	402	892.822221156924	2
5	409	904.440978452057	2
5	414	914.024007714159	2
5	425	928.387847736111	2
5	449	951.310911062493	1
5	451	951.721988495665	2
5	456	954.912534915324	2
5	458	963.443723202907	3
5	460	968.301676543182	4
5	494	1056.246911646935	1
5	496	1057.563382410452	2
5	509	1093.973552858002	1
5	512	1101.54876270529	1
5	515	1111.932910573383	1
5	518	1127.786404134727	1
5	527	1138.483016837908	1
5	533	1143.224112475761	1
5	536	1151.149186355431	1
5	539	1161.456839193517	1
5	548	1173.797537388465	1
5	551	1191.368243655724	1
5	557	1216.415934965837	1
5	561	1217.598482219436	2
5	572	1249.200377747733	2
5	587	1277.083159288513	1
5	593	1303.717692866975	1
5	620	1346.153180175218	1
5	668	1418.001472486213	1
5	671	1436.179366792582	1
5	689	1462.231641348461	1
5	701	1466.341604902987	1
5	707	1470.96465680018	1
5	715	1477.77824524896	1
5	717	1478.053095075698	2
5	728	1488.463222162503	1
5	730	1490.418657299978	2
5	740	1509.629166288597	1
5	743	1514.519387559795	1
5	745	1522.483703326391	2
5	752	1531.901860161949	1
5	754	1535.646236770744	2
5	779	1572.986821137387	1
5	782	1578.175953647353	1
5	784	1585.241753050579	2
5	786	1587.132978603985	3
5	791	1607.866900230068	1
5	797	1620.858746337915	2
5	812	1651.657211458186	1
5	818	1663.458451971507	1
5	820	1669.807579158733	2
5	830	1689.858323799459	1
5	845	1718.415691489493	1
5	881	1800.015885119056	1
5	884	1808.0803409936	1
5	886	1810.341179370831	2
5	894	1824.388897940259	1
5	935	1881.947441165122	1
5	959	1916.122398228426	1
5	1007	2045.666673793756	1
5	1015	2059.687067641443	2
5	1052	2186.046939482105	1
5	1055	2194.833129946157	1
5	1057	2196.299699915596	2
5	1087	2244.09734249812	1
5	1094	2265.22514778348	1
5	1124	2316.970532866741	1
5	1126	2323.784024738193	2
5	1133	2338.096476588065	1
5	1160	2395.357417015676	1
5	1174	2417.712062284441	1
5	1178	2426.739274968978	1
5	1181	2439.090611052453	1
5	1199	2480.174805911224	1
5	1202	2495.979355742821	1
6	176	378.709152250134	0
6	178	380.27431564241	1
6	179	387.875199824405	1
6	181	389.235505617551	1
6	183	390.977351324658	2
6	186	397.309636363823	2
6	187	402.368385279025	1
6	189	418.365243161892	1
6	195	440.53012720774	2
6	196	443.116837580473	2
6	199	452.916997018522	1
6	200	454.07024671745	0
6	208	457.419023234562	0
6	211	460.098558733044	0
6	215	468.799064145291	0
6	216	470.044633590327	0
6	218	480.318230797203	0
6	219	481.582930163865	0
6	221	484.90952384887	0
6	224	486.641584195766	0
6	233	505.961850649434	0
6	236	508.116732772616	0
6	257	554.110108776546	0
6	266	574.767670267163	0
6	281	587.178436144109	0
6	283	592.643012636746	1
6	287	600.245437869745	2
6	289	600.66151758005	3
6	290	608.667279777364	3
6	292	608.864634039198	3
6	293	620.81460524455	3
6	296	623.740192932879	2
6	298	628.992075770935	2
6	301	641.715698748836	2
6	302	644.938385426648	1
6	304	655.198673069575	1
6	307	670.527332839203	1
6	310	673.160371153048	0
6	326	721.458044270898	0
6	327	732.7484540254	0
6	349	785.098536574	0
6	350	790.815317791403	0
6	359	813.085741460761	0
6	360	829.843638602297	0
6	377	854.831562937981	0
6	386	880.53444179825	0
6	398	890.868092084467	0
6	402	892.822221156924	1
6	403	893.6725680023	1
6	409	904.440978452057	1
6	412	909.527695052663	1
6	414	914.024007714159	1
6	415	914.514407999512	1
6	425	928.387847736111	1
6	426	929.094179816178	1
6	433	938.329237305515	0
6	449	951.310911062493	0
6	451	951.721988495665	1
6	452	952.791687161184	1
6	456	954.912534915324	1
6	458	963.443723202907	2
6	460	968.301676543182	3
6	461	969.781395217355	3
6	462	969.93626279395	2
6	471	981.16273963367	1
6	472	984.822138054851	0
6	494	1056.246911646935	0
6	496	1057.563382410452	1
6	497	1058.487269983289	1
6	500	1066.153333406212	0
6	509	1093.973552858002	0
6	510	1096.303375413678	0
6	512	1101.54876270529	0
6	513	1105.739606801639	0
6	515	1111.932910573383	0
6	516	1112.467466798599	0
6	518	1127.786404134727	0
6	523	1131.211554901334	0
6	527	1138.483016837908	0
6	528	1140.333899886205	0
6	533	1143.224112475761	0
6	534	1144.987683648029	0
6	536	1151.149186355431	0
6	537	1155.994758572076	0
6	539	1161.456839193517	0
6	544	1167.407221318364	0
6	548	1173.797537388465	0
6	549	1174.639155812471	0
6	551	1191.368243655724	0
6	552	1193.748328066559	0
6	557	1216.415934965837	0
6	561	1217.598482219436	1
6	570	1243.153117731476	1
6	572	1249.200377747733	1
6	573	1249.619577757625	1
6	574	1250.543006109229	0
6	587	1277.083159288513	0
6	590	1290.201860265077	0
6	593	1303.717692866975	0
6	594	1307.315788849017	0
6	620	1346.153180175218	0
6	627	1359.484170590401	0
6	668	1418.001472486213	0
6	669	1424.662674770041	0
6	671	1436.179366792582	0
6	676	1447.580880914695	0
6	689	1462.231641348461	0
6	698	1465.89693943629	0
6	701	1466.341604902987	0
6	702	1466.969150660398	0
6	707	1470.96465680018	0
6	710	1475.612502025077	0
6	715	1477.77824524896	0
6	717	1478.053095075698	1
6	722	1485.032003296891	1
6	723	1485.796052485383	0
6	728	1488.463222162503	0
6	730	1490.418657299978	1
6	735	1493.049718674766	1
6	736	1501.031395413896	0
6	740	1509.629166288597	0
6	741	1512.705216515951	0
6	743	1514.519387559795	0
6	745	1522.483703326391	1
6	746	1523.66216681268	1
6	747	1525.252843230608	0
6	752	1531.901860161949	0
6	754	1535.646236770744	1
6	759	1544.237798490733	1
6	770	1555.536639147544	0
6	779	1572.986821137387	0
6	780	1573.651840336382	0
6	782	1578.175953647353	0
6	784	1585.241753050579	1
6	786	1587.132978603985	2
6	787	1598.606227720075	2
6	788	1601.887464496469	1
6	789	1602.851513811717	0
6	791	1607.866900230068	0
6	797	1620.858746337915	1
6	800	1625.270723814526	1
6	801	1631.160000214327	0
6	812	1651.657211458186	0
6	813	1651.659869322423	0
6	818	1663.458451971507	0
6	820	1669.807579158733	1
6	821	1676.788948475159	1
6	826	1679.18271881736	0
6	830	1689.858323799459	0
6	831	1696.238730011446	0
6	845	1718.415691489493	0
6	846	1719.998500462939	0
6	881	1800.015885119056	0
6	882	1801.545845898093	0
6	884	1808.0803409936	0
6	886	1810.341179370831	1
6	887	1811.478161274629	1
6	890	1822.9474043475	0
6	894	1824.388897940259	0
6	903	1831.987898224169	0
6	935	1881.947441165122	0
6	942	1900.054263375388	0
6	959	1916.122398228426	0
6	968	1930.879711916983	0
6	1007	2045.666673793756	0
6	1015	2059.687067641443	1
6	1016	2065.747954866362	1
6	1021	2079.222024416164	0
6	1052	2186.046939482105	0
6	1053	2186.257882865968	0
6	1055	2194.833129946157	0
6	1057	2196.299699915596	1
6	1058	2196.648632654602	1
6	1063	2202.442812672438	0
6	1087	2244.09734249812	0
6	1088	2245.66032716098	0
6	1094	2265.22514778348	0
6	1095	2265.528720877836	0
6	1124	2316.970532866741	0
6	1126	2323.784024738193	1
6	1129	2331.791785486798	1
6	1130	2331.991965231219	0
6	1133	2338.096476588065	0
6	1134	2340.58316960005	0
6	1160	2395.357417015676	0
6	1161	2395.880823197549	0
6	1174	2417.712062284441	0
6	1175	2419.113139491138	0
6	1178	2426.739274968978	0
6	1179	2430.13692746915	0
6	1181	2439.090611052453	0
6	1186	2447.614386844789	0
6	1199	2480.174805911224	0
6	1200	2490.072251236238	0
6	1202	2495.979355742821	0
6	1203	2498.234133236355	0
7	176	378.709152250134	0
7	179	387.875199824405	7.600884181995
7	186	397.309636363823	8.074130746272
7	187	402.368385279025	11.391033954367
7	196	443.116837580473	24.751594418581
7	199	452.916997018522	12.386869810782
7	208	457.419023234562	0
7	215	468.799064145291	0
7	218	480.318230797203	0
7	221	484.90952384887	0
7	233	505.961850649434	0
7	257	554.110108776546	0
7	281	587.178436144109	0
7	290	608.667279777364	16.024267140618
7	293	620.81460524455	20.569167374805
7	296	623.740192932879	23.078675352829
7	301	641.715698748836	32.851064709638
7	302	644.938385426648	15.946309655713
7	307	670.527332839203	15.328659769628
7	326	721.458044270898	0
7	349	785.098536574	0
7	359	813.085741460761	0
7	377	854.831562937981	0
7	398	890.868092084467	0
7	403	893.6725680023	0.850346845376
7	412	909.527695052663	5.086716600606
7	415	914.514407999512	0.490400285353
7	426	929.094179816178	0.706332080067
7	449	951.310911062493	0
7	452	952.791687161184	1.069698665519
7	461	969.781395217355	14.868860302031
7	462	969.93626279395	6.492539591043
7	471	981.16273963367	12.861063090488
7	494	1056.246911646935	0
7	497	1058.487269983289	0.923887572837
7	509	1093.973552858002	0
7	512	1101.54876270529	0
7	515	1111.932910573383	0
7	518	1127.786404134727	0
7	527	1138.483016837908	0
7	533	1143.224112475761	0
7	536	1151.149186355431	0
7	539	1161.456839193517	0
7	548	1173.797537388465	0
7	551	1191.368243655724	0
7	557	1216.415934965837	0
7	570	1243.153117731476	25.55463551204
7	573	1249.619577757625	0.419200009892
7	587	1277.083159288513	0
7	593	1303.717692866975	0
7	620	1346.153180175218	0
7	668	1418.001472486213	0
7	671	1436.179366792582	0
7	689	1462.231641348461	0
7	701	1466.341604902987	0
7	707	1470.96465680018	0
7	715	1477.77824524896	0
7	722	1485.032003296891	6.978908221193
7	728	1488.463222162503	0
7	735	1493.049718674766	2.631061374788
7	740	1509.629166288597	0
7	743	1514.519387559795	0
7	746	1523.66216681268	1.178463486289
7	752	1531.901860161949	0
7	759	1544.237798490733	8.591561719989
7	779	1572.986821137387	0
7	782	1578.175953647353	0
7	787	1598.606227720075	13.364474669496
7	788	1601.887464496469	14.754485892484
7	791	1607.866900230068	0
7	800	1625.270723814526	4.411977476611
7	812	1651.657211458186	0
7	818	1663.458451971507	0
7	821	1676.788948475159	6.981369316426
7	830	1689.858323799459	0
7	845	1718.415691489493	0
7	881	1800.015885119056	0
7	884	1808.0803409936	0
7	887	1811.478161274629	1.136981903798
7	894	1824.388897940259	0
7	935	1881.947441165122	0
7	959	1916.122398228426	0
7	1007	2045.666673793756	0
7	1016	2065.747954866362	6.060887224919
7	1052	2186.046939482105	0
7	1055	2194.833129946157	0
7	1058	2196.648632654602	0.348932739006
7	1087	2244.09734249812	0
7	1094	2265.22514778348	0
7	1124	2316.970532866741	0
7	1129	2331.791785486798	8.007760748605
7	1133	2338.096476588065	0
7	1160	2395.357417015676	0
7	1174	2417.712062284441	0
7	1178	2426.739274968978	0
7	1181	2439.090611052453	0
7	1199	2480.174805911224	0
7	1202	2495.979355742821	0
8	179	387.875199824405	26
8	186	397.309636363823	27
8	187	402.368385279025	28
8	196	443.116837580473	29
8	199	452.916997018522	30
8	200	454.07024671745	31
8	211	460.098558733044	32
8	216	470.044633590327	33
8	219	481.582930163865	34
8	224	486.641584195766	35
8	236	508.116732772616	36
8	266	574.767670267163	37
8	290	608.667279777364	38
8	293	620.81460524455	39
8	296	623.740192932879	40
8	301	641.715698748836	41
8	302	644.938385426648	42
8	307	670.527332839203	43
8	310	673.160371153048	44
8	327	732.7484540254	45
8	350	790.815317791403	46
8	360	829.843638602297	47
8	386	880.53444179825	48
8	403	893.6725680023	49
8	412	909.527695052663	50
8	415	914.514407999512	51
8	426	929.094179816178	52
8	433	938.329237305515	53
8	452	952.791687161184	54
8	461	969.781395217355	55
8	462	969.93626279395	56
8	471	981.16273963367	57
8	472	984.822138054851	58
8	497	1058.487269983289	59
8	500	1066.153333406212	60
8	510	1096.303375413678	61
8	513	1105.739606801639	62
8	516	1112.467466798599	63
8	523	1131.211554901334	64
8	528	1140.333899886205	65
8	534	1144.987683648029	66
8	537	1155.994758572076	67
8	544	1167.407221318364	68
8	549	1174.639155812471	69
8	552	1193.748328066559	70
8	570	1243.153117731476	71
8	573	1249.619577757625	72
8	574	1250.543006109229	73
8	590	1290.201860265077	74
8	594	1307.315788849017	75
8	627	1359.484170590401	76
8	669	1424.662674770041	77
8	676	1447.580880914695	78
8	698	1465.89693943629	79
8	702	1466.969150660398	80
8	710	1475.612502025077	81
8	722	1485.032003296891	82
8	723	1485.796052485383	83
8	735	1493.049718674766	84
8	736	1501.031395413896	85
8	741	1512.705216515951	86
8	746	1523.66216681268	87
8	747	1525.252843230608	88
8	759	1544.237798490733	89
8	770	1555.536639147544	90
8	780	1573.651840336382	91
8	787	1598.606227720075	92
8	788	1601.887464496469	93
8	789	1602.851513811717	94
8	800	1625.270723814526	95
8	801	1631.160000214327	96
8	813	1651.659869322423	97
8	821	1676.788948475159	98
8	826	1679.18271881736	99
8	831	1696.238730011446	100
8	846	1719.998500462939	101
8	882	1801.545845898093	102
8	887	1811.478161274629	103
8	890	1822.9474043475	104
8	903	1831.987898224169	105
8	942	1900.054263375388	106
8	968	1930.879711916983	107
8	1016	2065.747954866362	108
8	1021	2079.222024416164	109
8	1053	2186.257882865968	110
8	1058	2196.648632654602	111
8	1063	2202.442812672438	112
8	1088	2245.66032716098	113
8	1095	2265.528720877836	114
8	1129	2331.791785486798	115
8	1130	2331.991965231219	116
8	1134	2340.58316960005	117
8	1161	2395.880823197549	118
8	1175	2419.113139491138	119
8	1179	2430.13692746915	120
8	1186	2447.614386844789	121
8	1200	2490.072251236238	122
8	1203	2498.234133236355	123
9	179	387.875199824405	9.166047574271
9	186	397.309636363823	17.035320721413
9	187	402.368385279025	13.132879661474
9	196	443.116837580473	52.139486255815
9	199	452.916997018522	34.55175385663
9	200	454.07024671745	13.54011950971
9	211	460.098558733044	2.679535498482
9	216	470.044633590327	1.245569445036
9	219	481.582930163865	1.264699366662
9	224	486.641584195766	1.732060346896
9	236	508.116732772616	2.154882123182
9	266	574.767670267163	20.657561490617
9	290	608.667279777364	21.488843633255
9	293	620.81460524455	28.171592607804
9	296	623.740192932879	23.494755063134
9	301	641.715698748836	41.054181168786
9	302	644.938385426648	36.07375138745
9	307	670.527332839203	41.535257068268
9	310	673.160371153048	17.961698083473
9	327	732.7484540254	11.290409754502
9	350	790.815317791403	5.716781217403
9	360	829.843638602297	16.757897141536
9	386	880.53444179825	25.702878860269
9	403	893.6725680023	2.804475917833
9	412	909.527695052663	16.705473895739
9	415	914.514407999512	10.073429547455
9	426	929.094179816178	15.070172102019
9	433	938.329237305515	9.941389569404
9	452	952.791687161184	1.480776098691
9	461	969.781395217355	18.05940672169
9	462	969.93626279395	15.023727878626
9	471	981.16273963367	17.719016430763
9	472	984.822138054851	16.520461511669
9	497	1058.487269983289	2.240358336354
9	500	1066.153333406212	8.58995099576
9	510	1096.303375413678	2.329822555676
9	513	1105.739606801639	4.190844096349
9	516	1112.467466798599	0.534556225216
9	523	1131.211554901334	3.425150766607
9	528	1140.333899886205	1.850883048297
9	534	1144.987683648029	1.763571172268
9	537	1155.994758572076	4.845572216645
9	544	1167.407221318364	5.950382124847
9	549	1174.639155812471	0.841618424006
9	552	1193.748328066559	2.380084410835
9	570	1243.153117731476	26.737182765639
9	573	1249.619577757625	32.021095538189
9	574	1250.543006109229	1.342628361496
9	590	1290.201860265077	13.118700976564
9	594	1307.315788849017	3.598095982042
9	627	1359.484170590401	13.330990415183
9	669	1424.662674770041	6.661202283828
9	676	1447.580880914695	11.401514122113
9	698	1465.89693943629	3.665298087829
9	702	1466.969150660398	0.627545757411
9	710	1475.612502025077	4.647845224897
9	722	1485.032003296891	7.253758047931
9	723	1485.796052485383	7.742957409685
9	735	1493.049718674766	4.586496512263
9	736	1501.031395413896	10.612738113918
9	741	1512.705216515951	3.076050227354
9	746	1523.66216681268	9.142779252885
9	747	1525.252843230608	2.769139904217
9	759	1544.237798490733	12.335938328784
9	770	1555.536639147544	19.8904023768
9	780	1573.651840336382	0.665019198995
9	787	1598.606227720075	20.430274072722
9	788	1601.887464496469	16.64571144589
9	789	1602.851513811717	15.718535207732
9	800	1625.270723814526	17.403823584458
9	801	1631.160000214327	10.301253876412
9	813	1651.659869322423	0.002657864237
9	821	1676.788948475159	13.330496503652
9	826	1679.18271881736	9.375139658627
9	831	1696.238730011446	6.380406211987
9	846	1719.998500462939	1.582808973446
9	882	1801.545845898093	1.529960779037
9	887	1811.478161274629	3.397820281029
9	890	1822.9474043475	12.606224976669
9	903	1831.987898224169	7.59900028391
9	942	1900.054263375388	18.106822210266
9	968	1930.879711916983	14.757313688557
9	1016	2065.747954866362	20.081281072606
9	1021	2079.222024416164	19.534956774721
9	1053	2186.257882865968	0.210943383863
9	1058	2196.648632654602	1.815502708445
9	1063	2202.442812672438	6.143112756842
9	1088	2245.66032716098	1.56298466286
9	1095	2265.528720877836	0.303573094356
9	1129	2331.791785486798	14.821252620057
9	1130	2331.991965231219	8.207940493026
9	1134	2340.58316960005	2.486693011985
9	1161	2395.880823197549	0.523406181873
9	1175	2419.113139491138	1.401077206697
9	1179	2430.13692746915	3.397652500172
9	1186	2447.614386844789	8.523775792336
9	1200	2490.072251236238	9.897445325014
9	1203	2498.234133236355	2.254777493534
10	208	457.419023234562	6
10	349	785.098536574	7
10	701	1466.341604902987	8
10	715	1477.77824524896	9
10	894	1824.388897940259	10
10	1087	2244.09734249812	11
10	1174	2417.712062284441	12
11	1204	2500	0.1112
12	1204	2500	0.0492

