version 2
run experiments_easy_game_mode1-459-20230308-12:03:30-20703
attr configname experiments_easy_game_mode1
attr datetime 20230308-12:03:30
attr experiment experiments_easy_game_mode1
attr inifile omnetpp.ini
attr iterationvars "$0=5.5, $1=1.5, $2=100"
attr iterationvarsf 5.5,1.5,100-
attr measurement "$0=5.5, $1=1.5, $2=100"
attr network Network
attr processid 20703
attr repetition 9
attr replication #9
attr resultdir results
attr runnumber 459
attr seedset 9
param *.boss.arrival_mean 20
param *.boss.service_mean 5.5
param *.minion.arrival_mean 10
param *.minion.service_mean 1.5
param *.player.recover_rate_x 100
param **.minion.arrival_distribution 0
param **.minion.service_distribution 0
param **.boss.arrival_distribution 0
param **.boss.service_distribution 0

vector 0 Network.player boss_defeated_stat:vector ETV
attr source signal_boss_defeated
vector 1 Network.player boss_jobs_queue_number_stat:vector ETV
attr source signal_boss_jobs_queue_number
vector 2 Network.player boss_response_time_stat:vector ETV
attr source signal_boss_response_time
vector 3 Network.player minion_waiting_time_stat:vector ETV
attr source signal_minion_waiting_time
vector 4 Network.player minion_defeated_stat:vector ETV
attr source signal_minion_defeated
vector 5 Network.player minion_jobs_queue_number_stat:vector ETV
attr source signal_minion_jobs_queue_number
vector 6 Network.player minion_response_time_stat:vector ETV
attr source signal_minion_response_time
vector 7 Network.player minion_jobs_number_stat:vector ETV
attr source signal_minion_jobs_number
vector 8 Network.player boss_jobs_number_stat:vector ETV
attr source signal_boss_jobs_number
vector 9 Network.player boss_waiting_time_stat:vector ETV
attr source signal_boss_waiting_time
vector 10 Network.player minion_recovered_stat:vector ETV
attr source signal_minion_recovered
vector 11 Network.player minion_throughput:vector ETV
attr source signal_minion_throughput
vector 12 Network.player boss_throughput:vector ETV
attr source signal_boss_throughput
0	128	353.361448012809	10
0	138	371.007124813545	11
0	147	384.68738194747	12
0	154	389.679851926814	13
0	157	391.171858526975	14
0	164	403.056442825077	15
0	169	409.532247898255	16
0	176	415.041110020699	17
0	197	445.380570239751	18
0	200	459.67594087078	19
0	226	492.528541315806	20
0	233	501.824210221552	21
0	249	521.647745694668	22
0	262	544.939444870789	23
0	270	551.184035288091	24
0	284	576.7903521913	25
0	293	589.760153641641	26
0	297	629.791082812395	27
0	308	673.060556934315	28
0	315	682.672466431597	29
0	316	684.920846553275	30
0	330	713.522176746912	31
0	338	727.327986860444	32
0	344	743.939888695274	33
0	345	746.263863893211	34
0	357	764.125677090932	35
0	362	767.889748172667	36
0	366	784.306130733708	37
0	369	793.49513402748	38
0	387	836.556943393965	39
0	391	848.017319323937	40
0	411	906.503341444275	41
0	426	920.21102139181	42
0	442	968.001326439954	43
0	449	981.749846330605	44
0	458	988.755363114674	45
0	459	989.376735662432	46
0	462	991.306901257731	47
0	463	992.840254013675	48
0	483	1012.31295017335	49
0	511	1080.678929440977	50
0	544	1140.644467925491	51
0	545	1141.529746408559	52
0	561	1210.716406046211	53
0	570	1220.318084433947	54
0	573	1229.460744812865	55
0	590	1266.339802032832	56
0	607	1290.957580446108	57
0	614	1305.023786280195	58
0	627	1330.051774361795	59
0	635	1339.47701734529	60
0	638	1345.582116850991	61
0	641	1352.319495145227	62
0	651	1379.175649749363	63
0	656	1388.829839358956	64
0	666	1439.608056574542	65
0	674	1449.593928326402	66
0	686	1480.297422783648	67
0	689	1484.303306105812	68
0	690	1488.609638985959	69
0	691	1489.820237609547	70
0	694	1495.634591835186	71
0	699	1503.156957006262	72
0	704	1509.277106181674	73
0	707	1515.521322708959	74
0	725	1544.383441935307	75
0	734	1586.891081789517	76
0	735	1586.966164984288	77
0	740	1606.689631588314	78
0	748	1619.284314010108	79
0	749	1620.633934931637	80
0	753	1625.581046408074	81
0	773	1731.624752413724	82
0	786	1747.613273273017	83
0	805	1800.153950906561	84
0	806	1807.063011138163	85
0	807	1810.832965169469	86
0	813	1840.097496699709	87
0	816	1849.465837539069	88
0	822	1854.31911749326	89
0	833	1868.615943597372	90
0	834	1873.828204968845	91
0	840	1884.282965326167	92
0	843	1886.417054226526	93
0	858	1927.194545513855	94
0	891	2022.423069360117	95
0	908	2041.243210624028	96
0	909	2043.055003140996	97
0	930	2057.839237601272	98
0	935	2066.065614443514	99
0	939	2071.858844419469	100
0	944	2082.568308018913	101
0	957	2130.195296331757	102
0	964	2144.791188827102	103
0	967	2152.316124369978	104
0	968	2153.566823179987	105
0	984	2183.392010145757	106
0	997	2205.23350379842	107
0	1011	2227.230947549531	108
0	1016	2234.289457834638	109
0	1019	2237.938057398793	110
0	1020	2240.279066237555	111
0	1029	2269.421620336611	112
0	1030	2270.782710480278	113
0	1033	2273.098743067845	114
0	1040	2279.395134297918	115
0	1047	2288.874762334257	116
0	1056	2297.296358424414	117
0	1068	2334.243407629729	118
0	1082	2366.378361419921	119
0	1088	2370.877334167473	120
0	1094	2382.859634337159	121
0	1104	2426.476843444927	122
0	1109	2444.42622127194	123
0	1113	2460.915675778749	124
0	1119	2493.598014883054	125
1	128	353.361448012809	0
1	137	366.90674060042	0
1	138	371.007124813545	0
1	146	381.784833013177	0
1	147	384.68738194747	0
1	151	386.250875507134	0
1	154	389.679851926814	0
1	156	389.749122569849	0
1	157	391.171858526975	0
1	161	399.549588799422	0
1	163	402.504371015353	1
1	164	403.056442825077	1
1	168	408.499009690112	1
1	169	409.532247898255	1
1	176	415.041110020699	0
1	194	443.817232557662	0
1	196	445.367973862082	1
1	197	445.380570239751	1
1	200	459.67594087078	0
1	211	478.003471691353	0
1	219	484.600153220399	1
1	226	492.528541315806	1
1	233	501.824210221552	0
1	248	517.502141464979	0
1	249	521.647745694668	0
1	257	529.042666305749	0
1	262	544.939444870789	0
1	269	549.723407939261	0
1	270	551.184035288091	0
1	275	562.927292449865	0
1	284	576.7903521913	0
1	290	586.270515660759	0
1	293	589.760153641641	0
1	296	626.843884536897	0
1	297	629.791082812395	0
1	299	647.353795303353	0
1	303	662.438482297379	1
1	308	673.060556934315	1
1	314	680.919630399863	1
1	315	682.672466431597	1
1	316	684.920846553275	0
1	329	697.442376960556	0
1	330	713.522176746912	0
1	335	725.763040227324	0
1	338	727.327986860444	0
1	341	738.500469943368	0
1	343	739.177665474985	1
1	344	743.939888695274	1
1	345	746.263863893211	0
1	356	762.526755291277	0
1	357	764.125677090932	0
1	359	765.313687185756	0
1	362	767.889748172667	0
1	365	779.370713826155	0
1	366	784.306130733708	0
1	368	791.075455498199	0
1	369	793.49513402748	0
1	382	825.727435836351	0
1	387	836.556943393965	0
1	390	841.668238793278	0
1	391	848.017319323937	0
1	410	906.230180631313	0
1	411	906.503341444275	0
1	425	918.329453634844	0
1	426	920.21102139181	0
1	433	957.388344174164	0
1	435	957.723820241117	1
1	441	965.1212364791	2
1	442	968.001326439954	2
1	444	970.625671301786	2
1	449	981.749846330605	2
1	453	986.583432109771	2
1	455	987.393290059605	3
1	458	988.755363114674	3
1	459	989.376735662432	2
1	462	991.306901257731	1
1	463	992.840254013675	0
1	482	1008.65887140681	0
1	483	1012.31295017335	0
1	508	1070.155179727889	0
1	511	1080.678929440977	0
1	539	1130.416300279589	0
1	541	1132.048297238397	1
1	544	1140.644467925491	1
1	545	1141.529746408559	0
1	560	1205.642446634233	0
1	561	1210.716406046211	0
1	569	1216.616931884824	0
1	570	1220.318084433947	0
1	572	1228.520457625003	0
1	573	1229.460744812865	0
1	587	1254.734196931696	0
1	590	1266.339802032832	0
1	604	1286.850380159512	0
1	607	1290.957580446108	0
1	613	1302.844015444965	0
1	614	1305.023786280195	0
1	626	1328.909099580252	0
1	627	1330.051774361795	0
1	632	1337.388330083135	0
1	634	1339.233828183082	1
1	635	1339.47701734529	1
1	637	1343.29505004117	1
1	638	1345.582116850991	1
1	641	1352.319495145227	0
1	650	1374.799124051652	0
1	651	1379.175649749363	0
1	653	1387.35074829731	0
1	656	1388.829839358956	0
1	665	1438.672465126625	0
1	666	1439.608056574542	0
1	671	1446.386407934709	0
1	674	1449.593928326402	0
1	677	1465.471776737086	0
1	681	1472.526123282645	1
1	683	1477.260476761024	2
1	685	1478.758750500482	3
1	686	1480.297422783648	3
1	688	1484.290723402252	3
1	689	1484.303306105812	3
1	690	1488.609638985959	2
1	691	1489.820237609547	1
1	693	1490.187265864041	1
1	694	1495.634591835186	1
1	696	1500.847975289427	1
1	699	1503.156957006262	1
1	703	1508.857475936079	1
1	704	1509.277106181674	1
1	707	1515.521322708959	0
1	722	1534.984185702364	0
1	725	1544.383441935307	0
1	731	1584.596546818588	0
1	733	1584.900654196861	1
1	734	1586.891081789517	1
1	735	1586.966164984288	0
1	737	1604.854966012996	0
1	740	1606.689631588314	0
1	743	1608.92861649769	0
1	745	1610.735235706327	1
1	748	1619.284314010108	1
1	749	1620.633934931637	0
1	752	1622.440234149539	0
1	753	1625.581046408074	0
1	770	1725.797566812866	0
1	773	1731.624752413724	0
1	785	1744.043509672546	0
1	786	1747.613273273017	0
1	800	1790.574625413366	0
1	802	1793.295441535686	1
1	804	1796.601928198126	2
1	805	1800.153950906561	2
1	806	1807.063011138163	1
1	807	1810.832965169469	0
1	812	1830.0117169173	0
1	813	1840.097496699709	0
1	815	1848.743132659626	0
1	816	1849.465837539069	0
1	821	1853.658041950659	0
1	822	1854.31911749326	0
1	824	1855.784039861942	0
1	826	1857.679617678275	1
1	833	1868.615943597372	1
1	834	1873.828204968845	0
1	839	1882.457710465602	0
1	840	1884.282965326167	0
1	842	1885.04093721874	0
1	843	1886.417054226526	0
1	857	1925.63764088096	0
1	858	1927.194545513855	0
1	890	2022.200134446936	0
1	891	2022.423069360117	0
1	905	2032.794886553949	0
1	907	2040.625890296416	1
1	908	2041.243210624028	1
1	909	2043.055003140996	0
1	929	2053.878915809292	0
1	930	2057.839237601272	0
1	934	2064.153547375319	0
1	935	2066.065614443514	0
1	938	2068.750220991927	0
1	939	2071.858844419469	0
1	941	2081.78025563606	0
1	944	2082.568308018913	0
1	956	2126.915847722145	0
1	957	2130.195296331757	0
1	959	2137.731399979001	0
1	961	2139.643418030477	1
1	964	2144.791188827102	1
1	966	2146.629260054248	1
1	967	2152.316124369978	1
1	968	2153.566823179987	0
1	983	2179.771093233548	0
1	984	2183.392010145757	0
1	992	2196.627595088498	0
1	997	2205.23350379842	0
1	1006	2216.971440694834	0
1	1010	2226.000127713074	1
1	1011	2227.230947549531	1
1	1013	2228.447023846671	1
1	1015	2234.20252635727	2
1	1016	2234.289457834638	2
1	1018	2237.414483346714	2
1	1019	2237.938057398793	2
1	1020	2240.279066237555	1
1	1022	2249.077865559208	1
1	1028	2259.534430219018	2
1	1029	2269.421620336611	2
1	1030	2270.782710480278	1
1	1033	2273.098743067845	0
1	1039	2277.923741025562	0
1	1040	2279.395134297918	0
1	1046	2288.666116345938	0
1	1047	2288.874762334257	0
1	1055	2296.659481833168	0
1	1056	2297.296358424414	0
1	1067	2330.015315462675	0
1	1068	2334.243407629729	0
1	1073	2350.915731692075	0
1	1082	2366.378361419921	0
1	1087	2367.773846882979	0
1	1088	2370.877334167473	0
1	1093	2378.574598955318	0
1	1094	2382.859634337159	0
1	1103	2425.11642804679	0
1	1104	2426.476843444927	0
1	1106	2431.98697731575	0
1	1109	2444.42622127194	0
1	1112	2458.246234532336	0
1	1113	2460.915675778749	0
1	1118	2481.626538504285	0
1	1119	2493.598014883054	0
2	128	353.361448012809	5.080829653901
2	138	371.007124813545	4.100384213125
2	147	384.68738194747	2.902548934293
2	154	389.679851926814	3.42897641968
2	157	391.171858526975	1.422735957126
2	164	403.056442825077	3.506854025655
2	169	409.532247898255	7.027876882902
2	176	415.041110020699	6.542100330587
2	197	445.380570239751	1.563337682089
2	200	459.67594087078	14.307967008698
2	226	492.528541315806	14.525069624453
2	233	501.824210221552	17.224057001153
2	249	521.647745694668	4.145604229689
2	262	544.939444870789	15.89677856504
2	270	551.184035288091	1.46062734883
2	284	576.7903521913	13.863059741435
2	293	589.760153641641	3.489637980882
2	297	629.791082812395	2.947198275498
2	308	673.060556934315	25.706761630962
2	315	682.672466431597	20.233984134218
2	316	684.920846553275	4.001216153412
2	330	713.522176746912	16.079799786356
2	338	727.327986860444	1.56494663312
2	344	743.939888695274	5.439418751906
2	345	746.263863893211	7.086198418226
2	357	764.125677090932	1.598921799655
2	362	767.889748172667	2.576060986911
2	366	784.306130733708	4.935416907553
2	369	793.49513402748	2.419678529281
2	387	836.556943393965	10.829507557614
2	391	848.017319323937	6.349080530659
2	411	906.503341444275	0.273160812962
2	426	920.21102139181	1.881567756966
2	442	968.001326439954	10.61298226579
2	449	981.749846330605	24.026026089488
2	458	988.755363114674	23.634126635574
2	459	989.376735662432	18.751064360646
2	462	991.306901257731	4.72346914796
2	463	992.840254013675	5.44696395407
2	483	1012.31295017335	3.65407876654
2	511	1080.678929440977	10.523749713088
2	544	1140.644467925491	10.228167645902
2	545	1141.529746408559	9.481449170162
2	561	1210.716406046211	5.073959411978
2	570	1220.318084433947	3.701152549123
2	573	1229.460744812865	0.940287187862
2	590	1266.339802032832	11.605605101136
2	607	1290.957580446108	4.107200286596
2	614	1305.023786280195	2.17977083523
2	627	1330.051774361795	1.142674781543
2	635	1339.47701734529	2.088687262155
2	638	1345.582116850991	6.348288667909
2	641	1352.319495145227	9.024445104057
2	651	1379.175649749363	4.376525697711
2	656	1388.829839358956	1.479091061646
2	666	1439.608056574542	0.935591447917
2	674	1449.593928326402	3.207520391693
2	686	1480.297422783648	14.825646046562
2	689	1484.303306105812	11.777182823167
2	690	1488.609638985959	11.349162224935
2	691	1489.820237609547	11.061487109065
2	694	1495.634591835186	11.343868432934
2	699	1503.156957006262	12.969691142221
2	704	1509.277106181674	8.429130892247
2	707	1515.521322708959	6.66384677288
2	725	1544.383441935307	9.399256232943
2	734	1586.891081789517	2.294534970929
2	735	1586.966164984288	2.065510787427
2	740	1606.689631588314	1.834665575318
2	748	1619.284314010108	10.355697512418
2	749	1620.633934931637	9.89869922531
2	753	1625.581046408074	3.140812258535
2	773	1731.624752413724	5.827185600858
2	786	1747.613273273017	3.569763600471
2	805	1800.153950906561	9.579325493195
2	806	1807.063011138163	13.767569602477
2	807	1810.832965169469	14.231036971343
2	813	1840.097496699709	10.085779782409
2	816	1849.465837539069	0.722704879443
2	822	1854.31911749326	0.661075542601
2	833	1868.615943597372	12.83190373543
2	834	1873.828204968845	16.14858729057
2	840	1884.282965326167	1.825254860565
2	843	1886.417054226526	1.376117007786
2	858	1927.194545513855	1.556904632895
2	891	2022.423069360117	0.222934913181
2	908	2041.243210624028	8.448324070079
2	909	2043.055003140996	2.42911284458
2	930	2057.839237601272	3.96032179198
2	935	2066.065614443514	1.912067068195
2	939	2071.858844419469	3.108623427542
2	944	2082.568308018913	0.788052382853
2	957	2130.195296331757	3.279448609612
2	964	2144.791188827102	7.059788848101
2	967	2152.316124369978	12.672706339501
2	968	2153.566823179987	6.937563125739
2	984	2183.392010145757	3.620916912209
2	997	2205.23350379842	8.605908709922
2	1011	2227.230947549531	10.259506854697
2	1016	2234.289457834638	8.289330121564
2	1019	2237.938057398793	9.491033552122
2	1020	2240.279066237555	6.076539880285
2	1029	2269.421620336611	32.007136989897
2	1030	2270.782710480278	21.70484492107
2	1033	2273.098743067845	13.564312848827
2	1040	2279.395134297918	1.471393272356
2	1047	2288.874762334257	0.208645988319
2	1056	2297.296358424414	0.636876591246
2	1068	2334.243407629729	4.228092167054
2	1082	2366.378361419921	15.462629727846
2	1088	2370.877334167473	3.103487284494
2	1094	2382.859634337159	4.285035381841
2	1104	2426.476843444927	1.360415398137
2	1109	2444.42622127194	12.43924395619
2	1113	2460.915675778749	2.669441246413
2	1119	2493.598014883054	11.971476378769
3	128	353.361448012809	4.940753741286
3	131	358.869815898493	0
3	134	363.575345481466	0
3	140	371.895046822157	0
3	143	377.923427276587	0
3	149	384.799375128966	0
3	154	389.679851926814	3.42897641968
3	157	391.171858526975	3.547804002682
3	158	395.145017477062	5.395894907213
3	176	415.041110020699	11.330354760148
3	177	417.668070714531	7.793109625156
3	178	417.746953747111	6.660546158446
3	179	418.156883220041	4.708099390841
3	182	422.660157450908	0
3	185	433.773755810936	0
3	188	436.534729798009	0
3	191	442.545318933231	0
3	200	459.67594087078	8.175931484059
3	203	461.62104389435	1.139355222951
3	206	472.330323151671	0
3	209	476.290602231417	0
3	233	501.824210221552	23.820738530199
3	234	506.539724653133	24.960658584789
3	235	507.923241735183	23.808270888171
3	236	508.530642936527	24.12343949947
3	237	509.922601533603	23.086806346389
3	240	510.898940092523	20.379613800017
3	241	512.063304267562	19.660362332914
3	242	512.359038232604	16.025563621875
3	243	513.9759303431	17.413051995454
3	246	517.46831537852	16.769118646084
3	249	521.647745694668	11.031157621614
3	250	523.810936408164	7.407767550618
3	253	525.207749552645	7.705608087666
3	254	526.152982186898	2.169475495743
3	262	544.939444870789	3.831304941204
3	265	546.246078332313	2.348837990799
3	266	546.928895498021	1.68222433599
3	272	552.687457586862	0
3	284	576.7903521913	9.980824316452
3	285	577.470221167899	8.746331689169
3	286	577.531601462184	8.232552694681
3	287	578.57548635573	5.091910453212
3	293	589.760153641641	0.160644771123
3	316	684.920846553275	32.241427509176
3	319	686.454454626554	22.603984503952
3	320	686.978967252932	20.483151235645
3	321	687.007950994204	12.829474099128
3	322	687.17485037388	12.738918821859
3	325	689.634992764713	3.762949165003
3	326	693.610707423641	6.104848442729
3	332	719.175333931076	0
3	338	727.327986860444	1.551959660876
3	347	747.679645429777	0
3	350	752.045525628458	0
3	353	755.63646562893	0
3	362	767.889748172667	2.043178362534
3	371	797.929656108619	0
3	374	803.366813512402	0
3	377	822.021854249861	0
3	380	824.195745265951	0.103529513058
3	387	836.556943393965	10.829507557614
3	388	840.132505841546	14.262213858195
3	391	848.017319323937	17.812012701066
3	392	851.155254434805	9.487015641527
3	395	876.496529601967	0
3	398	883.078995659064	0
3	401	885.170935277653	1.056710285069
3	404	900.309577423501	0
3	407	902.686028552706	0
3	413	907.841458093308	0
3	416	909.667048471529	1.443564707769
3	419	913.985896496045	0
3	422	915.511219768531	0
3	428	936.150174684048	0
3	431	957.350522892456	0
3	463	992.840254013675	35.451909839511
3	464	992.964286118396	33.426719743185
3	465	993.778740288385	32.763718738909
3	466	994.979911288285	21.173740300333
3	471	998.477290562051	24.143509238951
3	472	998.980138333552	13.247006937386
3	479	1003.335185938447	15.916699811686
3	480	1006.575928961749	16.857984519659
3	483	1012.31295017335	15.677588970471
3	484	1013.925193314411	16.423215854571
3	485	1015.228854466135	14.614473732221
3	486	1015.676841641629	12.739302223669
3	487	1021.231661625725	18.091748928246
3	488	1021.771134790813	13.112263384003
3	491	1026.66656114209	3.212958488207
3	494	1027.994057733385	0.149952391686
3	497	1040.4654648166	0
3	500	1054.46082730682	0
3	503	1065.476110816513	0
3	506	1068.776951415614	0
3	511	1080.678929440977	10.523749713088
3	512	1081.959612908948	8.069759587231
3	515	1086.223698181971	0
3	518	1087.65565446777	0.627402946955
3	521	1100.311728835791	0
3	524	1102.937126402404	0
3	527	1104.427014952391	1.130846236812
3	530	1105.543307395317	0
3	533	1119.230788976723	0
3	536	1120.999591853058	0
3	545	1141.529746408559	8.969573843606
3	548	1161.96034340535	0
3	551	1177.195997390942	0
3	554	1180.081416474803	0
3	557	1187.617665537362	0
3	563	1210.932903490067	0
3	566	1215.469320776207	0
3	575	1230.212834470246	0
3	578	1231.567563007815	0
3	581	1233.156948895368	0
3	584	1237.937985927801	0
3	590	1266.339802032832	6.823002476208
3	593	1270.559435578658	0.018886919817
3	596	1271.357510936169	0.036711784173
3	599	1276.407741542007	2.154320181393
3	602	1285.152790073744	0
3	607	1290.957580446108	4.107200286596
3	608	1292.661827678535	3.406224099784
3	611	1299.256933405716	0
3	614	1305.023786280195	2.17977083523
3	617	1312.449067215708	0
3	620	1316.279499870803	0
3	623	1327.794615258772	0
3	629	1333.785997853023	0
3	641	1352.319495145227	3.936346421476
3	644	1363.842141545331	0
3	647	1369.096946637516	1.284091112821
3	656	1388.829839358956	0.68522427228
3	659	1420.952007139121	0
3	662	1433.410097304958	0
3	668	1441.499454043538	0
3	674	1449.593928326402	1.163152162965
3	707	1515.521322708959	48.421583428953
3	708	1516.74240780143	15.475447733769
3	709	1519.02255188517	11.83235791108
3	710	1519.299837575547	8.036178899113
3	713	1520.296020921014	0.061393508288
3	716	1523.381496563648	0
3	719	1530.680263322624	0
3	725	1544.383441935307	5.450150606217
3	728	1555.691787578848	0
3	740	1606.689631588314	0.983826920943
3	749	1620.633934931637	1.617601292299
3	755	1641.110894273024	0
3	758	1646.610087463157	0
3	761	1647.9432327978	0
3	764	1662.830508195001	0
3	767	1667.699879731407	0
3	773	1731.624752413724	4.564717828163
3	776	1732.575873732124	0
3	779	1740.131284095942	0
3	782	1742.088416458281	0
3	788	1754.713226187395	0
3	791	1755.716418143894	0.891226194235
3	794	1773.115304760274	0
3	797	1787.885383079952	0
3	809	1819.757551536556	0
3	818	1849.952015362654	0
3	834	1873.828204968845	13.857402545015
3	835	1876.62219790226	13.715319775638
3	836	1877.811910866615	14.861248005077
3	845	1895.294256602229	0
3	848	1898.255995949292	0
3	851	1913.119553731396	0
3	854	1916.947606572373	0
3	860	1934.945801855677	0
3	863	1944.800417032737	0
3	866	1951.543731605016	0
3	869	1962.190647572055	0
3	872	1989.943338272855	0
3	875	1995.884336036208	0
3	878	2000.46358090522	0
3	881	2003.250193048485	0
3	884	2010.907439471988	0
3	887	2017.266243712978	0
3	893	2025.955543780031	0
3	896	2027.370390836814	1.120201582223
3	899	2028.994943436586	0
3	902	2029.416487304316	0.210953904167
3	911	2044.569981006974	0
3	914	2046.407150525472	0.792052660021
3	917	2047.618326690206	0
3	922	2049.801896547959	2.126801797297
3	923	2050.40823322709	1.129726604617
3	926	2052.021063180835	0
3	932	2061.933050463169	0
3	935	2066.065614443514	1.912067068195
3	944	2082.568308018913	0.604108663612
3	947	2084.060147935505	0.063072084186
3	950	2107.844581482129	0
3	953	2111.538694057014	0
3	968	2153.566823179987	9.865057792539
3	971	2162.923318210554	0
3	974	2164.607388322694	0.529370193007
3	977	2166.484025049534	1.517917626349
3	980	2177.139364210375	0
3	986	2185.971923398421	0
3	989	2191.392652329195	0
3	997	2205.23350379842	4.643746335923
3	998	2206.295725365342	4.304723850328
3	1001	2210.81382373994	0
3	1004	2215.667939719317	0
3	1033	2273.098743067845	56.127302373011
3	1034	2273.753268971669	50.967733600953
3	1035	2273.896500273358	24.802688415152
3	1036	2274.664731702192	22.454647488375
3	1037	2274.670910133558	3.819158968888
3	1040	2279.395134297918	1.471393272356
3	1043	2284.066064280049	0
3	1049	2289.114500274871	0
3	1052	2292.754600115712	0
3	1058	2297.876878442418	0
3	1061	2313.85941372327	0
3	1064	2319.616467540876	0
3	1070	2344.407621983521	0
3	1082	2366.378361419921	12.124776233088
3	1083	2366.781343111034	6.664805948004
3	1088	2370.877334167473	7.632391423757
3	1089	2371.407460385118	6.405666734981
3	1090	2371.674038579076	4.589204848574
3	1091	2376.641157443066	8.867310560087
3	1094	2382.859634337159	4.285035381841
3	1097	2389.69848845301	0
3	1100	2415.469235353027	0
3	1109	2444.42622127194	1.593462951674
3	1115	2470.443226876066	0
3	1121	2498.157739472885	0
4	129	354.720777203775	33
4	132	359.020315144752	34
4	135	364.853127113711	35
4	141	375.507656636195	36
4	144	379.754339638407	37
4	158	395.145017477062	38
4	159	395.552749843692	39
4	177	417.668070714531	40
4	178	417.746953747111	41
4	179	418.156883220041	42
4	180	418.374095872871	43
4	183	425.601144385906	44
4	186	433.960449363874	45
4	189	436.87354682896	46
4	192	443.225864313725	47
4	203	461.62104389435	48
4	204	464.061002712997	49
4	207	473.009840590718	50
4	234	506.539724653133	51
4	235	507.923241735183	52
4	236	508.530642936527	53
4	237	509.922601533603	54
4	240	510.898940092523	55
4	241	512.063304267562	56
4	242	512.359038232604	57
4	243	513.9759303431	58
4	246	517.46831537852	59
4	250	523.810936408164	60
4	253	525.207749552645	61
4	254	526.152982186898	62
4	255	526.485562532605	63
4	265	546.246078332313	64
4	266	546.928895498021	65
4	267	548.352072195237	66
4	273	554.045418026015	67
4	285	577.470221167899	68
4	286	577.531601462184	69
4	287	578.57548635573	70
4	288	581.186755017823	71
4	294	590.396368341254	72
4	319	686.454454626554	73
4	320	686.978967252932	74
4	321	687.007950994204	75
4	322	687.17485037388	76
4	325	689.634992764713	77
4	326	693.610707423641	78
4	327	694.389227618482	79
4	333	721.863021335128	80
4	339	727.333402459337	81
4	348	747.962920890308	82
4	351	752.98441302524	83
4	354	755.700450633181	84
4	363	768.505881339208	85
4	372	802.310012289492	86
4	375	804.516679309604	87
4	380	824.195745265951	88
4	388	840.132505841546	89
4	392	851.155254434805	90
4	393	853.233814856361	91
4	396	877.808493014468	92
4	401	885.170935277653	93
4	402	889.111268581526	94
4	405	901.247799495156	95
4	408	903.902400938644	96
4	416	909.667048471529	97
4	417	911.3972654989	98
4	420	914.045132927666	99
4	423	915.824037560566	100
4	429	937.857926515644	101
4	464	992.964286118396	102
4	465	993.778740288385	103
4	466	994.979911288285	104
4	471	998.477290562051	105
4	472	998.980138333552	106
4	479	1003.335185938447	107
4	480	1006.575928961749	108
4	484	1013.925193314411	109
4	485	1015.228854466135	110
4	486	1015.676841641629	111
4	487	1021.231661625725	112
4	488	1021.771134790813	113
4	491	1026.66656114209	114
4	494	1027.994057733385	115
4	495	1029.071714279975	116
4	498	1041.069209593053	117
4	501	1055.075690698173	118
4	504	1066.443394503677	119
4	512	1081.959612908948	120
4	513	1082.837862000884	121
4	518	1087.65565446777	122
4	519	1089.619916715484	123
4	522	1101.145722084831	124
4	527	1104.427014952391	125
4	528	1104.747056965991	126
4	531	1108.525640791608	127
4	534	1119.263253952436	128
4	537	1121.613871841838	129
4	546	1144.851675016908	130
4	549	1163.720761874438	131
4	552	1178.737686022767	132
4	555	1180.894905874494	133
4	558	1188.702508300645	134
4	564	1211.276386674868	135
4	567	1215.867150394558	136
4	576	1230.273496276845	137
4	579	1232.621390216098	138
4	582	1234.522116262039	139
4	585	1239.51439815844	140
4	593	1270.559435578658	141
4	596	1271.357510936169	142
4	599	1276.407741542007	143
4	600	1276.691437568332	144
4	608	1292.661827678535	145
4	609	1293.458730544684	146
4	615	1305.617710779066	147
4	618	1313.280799351828	148
4	621	1317.595655545184	149
4	624	1328.245003070397	150
4	630	1334.572990503736	151
4	642	1353.240088923953	152
4	647	1369.096946637516	153
4	648	1369.387727614987	154
4	657	1388.940907071503	155
4	660	1422.11758801995	156
4	663	1435.154050942949	157
4	669	1442.132841832464	158
4	675	1450.549085626643	159
4	708	1516.74240780143	160
4	709	1519.02255188517	161
4	710	1519.299837575547	162
4	713	1520.296020921014	163
4	714	1520.757394293308	164
4	717	1523.96794966153	165
4	720	1531.232147096026	166
4	726	1544.605234090952	167
4	729	1558.280498357087	168
4	741	1607.544407211701	169
4	750	1621.392162951219	170
4	756	1646.524504207509	171
4	759	1647.472210166134	172
4	762	1650.303252304071	173
4	765	1662.938516549786	174
4	768	1668.292744844097	175
4	774	1731.862579821562	176
4	777	1732.743368768453	177
4	780	1740.302556433059	178
4	783	1742.461197729487	179
4	791	1755.716418143894	180
4	792	1757.355425679769	181
4	795	1773.352536114207	182
4	798	1788.20737284368	183
4	810	1819.945788368047	184
4	819	1850.146870384926	185
4	835	1876.62219790226	186
4	836	1877.811910866615	187
4	837	1878.816834204791	188
4	846	1895.834302566437	189
4	849	1898.913318487871	190
4	852	1913.81572612448	191
4	855	1917.168251437895	192
4	861	1936.384213778692	193
4	864	1948.635034507428	194
4	867	1952.744444732123	195
4	870	1966.860615489538	196
4	873	1990.727287956949	197
4	876	1997.735913650873	198
4	879	2001.127053176019	199
4	882	2006.246955995268	200
4	885	2011.82127173269	201
4	888	2018.127415222468	202
4	896	2027.370390836814	203
4	897	2028.349573069984	204
4	902	2029.416487304316	205
4	903	2029.506517226114	206
4	914	2046.407150525472	207
4	915	2047.08673957555	208
4	922	2049.801896547959	209
4	923	2050.40823322709	210
4	924	2050.861562449392	211
4	927	2053.297913792179	212
4	936	2066.615001257435	213
4	947	2084.060147935505	214
4	948	2085.816640684834	215
4	951	2108.415613525479	216
4	954	2114.268827827434	217
4	969	2155.249615958824	218
4	974	2164.607388322694	219
4	977	2166.484025049534	220
4	978	2166.768829164263	221
4	981	2179.020800936062	222
4	987	2186.931897148656	223
4	990	2191.530860332681	224
4	998	2206.295725365342	225
4	999	2206.553578409635	226
4	1002	2212.534326726434	227
4	1034	2273.753268971669	228
4	1035	2273.896500273358	229
4	1036	2274.664731702192	230
4	1037	2274.670910133558	231
4	1041	2282.441586063787	232
4	1044	2285.15823397434	233
4	1050	2289.860400528191	234
4	1053	2292.877146355988	235
4	1059	2300.311918237118	236
4	1062	2314.800431476813	237
4	1065	2320.171832957438	238
4	1071	2344.445315592845	239
4	1083	2366.781343111034	240
4	1089	2371.407460385118	241
4	1090	2371.674038579076	242
4	1091	2376.641157443066	243
4	1095	2383.178335571964	244
4	1098	2395.268167722943	245
4	1101	2416.797456499304	246
4	1110	2448.290673416486	247
4	1116	2473.092917623628	248
4	1122	2498.855797280971	249
5	129	354.720777203775	0
5	131	358.869815898493	0
5	132	359.020315144752	0
5	134	363.575345481466	0
5	135	364.853127113711	0
5	140	371.895046822157	0
5	141	375.507656636195	0
5	143	377.923427276587	0
5	144	379.754339638407	0
5	149	384.799375128966	0
5	153	387.624054524293	1
5	158	395.145017477062	1
5	159	395.552749843692	0
5	166	403.710755260551	0
5	171	409.874961089375	1
5	173	411.086407588665	2
5	175	413.4487838292	3
5	177	417.668070714531	3
5	178	417.746953747111	2
5	179	418.156883220041	1
5	180	418.374095872871	0
5	182	422.660157450908	0
5	183	425.601144385906	0
5	185	433.773755810936	0
5	186	433.960449363874	0
5	188	436.534729798009	0
5	189	436.87354682896	0
5	191	442.545318933231	0
5	192	443.225864313725	0
5	199	451.500009386721	0
5	202	460.481688671399	1
5	203	461.62104389435	1
5	204	464.061002712997	0
5	206	472.330323151671	0
5	207	473.009840590718	0
5	209	476.290602231417	0
5	213	481.579066068344	1
5	215	484.114970847012	2
5	217	484.407203437057	3
5	221	486.835795187214	4
5	223	490.519326292506	5
5	225	492.402941934648	6
5	228	496.333474610729	7
5	230	496.562878347646	8
5	232	500.699196732436	9
5	234	506.539724653133	9
5	235	507.923241735183	8
5	236	508.530642936527	7
5	237	509.922601533603	6
5	239	510.616588073054	6
5	240	510.898940092523	6
5	241	512.063304267562	5
5	242	512.359038232604	4
5	243	513.9759303431	3
5	245	516.403168857546	3
5	246	517.46831537852	3
5	250	523.810936408164	2
5	252	523.983506691155	2
5	253	525.207749552645	2
5	254	526.152982186898	1
5	255	526.485562532605	0
5	259	541.108139929585	0
5	261	543.897240341514	1
5	264	545.246671162031	2
5	265	546.246078332313	2
5	266	546.928895498021	1
5	267	548.352072195237	0
5	272	552.687457586862	0
5	273	554.045418026015	0
5	277	566.809527874848	0
5	279	568.72388947873	1
5	281	569.299048767503	2
5	283	573.483575902518	3
5	285	577.470221167899	3
5	286	577.531601462184	2
5	287	578.57548635573	1
5	288	581.186755017823	0
5	292	589.599508870518	0
5	294	590.396368341254	0
5	301	652.679419044099	0
5	305	663.850470122602	1
5	307	666.495816017287	2
5	310	674.178476895076	3
5	312	674.435931552021	4
5	318	685.87204359971	5
5	319	686.454454626554	5
5	320	686.978967252932	4
5	321	687.007950994204	3
5	322	687.17485037388	2
5	324	687.505858980912	2
5	325	689.634992764713	2
5	326	693.610707423641	1
5	327	694.389227618482	0
5	332	719.175333931076	0
5	333	721.863021335128	0
5	337	725.776027199568	0
5	339	727.333402459337	0
5	347	747.679645429777	0
5	348	747.962920890308	0
5	350	752.045525628458	0
5	351	752.98441302524	0
5	353	755.63646562893	0
5	354	755.700450633181	0
5	361	765.846569810133	0
5	363	768.505881339208	0
5	371	797.929656108619	0
5	372	802.310012289492	0
5	374	803.366813512402	0
5	375	804.516679309604	0
5	377	822.021854249861	0
5	379	824.092215752893	1
5	380	824.195745265951	1
5	384	825.870291983351	1
5	386	830.205306622871	2
5	388	840.132505841546	2
5	392	851.155254434805	1
5	393	853.233814856361	0
5	395	876.496529601967	0
5	396	877.808493014468	0
5	398	883.078995659064	0
5	400	884.114224992584	1
5	401	885.170935277653	1
5	402	889.111268581526	0
5	404	900.309577423501	0
5	405	901.247799495156	0
5	407	902.686028552706	0
5	408	903.902400938644	0
5	413	907.841458093308	0
5	415	908.22348376376	1
5	416	909.667048471529	1
5	417	911.3972654989	0
5	419	913.985896496045	0
5	420	914.045132927666	0
5	422	915.511219768531	0
5	423	915.824037560566	0
5	428	936.150174684048	0
5	429	937.857926515644	0
5	431	957.350522892456	0
5	437	959.537566375211	1
5	439	961.015021549476	2
5	446	973.806170987952	3
5	448	974.3337813231	4
5	451	985.733131396166	5
5	457	987.418486126761	6
5	461	989.71794444209	7
5	464	992.964286118396	7
5	465	993.778740288385	6
5	466	994.979911288285	5
5	468	996.635361202879	5
5	470	997.50197745984	6
5	471	998.477290562051	6
5	472	998.980138333552	5
5	474	1000.614380733914	5
5	476	1002.93753941796	6
5	478	1003.139912697479	7
5	479	1003.335185938447	7
5	480	1006.575928961749	6
5	484	1013.925193314411	5
5	485	1015.228854466135	4
5	486	1015.676841641629	3
5	487	1021.231661625725	2
5	488	1021.771134790813	1
5	490	1023.453602653883	1
5	491	1026.66656114209	1
5	493	1027.844105341699	1
5	494	1027.994057733385	1
5	495	1029.071714279975	0
5	497	1040.4654648166	0
5	498	1041.069209593053	0
5	500	1054.46082730682	0
5	501	1055.075690698173	0
5	503	1065.476110816513	0
5	504	1066.443394503677	0
5	506	1068.776951415614	0
5	510	1073.889853321717	1
5	512	1081.959612908948	1
5	513	1082.837862000884	0
5	515	1086.223698181971	0
5	517	1087.028251520815	1
5	518	1087.65565446777	1
5	519	1089.619916715484	0
5	521	1100.311728835791	0
5	522	1101.145722084831	0
5	524	1102.937126402404	0
5	526	1103.296168715579	1
5	527	1104.427014952391	1
5	528	1104.747056965991	0
5	530	1105.543307395317	0
5	531	1108.525640791608	0
5	533	1119.230788976723	0
5	534	1119.263253952436	0
5	536	1120.999591853058	0
5	537	1121.613871841838	0
5	543	1132.560172564953	0
5	546	1144.851675016908	0
5	548	1161.96034340535	0
5	549	1163.720761874438	0
5	551	1177.195997390942	0
5	552	1178.737686022767	0
5	554	1180.081416474803	0
5	555	1180.894905874494	0
5	557	1187.617665537362	0
5	558	1188.702508300645	0
5	563	1210.932903490067	0
5	564	1211.276386674868	0
5	566	1215.469320776207	0
5	567	1215.867150394558	0
5	575	1230.212834470246	0
5	576	1230.273496276845	0
5	578	1231.567563007815	0
5	579	1232.621390216098	0
5	581	1233.156948895368	0
5	582	1234.522116262039	0
5	584	1237.937985927801	0
5	585	1239.51439815844	0
5	589	1259.516799556624	0
5	592	1270.540548658841	1
5	593	1270.559435578658	1
5	595	1271.320799151996	1
5	596	1271.357510936169	1
5	598	1274.253421360614	1
5	599	1276.407741542007	1
5	600	1276.691437568332	0
5	602	1285.152790073744	0
5	606	1289.255603578751	1
5	608	1292.661827678535	1
5	609	1293.458730544684	0
5	611	1299.256933405716	0
5	615	1305.617710779066	0
5	617	1312.449067215708	0
5	618	1313.280799351828	0
5	620	1316.279499870803	0
5	621	1317.595655545184	0
5	623	1327.794615258772	0
5	624	1328.245003070397	0
5	629	1333.785997853023	0
5	630	1334.572990503736	0
5	640	1348.383148723751	0
5	642	1353.240088923953	0
5	644	1363.842141545331	0
5	646	1367.812855524695	1
5	647	1369.096946637516	1
5	648	1369.387727614987	0
5	655	1388.144615086676	0
5	657	1388.940907071503	0
5	659	1420.952007139121	0
5	660	1422.11758801995	0
5	662	1433.410097304958	0
5	663	1435.154050942949	0
5	668	1441.499454043538	0
5	669	1442.132841832464	0
5	673	1448.430776163437	0
5	675	1450.549085626643	0
5	679	1467.099739280006	0
5	698	1501.266960067661	1
5	701	1507.19019397409	2
5	706	1511.263658676434	3
5	708	1516.74240780143	3
5	709	1519.02255188517	2
5	710	1519.299837575547	1
5	712	1520.234627412726	1
5	713	1520.296020921014	1
5	714	1520.757394293308	0
5	716	1523.381496563648	0
5	717	1523.96794966153	0
5	719	1530.680263322624	0
5	720	1531.232147096026	0
5	724	1538.93329132909	0
5	726	1544.605234090952	0
5	728	1555.691787578848	0
5	729	1558.280498357087	0
5	739	1605.705804667371	0
5	741	1607.544407211701	0
5	747	1619.016333639338	0
5	750	1621.392162951219	0
5	755	1641.110894273024	0
5	756	1646.524504207509	0
5	758	1646.610087463157	0
5	759	1647.472210166134	0
5	761	1647.9432327978	0
5	762	1650.303252304071	0
5	764	1662.830508195001	0
5	765	1662.938516549786	0
5	767	1667.699879731407	0
5	768	1668.292744844097	0
5	772	1727.060034585561	0
5	774	1731.862579821562	0
5	776	1732.575873732124	0
5	777	1732.743368768453	0
5	779	1740.131284095942	0
5	780	1740.302556433059	0
5	782	1742.088416458281	0
5	783	1742.461197729487	0
5	788	1754.713226187395	0
5	790	1754.825191949659	1
5	791	1755.716418143894	1
5	792	1757.355425679769	0
5	794	1773.115304760274	0
5	795	1773.352536114207	0
5	797	1787.885383079952	0
5	798	1788.20737284368	0
5	809	1819.757551536556	0
5	810	1819.945788368047	0
5	818	1849.952015362654	0
5	819	1850.146870384926	0
5	828	1859.97080242383	0
5	830	1862.906878126622	1
5	832	1862.950662861538	2
5	835	1876.62219790226	2
5	836	1877.811910866615	1
5	837	1878.816834204791	0
5	845	1895.294256602229	0
5	846	1895.834302566437	0
5	848	1898.255995949292	0
5	849	1898.913318487871	0
5	851	1913.119553731396	0
5	852	1913.81572612448	0
5	854	1916.947606572373	0
5	855	1917.168251437895	0
5	860	1934.945801855677	0
5	861	1936.384213778692	0
5	863	1944.800417032737	0
5	864	1948.635034507428	0
5	866	1951.543731605016	0
5	867	1952.744444732123	0
5	869	1962.190647572055	0
5	870	1966.860615489538	0
5	872	1989.943338272855	0
5	873	1990.727287956949	0
5	875	1995.884336036208	0
5	876	1997.735913650873	0
5	878	2000.46358090522	0
5	879	2001.127053176019	0
5	881	2003.250193048485	0
5	882	2006.246955995268	0
5	884	2010.907439471988	0
5	885	2011.82127173269	0
5	887	2017.266243712978	0
5	888	2018.127415222468	0
5	893	2025.955543780031	0
5	895	2026.250189254591	1
5	896	2027.370390836814	1
5	897	2028.349573069984	0
5	899	2028.994943436586	0
5	901	2029.205533400149	1
5	902	2029.416487304316	1
5	903	2029.506517226114	0
5	911	2044.569981006974	0
5	913	2045.615097865451	1
5	914	2046.407150525472	1
5	915	2047.08673957555	0
5	917	2047.618326690206	0
5	919	2047.675094750662	1
5	921	2049.278506622473	2
5	922	2049.801896547959	2
5	923	2050.40823322709	1
5	924	2050.861562449392	0
5	926	2052.021063180835	0
5	927	2053.297913792179	0
5	932	2061.933050463169	0
5	936	2066.615001257435	0
5	943	2081.964199355301	0
5	946	2083.997075851319	1
5	947	2084.060147935505	1
5	948	2085.816640684834	0
5	950	2107.844581482129	0
5	951	2108.415613525479	0
5	953	2111.538694057014	0
5	954	2114.268827827434	0
5	963	2143.701765387448	0
5	969	2155.249615958824	0
5	971	2162.923318210554	0
5	973	2164.078018129687	1
5	974	2164.607388322694	1
5	976	2164.966107423185	1
5	977	2166.484025049534	1
5	978	2166.768829164263	0
5	980	2177.139364210375	0
5	981	2179.020800936062	0
5	986	2185.971923398421	0
5	987	2186.931897148656	0
5	989	2191.392652329195	0
5	990	2191.530860332681	0
5	994	2200.589757462497	0
5	996	2201.991001515014	1
5	998	2206.295725365342	1
5	999	2206.553578409635	0
5	1001	2210.81382373994	0
5	1002	2212.534326726434	0
5	1004	2215.667939719317	0
5	1008	2222.785535370716	1
5	1024	2249.093811858206	2
5	1026	2252.210084213817	3
5	1032	2270.85175116467	4
5	1034	2273.753268971669	4
5	1035	2273.896500273358	3
5	1036	2274.664731702192	2
5	1037	2274.670910133558	1
5	1041	2282.441586063787	0
5	1043	2284.066064280049	0
5	1044	2285.15823397434	0
5	1049	2289.114500274871	0
5	1050	2289.860400528191	0
5	1052	2292.754600115712	0
5	1053	2292.877146355988	0
5	1058	2297.876878442418	0
5	1059	2300.311918237118	0
5	1061	2313.85941372327	0
5	1062	2314.800431476813	0
5	1064	2319.616467540876	0
5	1065	2320.171832957438	0
5	1070	2344.407621983521	0
5	1071	2344.445315592845	0
5	1075	2354.253585186833	0
5	1077	2360.11653716303	1
5	1079	2363.244942743716	2
5	1081	2365.001793650137	3
5	1083	2366.781343111034	3
5	1085	2367.084833730502	3
5	1089	2371.407460385118	3
5	1090	2371.674038579076	2
5	1091	2376.641157443066	1
5	1095	2383.178335571964	0
5	1097	2389.69848845301	0
5	1098	2395.268167722943	0
5	1100	2415.469235353027	0
5	1101	2416.797456499304	0
5	1108	2442.832758320266	0
5	1110	2448.290673416486	0
5	1115	2470.443226876066	0
5	1116	2473.092917623628	0
5	1121	2498.157739472885	0
5	1122	2498.855797280971	0
6	129	354.720777203775	6.300082932252
6	132	359.020315144752	0.150499246259
6	135	364.853127113711	1.277781632245
6	141	375.507656636195	3.612609814038
6	144	379.754339638407	1.83091236182
6	158	395.145017477062	7.520962952769
6	159	395.552749843692	5.803627273843
6	177	417.668070714531	13.95731545398
6	178	417.746953747111	7.871992657736
6	179	418.156883220041	7.070475631376
6	180	418.374095872871	4.925312043671
6	183	425.601144385906	2.940986934998
6	186	433.960449363874	0.186693552938
6	189	436.87354682896	0.338817030951
6	192	443.225864313725	0.680545380494
6	203	461.62104389435	10.121034507629
6	204	464.061002712997	3.579314041598
6	207	473.009840590718	0.679517439047
6	234	506.539724653133	28.53625296178
6	235	507.923241735183	26.344175666839
6	236	508.530642936527	24.415672089515
6	237	509.922601533603	25.515398096546
6	240	510.898940092523	24.063144905309
6	241	512.063304267562	21.543977975056
6	242	512.359038232604	19.956096297956
6	243	513.9759303431	17.642455732371
6	246	517.46831537852	20.905437030874
6	250	523.810936408164	13.19434833511
6	253	525.207749552645	8.804580695099
6	254	526.152982186898	8.650840721919
6	255	526.485562532605	2.50205584145
6	265	546.246078332313	5.137938402728
6	266	546.928895498021	3.031655156507
6	267	548.352072195237	3.105401033206
6	273	554.045418026015	1.357960439153
6	285	577.470221167899	10.660693293051
6	286	577.531601462184	8.807711983454
6	287	578.57548635573	9.276437588227
6	288	581.186755017823	7.703179115305
6	294	590.396368341254	0.796859470736
6	319	686.454454626554	33.775035582455
6	320	686.978967252932	23.12849713033
6	321	687.007950994204	20.512134976917
6	322	687.17485037388	12.996373478804
6	325	689.634992764713	15.199061212692
6	326	693.610707423641	7.738663823931
6	327	694.389227618482	6.88336863757
6	333	721.863021335128	2.687687404052
6	339	727.333402459337	1.557375259769
6	348	747.962920890308	0.283275460531
6	351	752.98441302524	0.938887396782
6	354	755.700450633181	0.063985004251
6	363	768.505881339208	2.659311529075
6	372	802.310012289492	4.380356180873
6	375	804.516679309604	1.149865797202
6	380	824.195745265951	2.17389101609
6	388	840.132505841546	14.405070005195
6	392	851.155254434805	20.949947811934
6	393	853.233814856361	11.565576063083
6	396	877.808493014468	1.311963412501
6	401	885.170935277653	2.091939618589
6	402	889.111268581526	4.997043588942
6	405	901.247799495156	0.938222071655
6	408	903.902400938644	1.216372385938
6	416	909.667048471529	1.825590378221
6	417	911.3972654989	3.17378173514
6	420	914.045132927666	0.059236431621
6	423	915.824037560566	0.312817792035
6	429	937.857926515644	1.707751831596
6	464	992.964286118396	35.575941944232
6	465	993.778740288385	34.241173913174
6	466	994.979911288285	33.964889738809
6	471	998.477290562051	24.671119574099
6	472	998.980138333552	24.646357010452
6	479	1003.335185938447	17.602054542281
6	480	1006.575928961749	19.157442834988
6	484	1013.925193314411	17.289832111532
6	485	1015.228854466135	17.726877006295
6	486	1015.676841641629	15.062460907715
6	487	1021.231661625725	18.294122207765
6	488	1021.771134790813	18.631222093334
6	491	1026.66656114209	18.00768973528
6	494	1027.994057733385	4.540455079502
6	495	1029.071714279975	1.227608938276
6	498	1041.069209593053	0.603744776453
6	501	1055.075690698173	0.614863391353
6	504	1066.443394503677	0.967283687164
6	512	1081.959612908948	11.804433181059
6	513	1082.837862000884	8.948008679167
6	518	1087.65565446777	1.431956285799
6	519	1089.619916715484	2.591665194669
6	522	1101.145722084831	0.83399324904
6	527	1104.427014952391	1.489888549987
6	528	1104.747056965991	1.450888250412
6	531	1108.525640791608	2.982333396291
6	534	1119.263253952436	0.032464975713
6	537	1121.613871841838	0.61427998878
6	546	1144.851675016908	12.291502451955
6	549	1163.720761874438	1.760418469088
6	552	1178.737686022767	1.541688631825
6	555	1180.894905874494	0.813489399691
6	558	1188.702508300645	1.084842763283
6	564	1211.276386674868	0.343483184801
6	567	1215.867150394558	0.397829618351
6	576	1230.273496276845	0.060661806599
6	579	1232.621390216098	1.053827208283
6	582	1234.522116262039	1.365167366671
6	585	1239.51439815844	1.576412230639
6	593	1270.559435578658	11.042636022034
6	596	1271.357510936169	0.816962277328
6	599	1276.407741542007	5.086942390011
6	600	1276.691437568332	2.438016207718
6	608	1292.661827678535	5.811447519023
6	609	1293.458730544684	4.203126965933
6	615	1305.617710779066	2.773695334101
6	618	1313.280799351828	0.83173213612
6	621	1317.595655545184	1.316155674381
6	624	1328.245003070397	0.450387811625
6	630	1334.572990503736	0.786992650713
6	642	1353.240088923953	4.856940200202
6	647	1369.096946637516	5.254805092185
6	648	1369.387727614987	1.574872090292
6	657	1388.940907071503	0.796291984827
6	660	1422.11758801995	1.165580880829
6	663	1435.154050942949	1.743953637991
6	669	1442.132841832464	0.633387788926
6	675	1450.549085626643	2.118309463206
6	708	1516.74240780143	49.642668521424
6	709	1519.02255188517	17.755591817509
6	710	1519.299837575547	12.109643601457
6	713	1520.296020921014	9.03236224458
6	714	1520.757394293308	0.522766880582
6	717	1523.96794966153	0.586453097882
6	720	1531.232147096026	0.551883773402
6	726	1544.605234090952	5.671942761862
6	729	1558.280498357087	2.588710778239
6	741	1607.544407211701	1.83860254433
6	750	1621.392162951219	2.375829311881
6	756	1646.524504207509	5.413609934485
6	759	1647.472210166134	0.862122702977
6	762	1650.303252304071	2.360019506271
6	765	1662.938516549786	0.108008354785
6	768	1668.292744844097	0.59286511269
6	774	1731.862579821562	4.802545236001
6	777	1732.743368768453	0.167495036329
6	780	1740.302556433059	0.171272337117
6	783	1742.461197729487	0.372781271206
6	791	1755.716418143894	1.003191956499
6	792	1757.355425679769	2.53023373011
6	795	1773.352536114207	0.237231353933
6	798	1788.20737284368	0.321989763728
6	810	1819.945788368047	0.188236831491
6	819	1850.146870384926	0.194855022272
6	835	1876.62219790226	16.65139547843
6	836	1877.811910866615	14.905032739993
6	837	1878.816834204791	15.866171343253
6	846	1895.834302566437	0.540045964208
6	849	1898.913318487871	0.657322538579
6	852	1913.81572612448	0.696172393084
6	855	1917.168251437895	0.220644865522
6	861	1936.384213778692	1.438411923015
6	864	1948.635034507428	3.834617474691
6	867	1952.744444732123	1.200713127107
6	870	1966.860615489538	4.669967917483
6	873	1990.727287956949	0.783949684094
6	876	1997.735913650873	1.851577614665
6	879	2001.127053176019	0.663472270799
6	882	2006.246955995268	2.996762946783
6	885	2011.82127173269	0.913832260702
6	888	2018.127415222468	0.86117150949
6	896	2027.370390836814	1.414847056783
6	897	2028.349573069984	2.099383815393
6	902	2029.416487304316	0.42154386773
6	903	2029.506517226114	0.300983825965
6	914	2046.407150525472	1.837169518498
6	915	2047.08673957555	1.471641710099
6	922	2049.801896547959	2.183569857753
6	923	2050.40823322709	2.733138476428
6	924	2050.861562449392	1.583055826919
6	927	2053.297913792179	1.276850611344
6	936	2066.615001257435	2.461453882116
6	947	2084.060147935505	2.095948580204
6	948	2085.816640684834	1.819564833515
6	951	2108.415613525479	0.57103204335
6	954	2114.268827827434	2.73013377042
6	969	2155.249615958824	11.547850571376
6	974	2164.607388322694	1.68407011214
6	977	2166.484025049534	2.406006919847
6	978	2166.768829164263	1.802721741078
6	981	2179.020800936062	1.881436725687
6	987	2186.931897148656	0.959973750235
6	990	2191.530860332681	0.138208003486
6	998	2206.295725365342	5.705967902845
6	999	2206.553578409635	4.562576894621
6	1002	2212.534326726434	1.720502986494
6	1034	2273.753268971669	56.781828276835
6	1035	2273.896500273358	51.110964902642
6	1036	2274.664731702192	25.570919843986
6	1037	2274.670910133558	22.460825919741
6	1041	2282.441586063787	4.517845038225
6	1044	2285.15823397434	1.092169694291
6	1050	2289.860400528191	0.74590025332
6	1053	2292.877146355988	0.122546240276
6	1059	2300.311918237118	2.4350397947
6	1062	2314.800431476813	0.941017753543
6	1065	2320.171832957438	0.555365416562
6	1071	2344.445315592845	0.037693609324
6	1083	2366.781343111034	12.527757924201
6	1089	2371.407460385118	8.162517641402
6	1090	2371.674038579076	6.672244928939
6	1091	2376.641157443066	9.556323712564
6	1095	2383.178335571964	4.603736616646
6	1098	2395.268167722943	5.569679269933
6	1101	2416.797456499304	1.328221146277
6	1110	2448.290673416486	5.45791509622
6	1116	2473.092917623628	2.649690747562
6	1122	2498.855797280971	0.698057808086
7	131	358.869815898493	1
7	134	363.575345481466	1
7	140	371.895046822157	1
7	143	377.923427276587	1
7	149	384.799375128966	1
7	153	387.624054524293	2
7	166	403.710755260551	1
7	171	409.874961089375	2
7	173	411.086407588665	3
7	175	413.4487838292	4
7	182	422.660157450908	1
7	185	433.773755810936	1
7	188	436.534729798009	1
7	191	442.545318933231	1
7	199	451.500009386721	1
7	202	460.481688671399	2
7	206	472.330323151671	1
7	209	476.290602231417	1
7	213	481.579066068344	2
7	215	484.114970847012	3
7	217	484.407203437057	4
7	221	486.835795187214	5
7	223	490.519326292506	6
7	225	492.402941934648	7
7	228	496.333474610729	8
7	230	496.562878347646	9
7	232	500.699196732436	10
7	239	510.616588073054	7
7	245	516.403168857546	4
7	252	523.983506691155	3
7	259	541.108139929585	1
7	261	543.897240341514	2
7	264	545.246671162031	3
7	272	552.687457586862	1
7	277	566.809527874848	1
7	279	568.72388947873	2
7	281	569.299048767503	3
7	283	573.483575902518	4
7	292	589.599508870518	1
7	301	652.679419044099	1
7	305	663.850470122602	2
7	307	666.495816017287	3
7	310	674.178476895076	4
7	312	674.435931552021	5
7	318	685.87204359971	6
7	324	687.505858980912	3
7	332	719.175333931076	1
7	337	725.776027199568	1
7	347	747.679645429777	1
7	350	752.045525628458	1
7	353	755.63646562893	1
7	361	765.846569810133	1
7	371	797.929656108619	1
7	374	803.366813512402	1
7	377	822.021854249861	1
7	379	824.092215752893	2
7	384	825.870291983351	2
7	386	830.205306622871	3
7	395	876.496529601967	1
7	398	883.078995659064	1
7	400	884.114224992584	2
7	404	900.309577423501	1
7	407	902.686028552706	1
7	413	907.841458093308	1
7	415	908.22348376376	2
7	419	913.985896496045	1
7	422	915.511219768531	1
7	428	936.150174684048	1
7	431	957.350522892456	1
7	437	959.537566375211	2
7	439	961.015021549476	3
7	446	973.806170987952	4
7	448	974.3337813231	5
7	451	985.733131396166	6
7	457	987.418486126761	7
7	461	989.71794444209	8
7	468	996.635361202879	6
7	470	997.50197745984	7
7	474	1000.614380733914	6
7	476	1002.93753941796	7
7	478	1003.139912697479	8
7	490	1023.453602653883	2
7	493	1027.844105341699	2
7	497	1040.4654648166	1
7	500	1054.46082730682	1
7	503	1065.476110816513	1
7	506	1068.776951415614	1
7	510	1073.889853321717	2
7	515	1086.223698181971	1
7	517	1087.028251520815	2
7	521	1100.311728835791	1
7	524	1102.937126402404	1
7	526	1103.296168715579	2
7	530	1105.543307395317	1
7	533	1119.230788976723	1
7	536	1120.999591853058	1
7	543	1132.560172564953	1
7	548	1161.96034340535	1
7	551	1177.195997390942	1
7	554	1180.081416474803	1
7	557	1187.617665537362	1
7	563	1210.932903490067	1
7	566	1215.469320776207	1
7	575	1230.212834470246	1
7	578	1231.567563007815	1
7	581	1233.156948895368	1
7	584	1237.937985927801	1
7	589	1259.516799556624	1
7	592	1270.540548658841	2
7	595	1271.320799151996	2
7	598	1274.253421360614	2
7	602	1285.152790073744	1
7	606	1289.255603578751	2
7	611	1299.256933405716	1
7	617	1312.449067215708	1
7	620	1316.279499870803	1
7	623	1327.794615258772	1
7	629	1333.785997853023	1
7	640	1348.383148723751	1
7	644	1363.842141545331	1
7	646	1367.812855524695	2
7	655	1388.144615086676	1
7	659	1420.952007139121	1
7	662	1433.410097304958	1
7	668	1441.499454043538	1
7	673	1448.430776163437	1
7	679	1467.099739280006	1
7	698	1501.266960067661	2
7	701	1507.19019397409	3
7	706	1511.263658676434	4
7	712	1520.234627412726	2
7	716	1523.381496563648	1
7	719	1530.680263322624	1
7	724	1538.93329132909	1
7	728	1555.691787578848	1
7	739	1605.705804667371	1
7	747	1619.016333639338	1
7	755	1641.110894273024	1
7	758	1646.610087463157	1
7	761	1647.9432327978	1
7	764	1662.830508195001	1
7	767	1667.699879731407	1
7	772	1727.060034585561	1
7	776	1732.575873732124	1
7	779	1740.131284095942	1
7	782	1742.088416458281	1
7	788	1754.713226187395	1
7	790	1754.825191949659	2
7	794	1773.115304760274	1
7	797	1787.885383079952	1
7	809	1819.757551536556	1
7	818	1849.952015362654	1
7	828	1859.97080242383	1
7	830	1862.906878126622	2
7	832	1862.950662861538	3
7	845	1895.294256602229	1
7	848	1898.255995949292	1
7	851	1913.119553731396	1
7	854	1916.947606572373	1
7	860	1934.945801855677	1
7	863	1944.800417032737	1
7	866	1951.543731605016	1
7	869	1962.190647572055	1
7	872	1989.943338272855	1
7	875	1995.884336036208	1
7	878	2000.46358090522	1
7	881	2003.250193048485	1
7	884	2010.907439471988	1
7	887	2017.266243712978	1
7	893	2025.955543780031	1
7	895	2026.250189254591	2
7	899	2028.994943436586	1
7	901	2029.205533400149	2
7	911	2044.569981006974	1
7	913	2045.615097865451	2
7	917	2047.618326690206	1
7	919	2047.675094750662	2
7	921	2049.278506622473	3
7	926	2052.021063180835	1
7	932	2061.933050463169	1
7	943	2081.964199355301	1
7	946	2083.997075851319	2
7	950	2107.844581482129	1
7	953	2111.538694057014	1
7	963	2143.701765387448	1
7	971	2162.923318210554	1
7	973	2164.078018129687	2
7	976	2164.966107423185	2
7	980	2177.139364210375	1
7	986	2185.971923398421	1
7	989	2191.392652329195	1
7	994	2200.589757462497	1
7	996	2201.991001515014	2
7	1001	2210.81382373994	1
7	1004	2215.667939719317	1
7	1008	2222.785535370716	2
7	1024	2249.093811858206	3
7	1026	2252.210084213817	4
7	1032	2270.85175116467	5
7	1043	2284.066064280049	1
7	1049	2289.114500274871	1
7	1052	2292.754600115712	1
7	1058	2297.876878442418	1
7	1061	2313.85941372327	1
7	1064	2319.616467540876	1
7	1070	2344.407621983521	1
7	1075	2354.253585186833	1
7	1077	2360.11653716303	2
7	1079	2363.244942743716	3
7	1081	2365.001793650137	4
7	1085	2367.084833730502	4
7	1097	2389.69848845301	1
7	1100	2415.469235353027	1
7	1108	2442.832758320266	1
7	1115	2470.443226876066	1
7	1121	2498.157739472885	1
8	137	366.90674060042	1
8	146	381.784833013177	1
8	151	386.250875507134	1
8	156	389.749122569849	1
8	161	399.549588799422	1
8	163	402.504371015353	2
8	168	408.499009690112	2
8	194	443.817232557662	1
8	196	445.367973862082	2
8	211	478.003471691353	1
8	219	484.600153220399	2
8	248	517.502141464979	1
8	257	529.042666305749	1
8	269	549.723407939261	1
8	275	562.927292449865	1
8	290	586.270515660759	1
8	296	626.843884536897	1
8	299	647.353795303353	1
8	303	662.438482297379	2
8	314	680.919630399863	2
8	329	697.442376960556	1
8	335	725.763040227324	1
8	341	738.500469943368	1
8	343	739.177665474985	2
8	356	762.526755291277	1
8	359	765.313687185756	1
8	365	779.370713826155	1
8	368	791.075455498199	1
8	382	825.727435836351	1
8	390	841.668238793278	1
8	410	906.230180631313	1
8	425	918.329453634844	1
8	433	957.388344174164	1
8	435	957.723820241117	2
8	441	965.1212364791	3
8	444	970.625671301786	3
8	453	986.583432109771	3
8	455	987.393290059605	4
8	482	1008.65887140681	1
8	508	1070.155179727889	1
8	539	1130.416300279589	1
8	541	1132.048297238397	2
8	560	1205.642446634233	1
8	569	1216.616931884824	1
8	572	1228.520457625003	1
8	587	1254.734196931696	1
8	604	1286.850380159512	1
8	613	1302.844015444965	1
8	626	1328.909099580252	1
8	632	1337.388330083135	1
8	634	1339.233828183082	2
8	637	1343.29505004117	2
8	650	1374.799124051652	1
8	653	1387.35074829731	1
8	665	1438.672465126625	1
8	671	1446.386407934709	1
8	677	1465.471776737086	1
8	681	1472.526123282645	2
8	683	1477.260476761024	3
8	685	1478.758750500482	4
8	688	1484.290723402252	4
8	693	1490.187265864041	2
8	696	1500.847975289427	2
8	703	1508.857475936079	2
8	722	1534.984185702364	1
8	731	1584.596546818588	1
8	733	1584.900654196861	2
8	737	1604.854966012996	1
8	743	1608.92861649769	1
8	745	1610.735235706327	2
8	752	1622.440234149539	1
8	770	1725.797566812866	1
8	785	1744.043509672546	1
8	800	1790.574625413366	1
8	802	1793.295441535686	2
8	804	1796.601928198126	3
8	812	1830.0117169173	1
8	815	1848.743132659626	1
8	821	1853.658041950659	1
8	824	1855.784039861942	1
8	826	1857.679617678275	2
8	839	1882.457710465602	1
8	842	1885.04093721874	1
8	857	1925.63764088096	1
8	890	2022.200134446936	1
8	905	2032.794886553949	1
8	907	2040.625890296416	2
8	929	2053.878915809292	1
8	934	2064.153547375319	1
8	938	2068.750220991927	1
8	941	2081.78025563606	1
8	956	2126.915847722145	1
8	959	2137.731399979001	1
8	961	2139.643418030477	2
8	966	2146.629260054248	2
8	983	2179.771093233548	1
8	992	2196.627595088498	1
8	1006	2216.971440694834	1
8	1010	2226.000127713074	2
8	1013	2228.447023846671	2
8	1015	2234.20252635727	3
8	1018	2237.414483346714	3
8	1022	2249.077865559208	2
8	1028	2259.534430219018	3
8	1039	2277.923741025562	1
8	1046	2288.666116345938	1
8	1055	2296.659481833168	1
8	1067	2330.015315462675	1
8	1073	2350.915731692075	1
8	1087	2367.773846882979	1
8	1093	2378.574598955318	1
8	1103	2425.11642804679	1
8	1106	2431.98697731575	1
8	1112	2458.246234532336	1
8	1118	2481.626538504285	1
9	137	366.90674060042	0
9	146	381.784833013177	0
9	151	386.250875507134	0
9	156	389.749122569849	0
9	161	399.549588799422	0
9	164	403.056442825077	0.552071809724
9	169	409.532247898255	1.033238208143
9	194	443.817232557662	0
9	197	445.380570239751	0.012596377669
9	211	478.003471691353	0
9	226	492.528541315806	7.928388095407
9	248	517.502141464979	0
9	257	529.042666305749	0
9	269	549.723407939261	0
9	275	562.927292449865	0
9	290	586.270515660759	0
9	296	626.843884536897	0
9	299	647.353795303353	0
9	308	673.060556934315	10.622074636936
9	315	682.672466431597	1.752836031734
9	329	697.442376960556	0
9	335	725.763040227324	0
9	341	738.500469943368	0
9	344	743.939888695274	4.762223220289
9	356	762.526755291277	0
9	359	765.313687185756	0
9	365	779.370713826155	0
9	368	791.075455498199	0
9	382	825.727435836351	0
9	390	841.668238793278	0
9	410	906.230180631313	0
9	425	918.329453634844	0
9	433	957.388344174164	0
9	442	968.001326439954	10.277506198837
9	449	981.749846330605	16.628609851505
9	458	988.755363114674	18.129691812888
9	459	989.376735662432	2.793303552661
9	462	991.306901257731	3.913611198126
9	482	1008.65887140681	0
9	508	1070.155179727889	0
9	539	1130.416300279589	0
9	544	1140.644467925491	8.596170687094
9	560	1205.642446634233	0
9	569	1216.616931884824	0
9	572	1228.520457625003	0
9	587	1254.734196931696	0
9	604	1286.850380159512	0
9	613	1302.844015444965	0
9	626	1328.909099580252	0
9	632	1337.388330083135	0
9	635	1339.47701734529	0.243189162208
9	638	1345.582116850991	2.287066809821
9	650	1374.799124051652	0
9	653	1387.35074829731	0
9	665	1438.672465126625	0
9	671	1446.386407934709	0
9	677	1465.471776737086	0
9	686	1480.297422783648	7.771299501003
9	689	1484.303306105812	7.042829344788
9	690	1488.609638985959	9.850888485477
9	691	1489.820237609547	5.529514207295
9	694	1495.634591835186	5.447325971145
9	699	1503.156957006262	2.308981716835
9	704	1509.277106181674	0.419630245595
9	722	1534.984185702364	0
9	731	1584.596546818588	0
9	734	1586.891081789517	1.990427592656
9	737	1604.854966012996	0
9	743	1608.92861649769	0
9	748	1619.284314010108	8.549078303781
9	752	1622.440234149539	0
9	770	1725.797566812866	0
9	785	1744.043509672546	0
9	800	1790.574625413366	0
9	805	1800.153950906561	6.858509370875
9	806	1807.063011138163	10.461082940037
9	812	1830.0117169173	0
9	815	1848.743132659626	0
9	821	1853.658041950659	0
9	824	1855.784039861942	0
9	833	1868.615943597372	10.936325919097
9	839	1882.457710465602	0
9	842	1885.04093721874	0
9	857	1925.63764088096	0
9	890	2022.200134446936	0
9	905	2032.794886553949	0
9	908	2041.243210624028	0.617320327612
9	929	2053.878915809292	0
9	934	2064.153547375319	0
9	938	2068.750220991927	0
9	941	2081.78025563606	0
9	956	2126.915847722145	0
9	959	2137.731399979001	0
9	964	2144.791188827102	5.147770796625
9	967	2152.316124369978	5.68686431573
9	983	2179.771093233548	0
9	992	2196.627595088498	0
9	1006	2216.971440694834	0
9	1011	2227.230947549531	1.230819836457
9	1016	2234.289457834638	5.842433987967
9	1019	2237.938057398793	3.735531041523
9	1020	2240.279066237555	2.864582890841
9	1029	2269.421620336611	20.343754777403
9	1030	2270.782710480278	11.24828026126
9	1039	2277.923741025562	0
9	1046	2288.666116345938	0
9	1055	2296.659481833168	0
9	1067	2330.015315462675	0
9	1073	2350.915731692075	0
9	1087	2367.773846882979	0
9	1093	2378.574598955318	0
9	1103	2425.11642804679	0
9	1106	2431.98697731575	0
9	1112	2458.246234532336	0
9	1118	2481.626538504285	0
10	151	386.250875507134	1
10	156	389.749122569849	2
10	211	478.003471691353	3
10	248	517.502141464979	4
10	382	825.727435836351	5
10	390	841.668238793278	6
10	433	957.388344174164	7
10	482	1008.65887140681	8
10	508	1070.155179727889	9
10	604	1286.850380159512	10
10	613	1302.844015444965	11
10	934	2064.153547375319	12
10	1006	2216.971440694834	13
10	1039	2277.923741025562	14
10	1087	2367.773846882979	15
10	1093	2378.574598955318	16
11	1123	2500	0.0996
12	1123	2500	0.05

