file 68507 1678273449                                           
version 2
run experiments_easy_game_mode1-646-20230308-12:04:09-21647
attr configname experiments_easy_game_mode1
attr datetime 20230308-12:04:09
attr experiment experiments_easy_game_mode1
attr inifile omnetpp.ini
attr iterationvars "$0=5.5, $1=3, $2=100"
attr iterationvarsf 5.5,3,100-
attr measurement "$0=5.5, $1=3, $2=100"
attr network Network
attr processid 21647
attr repetition 16
attr replication #16
attr resultdir results
attr runnumber 646
attr seedset 16
param *.boss.arrival_mean 20
param *.boss.service_mean 5.5
param *.minion.arrival_mean 10
param *.minion.service_mean 3
param *.player.recover_rate_x 100
param **.minion.arrival_distribution 0
param **.minion.service_distribution 0
param **.boss.arrival_distribution 0
param **.boss.service_distribution 0

vector 0 Network.player minion_jobs_number_stat:vector ETV
attr source signal_minion_jobs_number
vector 1 Network.player minion_jobs_queue_number_stat:vector ETV
attr source signal_minion_jobs_queue_number
vector 2 Network.player minion_waiting_time_stat:vector ETV
attr source signal_minion_waiting_time
vector 3 Network.player boss_jobs_number_stat:vector ETV
attr source signal_boss_jobs_number
vector 4 Network.player boss_jobs_queue_number_stat:vector ETV
attr source signal_boss_jobs_queue_number
vector 5 Network.player minion_recovered_stat:vector ETV
attr source signal_minion_recovered
vector 6 Network.player boss_waiting_time_stat:vector ETV
attr source signal_boss_waiting_time
vector 7 Network.player boss_defeated_stat:vector ETV
attr source signal_boss_defeated
vector 8 Network.player boss_response_time_stat:vector ETV
attr source signal_boss_response_time
vector 9 Network.player minion_defeated_stat:vector ETV
attr source signal_minion_defeated
vector 10 Network.player minion_response_time_stat:vector ETV
attr source signal_minion_response_time
vector 11 Network.player minion_throughput:vector ETV
attr source signal_minion_throughput
vector 12 Network.player boss_throughput:vector ETV
attr source signal_boss_throughput
0	2021 5893 161 1238 368.8046549948 2480.211963592418 228 1 8 565 2127
1	7914 11793 161 1239 368.8046549948 2492.477437189532 456 0 7 674 2450
2	19707 9330 161 1238 368.8046549948 2480.211963592418 266 0 65.897487705177 2811.1691847611 79812.214371969
3	29037 3387 165 1225 369.138949755894 2458.382625969776 132 1 6 213 457
4	32424 6781 165 1226 369.138949755894 2460.652463919846 264 0 5 162 326
5	39205 1019 165 1225 369.138949755894 2458.382625969776 38 5 42 893 25555
6	40224 4083 165 1225 369.138949755894 2458.382625969776 132 0 20.71958832575 396.91450081597 4846.9706448362
7	44307 3581 166 1226 374.067875408627 2460.652463919846 132 23 154 11682 1225510
8	47888 5142 166 1226 374.067875408627 2460.652463919846 132 0.046461171414 32.262132722477 1138.3561582497 17660.759314042
9	53030 6288 167 1239 378.09421744513 2492.477437189532 228 32 259 33174 5814494
10	59318 9148 167 1239 378.09421744513 2492.477437189532 228 0.050995981438 66.18986452835 3046.4005689774 89983.442781111
11	68466 20 1240 1240 2500 2500 1 0.1036 0.1036 0.1036 0.01073296
12	68486 20 1240 1240 2500 2500 1 0.0616 0.0616 0.0616 0.00379456

