file 62763 1678273728                                           
version 2
run experiments_easy_game_mode1-1930-20230308-12:08:48-28439
attr configname experiments_easy_game_mode1
attr datetime 20230308-12:08:48
attr experiment experiments_easy_game_mode1
attr inifile omnetpp.ini
attr iterationvars "$0=7.5, $1=2, $2=0"
attr iterationvarsf 7.5,2,0-
attr measurement "$0=7.5, $1=2, $2=0"
attr network Network
attr processid 28439
attr repetition 10
attr replication #10
attr resultdir results
attr runnumber 1930
attr seedset 10
param *.boss.arrival_mean 20
param *.boss.service_mean 7.5
param *.minion.arrival_mean 10
param *.minion.service_mean 2
param *.player.recover_rate_x 0
param **.minion.arrival_distribution 0
param **.minion.service_distribution 0
param **.boss.arrival_distribution 0
param **.boss.service_distribution 0

vector 0 Network.player boss_defeated_stat:vector ETV
attr source signal_boss_defeated
vector 1 Network.player boss_jobs_queue_number_stat:vector ETV
attr source signal_boss_jobs_queue_number
vector 2 Network.player boss_response_time_stat:vector ETV
attr source signal_boss_response_time
vector 3 Network.player boss_waiting_time_stat:vector ETV
attr source signal_boss_waiting_time
vector 4 Network.player minion_waiting_time_stat:vector ETV
attr source signal_minion_waiting_time
vector 5 Network.player minion_defeated_stat:vector ETV
attr source signal_minion_defeated
vector 6 Network.player minion_jobs_queue_number_stat:vector ETV
attr source signal_minion_jobs_queue_number
vector 7 Network.player minion_response_time_stat:vector ETV
attr source signal_minion_response_time
vector 8 Network.player minion_jobs_number_stat:vector ETV
attr source signal_minion_jobs_number
vector 9 Network.player boss_jobs_number_stat:vector ETV
attr source signal_boss_jobs_number
vector 10 Network.player minion_recovered_stat:vector ETV
attr source signal_minion_recovered
vector 11 Network.player minion_throughput:vector ETV
attr source signal_minion_throughput
vector 12 Network.player boss_throughput:vector ETV
attr source signal_boss_throughput
0	2015 2917 171 1152 350.339574637241 2449.452105280742 108 20 127 7938 688410
1	4932 5483 171 1152 350.339574637241 2449.452105280742 213 0 5 175 461
2	10415 4226 171 1152 350.339574637241 2449.452105280742 108 0.002712705007 69.23549215224 1607.8628273195 48562.990301872
3	14641 3373 171 1151 350.339574637241 2446.879911890008 107 0 57.34564560218 740.32727905957 23260.923470656
4	18014 8527 173 1172 355.303608237819 2487.898238471302 248 0 133.40285356707 3954.5057366957 242583.87386135
5	26541 6304 174 1173 355.588440910526 2491.666066538798 229 36 264 34350 6153230
6	32845 11800 174 1173 355.588440910526 2491.666066538798 457 0 12 836 4708
7	44645 8966 174 1173 355.588440910526 2491.666066538798 229 0.111432607783 134.66076769206 4088.3727470838 244345.81409593
8	53611 5886 176 1172 367.376450425266 2487.898238471302 228 1 13 646 3418
9	59497 2702 199 1151 419.824288542282 2446.879911890008 105 1 6 191 505
10	62199 523 199 1147 419.824288542282 2438.055371942036 19 3 21 228 3306
11	62722 20 1174 1174 2500 2500 1 0.1056 0.1056 0.1056 0.01115136
12	62742 20 1174 1174 2500 2500 1 0.0508 0.0508 0.0508 0.00258064

