version 2
run experiments_easy_game_mode1-785-20230308-12:04:38-22387
attr configname experiments_easy_game_mode1
attr datetime 20230308-12:04:38
attr experiment experiments_easy_game_mode1
attr inifile omnetpp.ini
attr iterationvars "$0=6, $1=1.5, $2=0"
attr iterationvarsf 6,1.5,0-
attr measurement "$0=6, $1=1.5, $2=0"
attr network Network
attr processid 22387
attr repetition 5
attr replication #5
attr resultdir results
attr runnumber 785
attr seedset 5
param *.boss.arrival_mean 20
param *.boss.service_mean 6
param *.minion.arrival_mean 10
param *.minion.service_mean 1.5
param *.player.recover_rate_x 0
param **.minion.arrival_distribution 0
param **.minion.service_distribution 0
param **.boss.arrival_distribution 0
param **.boss.service_distribution 0

vector 0 Network.player boss_defeated_stat:vector ETV
attr source signal_boss_defeated
vector 1 Network.player boss_jobs_queue_number_stat:vector ETV
attr source signal_boss_jobs_queue_number
vector 2 Network.player boss_response_time_stat:vector ETV
attr source signal_boss_response_time
vector 3 Network.player minion_jobs_number_stat:vector ETV
attr source signal_minion_jobs_number
vector 4 Network.player minion_jobs_queue_number_stat:vector ETV
attr source signal_minion_jobs_queue_number
vector 5 Network.player minion_waiting_time_stat:vector ETV
attr source signal_minion_waiting_time
vector 6 Network.player minion_defeated_stat:vector ETV
attr source signal_minion_defeated
vector 7 Network.player minion_response_time_stat:vector ETV
attr source signal_minion_response_time
vector 8 Network.player boss_jobs_number_stat:vector ETV
attr source signal_boss_jobs_number
vector 9 Network.player boss_waiting_time_stat:vector ETV
attr source signal_boss_waiting_time
vector 10 Network.player minion_recovered_stat:vector ETV
attr source signal_minion_recovered
vector 11 Network.player minion_throughput:vector ETV
attr source signal_minion_throughput
vector 12 Network.player boss_throughput:vector ETV
attr source signal_boss_throughput
0	132	352.684868679955	19
0	143	385.249269280727	20
0	144	385.264076806447	21
0	149	393.887129944835	22
0	161	414.859653637601	23
0	172	449.451473794797	24
0	177	462.425676340133	25
0	178	462.426174923433	26
0	187	469.24871499244	27
0	220	530.145281820548	28
0	221	535.488754614125	29
0	222	538.74803378901	30
0	225	561.765887438167	31
0	228	568.631766246896	32
0	233	579.82138009729	33
0	234	588.202591298547	34
0	251	628.182021570573	35
0	260	643.411264508302	36
0	275	664.526777491869	37
0	276	667.541353130853	38
0	279	671.53886082484	39
0	298	715.959844366505	40
0	311	751.632502027713	41
0	332	802.526277162198	42
0	343	828.764218354204	43
0	376	884.144407077954	44
0	380	888.040029308169	45
0	389	896.954158184493	46
0	398	907.591612942326	47
0	408	920.377917646957	48
0	413	937.872697852838	49
0	432	965.407261767369	50
0	441	982.744221959834	51
0	449	993.424402170903	52
0	469	1019.534525669565	53
0	487	1090.391667219728	54
0	488	1092.944046719336	55
0	498	1110.986093516809	56
0	513	1171.165223531166	57
0	531	1201.525338444088	58
0	551	1282.346211741037	59
0	573	1335.515213256347	60
0	589	1364.914423783132	61
0	609	1412.851718139235	62
0	617	1449.993747805408	63
0	625	1467.012259767551	64
0	626	1467.773989771715	65
0	630	1474.739887509976	66
0	637	1484.035688875754	67
0	644	1506.116702557156	68
0	660	1541.761290744725	69
0	663	1547.664057304373	70
0	669	1571.644465844358	71
0	697	1633.04497466229	72
0	706	1651.875159993464	73
0	711	1667.061641343547	74
0	714	1670.807686226427	75
0	726	1678.824412121072	76
0	732	1692.281731318154	77
0	739	1706.442809829662	78
0	748	1714.738063551153	79
0	758	1741.495578912281	80
0	761	1746.959186678942	81
0	783	1815.883676901066	82
0	786	1824.79673751748	83
0	789	1838.871254697905	84
0	792	1845.271241576123	85
0	801	1854.639249531969	86
0	802	1859.533942609389	87
0	812	1869.132877756773	88
0	813	1870.310772228736	89
0	818	1883.99314269026	90
0	828	1907.823453432837	91
0	839	1948.022958819942	92
0	845	1971.575946253077	93
0	849	1979.684610231064	94
0	854	1985.389930989809	95
0	864	2005.847647549667	96
0	867	2010.5093372064	97
0	882	2044.27525293905	98
0	893	2071.769030126031	99
0	899	2076.429819558214	100
0	909	2094.561798595889	101
0	912	2107.2051223337	102
0	924	2120.988548727791	103
0	927	2131.353237573135	104
0	934	2159.661906410409	105
0	946	2178.639650862395	106
0	953	2193.592626484204	107
0	954	2193.758086659364	108
0	996	2265.440888298493	109
0	1014	2295.720704061408	110
0	1017	2319.637701146139	111
0	1042	2372.94728058749	112
0	1043	2376.708774024465	113
0	1053	2388.380395964038	114
0	1054	2401.050984842451	115
0	1065	2441.304417685114	116
0	1066	2442.261931644427	117
0	1074	2464.501314239586	118
0	1077	2470.408146998505	119
0	1080	2480.567112779439	120
1	132	352.684868679955	0
1	140	381.910508285344	0
1	142	382.12216177113	1
1	143	385.249269280727	1
1	144	385.264076806447	0
1	146	385.458599038288	0
1	149	393.887129944835	0
1	152	401.932998597983	0
1	154	404.293112790177	1
1	161	414.859653637601	1
1	169	437.903864460807	1
1	171	439.767450543379	2
1	172	449.451473794797	2
1	177	462.425676340133	1
1	178	462.426174923433	0
1	184	467.105152708054	0
1	187	469.24871499244	0
1	209	507.778352471988	0
1	211	511.970843354015	1
1	213	523.641403692857	2
1	215	523.764599663184	3
1	217	526.525142992614	4
1	220	530.145281820548	4
1	221	535.488754614125	3
1	222	538.74803378901	2
1	224	556.097184880185	2
1	225	561.765887438167	2
1	227	564.45633319999	2
1	228	568.631766246896	2
1	233	579.82138009729	1
1	234	588.202591298547	0
1	250	627.778284939314	0
1	251	628.182021570573	0
1	259	638.222539276565	0
1	260	643.411264508302	0
1	272	662.431607004495	0
1	274	662.436923341715	1
1	275	664.526777491869	1
1	276	667.541353130853	0
1	278	669.501349085891	0
1	279	671.53886082484	0
1	295	712.041199677948	0
1	298	715.959844366505	0
1	308	741.260931673624	0
1	311	751.632502027713	0
1	329	799.551242766425	0
1	332	802.526277162198	0
1	340	822.860284331871	0
1	343	828.764218354204	0
1	371	877.543810870645	0
1	376	884.144407077954	0
1	379	887.337605029767	0
1	380	888.040029308169	0
1	382	888.487505027603	0
1	389	896.954158184493	0
1	397	907.588439234243	0
1	398	907.591612942326	0
1	401	909.614822051967	0
1	408	920.377917646957	0
1	410	920.771602651114	0
1	413	937.872697852838	0
1	431	964.27347470108	0
1	432	965.407261767369	0
1	440	981.828805080065	0
1	441	982.744221959834	0
1	448	991.993690733228	0
1	449	993.424402170903	0
1	464	1016.249624094874	0
1	469	1019.534525669565	0
1	482	1077.928705248913	0
1	484	1080.302015026252	1
1	487	1090.391667219728	1
1	488	1092.944046719336	0
1	497	1107.584578418003	0
1	498	1110.986093516809	0
1	506	1158.933809594803	0
1	513	1171.165223531166	0
1	530	1188.996723057024	0
1	531	1201.525338444088	0
1	550	1278.988197943606	0
1	551	1282.346211741037	0
1	572	1331.699076905576	0
1	573	1335.515213256347	0
1	584	1354.3265869964	0
1	589	1364.914423783132	0
1	608	1410.690821772367	0
1	609	1412.851718139235	0
1	614	1442.401810080516	0
1	617	1449.993747805408	0
1	620	1458.263650676793	0
1	622	1458.853799594753	1
1	625	1467.012259767551	1
1	626	1467.773989771715	0
1	629	1474.67750170795	0
1	630	1474.739887509976	0
1	632	1478.591938273987	0
1	637	1484.035688875754	0
1	641	1499.350124495382	0
1	644	1506.116702557156	0
1	659	1540.927398831871	0
1	660	1541.761290744725	0
1	662	1543.83572861612	0
1	663	1547.664057304373	0
1	668	1571.160236717777	0
1	669	1571.644465844358	0
1	692	1627.011532211296	0
1	697	1633.04497466229	0
1	701	1641.200728983196	0
1	705	1649.139788179428	1
1	706	1651.875159993464	1
1	708	1651.886764969815	1
1	711	1667.061641343547	1
1	714	1670.807686226427	0
1	725	1677.97722850772	0
1	726	1678.824412121072	0
1	731	1691.221218932796	0
1	732	1692.281731318154	0
1	734	1695.469903337416	0
1	739	1706.442809829662	0
1	743	1709.973952942435	0
1	748	1714.738063551153	0
1	755	1734.173751778239	0
1	758	1741.495578912281	0
1	760	1741.631715878164	0
1	761	1746.959186678942	0
1	770	1795.251777029999	0
1	772	1796.186514870931	1
1	778	1810.233699922377	2
1	783	1815.883676901066	2
1	785	1821.747407345427	2
1	786	1824.79673751748	2
1	789	1838.871254697905	1
1	792	1845.271241576123	0
1	798	1852.560548192826	0
1	800	1854.576513861016	1
1	801	1854.639249531969	1
1	802	1859.533942609389	0
1	809	1868.175832967458	0
1	811	1869.101112407136	1
1	812	1869.132877756773	1
1	813	1870.310772228736	0
1	815	1883.079443135498	0
1	818	1883.99314269026	0
1	827	1906.172223784969	0
1	828	1907.823453432837	0
1	836	1929.509174591028	0
1	839	1948.022958819942	0
1	842	1967.343964080476	0
1	845	1971.575946253077	0
1	848	1979.682068380707	0
1	849	1979.684610231064	0
1	851	1982.357432335051	0
1	854	1985.389930989809	0
1	863	2003.786686497585	0
1	864	2005.847647549667	0
1	866	2006.5504223079	0
1	867	2010.5093372064	0
1	881	2040.249635521158	0
1	882	2044.27525293905	0
1	884	2053.063007369747	0
1	893	2071.769030126031	0
1	898	2076.247451695774	0
1	899	2076.429819558214	0
1	902	2080.649378436169	0
1	904	2086.329528345313	1
1	909	2094.561798595889	1
1	912	2107.2051223337	0
1	923	2116.760152658708	0
1	924	2120.988548727791	0
1	926	2130.649701280081	0
1	927	2131.353237573135	0
1	929	2149.349687489204	0
1	934	2159.661906410409	0
1	941	2171.319197265902	0
1	946	2178.639650862395	0
1	950	2183.040962897326	0
1	952	2183.478361293144	1
1	953	2193.592626484204	1
1	954	2193.758086659364	0
1	995	2263.858396856056	0
1	996	2265.440888298493	0
1	1013	2294.457992447564	0
1	1014	2295.720704061408	0
1	1016	2319.143568197383	0
1	1017	2319.637701146139	0
1	1037	2364.097716176362	0
1	1041	2369.034416376807	1
1	1042	2372.94728058749	1
1	1043	2376.708774024465	0
1	1046	2379.332298766566	0
1	1050	2382.99845866801	1
1	1053	2388.380395964038	1
1	1054	2401.050984842451	0
1	1060	2420.064793868789	0
1	1064	2435.541766541786	1
1	1065	2441.304417685114	1
1	1066	2442.261931644427	0
1	1073	2461.309526535168	0
1	1074	2464.501314239586	0
1	1076	2468.83020005602	0
1	1077	2470.408146998505	0
1	1079	2471.034788360199	0
1	1080	2480.567112779439	0
2	132	352.684868679955	3.185456719074
2	143	385.249269280727	3.338760995383
2	144	385.264076806447	3.141915035317
2	149	393.887129944835	8.428530906547
2	161	414.859653637601	12.926655039618
2	172	449.451473794797	45.15836100462
2	177	462.425676340133	24.521811879326
2	178	462.426174923433	22.658724380054
2	187	469.24871499244	2.143562284386
2	220	530.145281820548	22.36692934856
2	221	535.488754614125	23.51791126011
2	222	538.74803378901	15.106630096153
2	225	561.765887438167	38.001287774983
2	228	568.631766246896	42.106623254282
2	233	579.82138009729	23.724195217105
2	234	588.202591298547	23.746258098557
2	251	628.182021570573	0.403736631259
2	260	643.411264508302	5.188725231737
2	275	664.526777491869	2.095170487374
2	276	667.541353130853	5.104429789138
2	279	671.53886082484	2.037511738949
2	298	715.959844366505	3.918644688557
2	311	751.632502027713	10.371570354089
2	332	802.526277162198	2.975034395773
2	343	828.764218354204	5.903934022333
2	376	884.144407077954	6.600596207309
2	380	888.040029308169	0.702424278402
2	389	896.954158184493	8.46665315689
2	398	907.591612942326	0.003173708083
2	408	920.377917646957	10.76309559499
2	413	937.872697852838	17.101095201724
2	432	965.407261767369	1.133787066289
2	441	982.744221959834	0.915416879769
2	449	993.424402170903	1.430711437675
2	469	1019.534525669565	3.284901574691
2	487	1090.391667219728	12.462961970815
2	488	1092.944046719336	12.642031693084
2	498	1110.986093516809	3.401515098806
2	513	1171.165223531166	12.231413936363
2	531	1201.525338444088	12.528615387064
2	551	1282.346211741037	3.358013797431
2	573	1335.515213256347	3.816136350771
2	589	1364.914423783132	10.587836786732
2	609	1412.851718139235	2.160896366868
2	617	1449.993747805408	7.591937724892
2	625	1467.012259767551	8.748609090758
2	626	1467.773989771715	8.920190176962
2	630	1474.739887509976	0.062385802026
2	637	1484.035688875754	5.443750601767
2	644	1506.116702557156	6.766578061774
2	660	1541.761290744725	0.833891912854
2	663	1547.664057304373	3.828328688253
2	669	1571.644465844358	0.484229126581
2	697	1633.04497466229	6.033442450994
2	706	1651.875159993464	10.674431010268
2	711	1667.061641343547	17.921853164119
2	714	1670.807686226427	18.920921256612
2	726	1678.824412121072	0.847183613352
2	732	1692.281731318154	1.060512385358
2	739	1706.442809829662	10.972906492246
2	748	1714.738063551153	4.764110608718
2	758	1741.495578912281	7.321827134042
2	761	1746.959186678942	5.327470800778
2	783	1815.883676901066	20.631899871067
2	786	1824.79673751748	28.610222646549
2	789	1838.871254697905	28.637554775528
2	792	1845.271241576123	23.523834230696
2	801	1854.639249531969	2.078701339143
2	802	1859.533942609389	4.957428748373
2	812	1869.132877756773	0.957044789315
2	813	1870.310772228736	1.2096598216
2	818	1883.99314269026	0.913699554762
2	828	1907.823453432837	1.651229647868
2	839	1948.022958819942	18.513784228914
2	845	1971.575946253077	4.231982172601
2	849	1979.684610231064	0.002541850357
2	854	1985.389930989809	3.032498654758
2	864	2005.847647549667	2.060961052082
2	867	2010.5093372064	3.9589148985
2	882	2044.27525293905	4.025617417892
2	893	2071.769030126031	18.706022756284
2	899	2076.429819558214	0.18236786244
2	909	2094.561798595889	13.91242015972
2	912	2107.2051223337	20.875593988387
2	924	2120.988548727791	4.228396069083
2	927	2131.353237573135	0.703536293054
2	934	2159.661906410409	10.312218921205
2	946	2178.639650862395	7.320453596493
2	953	2193.592626484204	10.551663586878
2	954	2193.758086659364	10.27972536622
2	996	2265.440888298493	1.582491442437
2	1014	2295.720704061408	1.262711613844
2	1017	2319.637701146139	0.494132948756
2	1042	2372.94728058749	8.849564411128
2	1043	2376.708774024465	7.674357647658
2	1053	2388.380395964038	9.048097197472
2	1054	2401.050984842451	18.052526174441
2	1065	2441.304417685114	21.239623816325
2	1066	2442.261931644427	6.720165102641
2	1074	2464.501314239586	3.191787704418
2	1077	2470.408146998505	1.577946942485
2	1080	2480.567112779439	9.53232441924
3	134	354.172507827807	1
3	137	373.165573927013	1
3	148	393.279838510632	1
3	156	408.207277351423	1
3	158	411.99829745011	2
3	160	412.37183081957	3
3	163	436.073400872944	4
3	165	437.314233815506	5
3	167	437.327952946813	6
3	174	451.242256151972	7
3	176	459.810452974783	8
3	180	462.544540123058	9
3	186	468.979055047066	8
3	189	471.920162134502	9
3	192	475.095408618298	9
3	203	494.588354537745	1
3	206	497.713550616588	1
3	219	527.626775085374	1
3	230	571.143215401286	2
3	232	579.391432256081	3
3	239	605.943574795199	1
3	241	607.913223543641	2
3	244	609.957947543076	2
3	248	624.665666816139	1
3	254	630.706851864441	1
3	257	637.487093734645	1
3	262	643.417267897842	2
3	266	653.393714807935	1
3	269	656.310268947339	1
3	281	674.6047529137	1
3	284	695.335114389194	1
3	287	701.516242444663	1
3	290	704.925125838561	1
3	293	711.815483747498	1
3	297	715.664169776615	2
3	302	727.040126940911	1
3	305	735.618888755847	1
3	310	746.139589939481	1
3	314	762.644089716245	1
3	317	765.774707186922	1
3	320	768.538631314541	1
3	322	769.235612506848	2
3	326	787.248359323836	1
3	331	802.008149240264	1
3	335	815.757023724541	1
3	338	822.315232027055	1
3	342	828.136835226231	2
3	346	832.129773314188	2
3	349	833.062464632352	2
3	353	840.209054935251	1
3	356	845.043579502083	1
3	359	848.103789288935	1
3	362	853.51756743213	1
3	365	857.235620783026	1
3	368	871.716141047027	1
3	373	881.573981200952	1
3	375	883.796395950465	2
3	384	891.948409974863	2
3	386	892.451265341315	3
3	388	896.287023108023	4
3	395	907.496880138223	1
3	403	912.519557305623	1
3	405	912.719751269411	2
3	407	915.703469079402	3
3	412	931.627609079209	4
3	416	940.35611761368	4
3	422	952.926673196333	1
3	424	954.689615315032	2
3	427	958.18994317615	2
3	434	967.306304503991	1
3	437	971.293520383222	1
3	443	988.770386098451	1
3	446	991.89196686214	1
3	451	993.592636988663	2
3	453	995.06088645478	3
3	458	1008.314780315635	1
3	461	1012.966214610902	1
3	466	1018.219575777321	1
3	468	1018.378246406112	2
3	473	1033.460060157527	1
3	476	1037.687100701228	1
3	479	1053.982005230281	1
3	486	1087.119359711866	1
3	491	1102.540491660609	1
3	494	1104.720238786165	1
3	500	1113.692156924454	1
3	503	1148.073931961739	1
3	508	1158.994943503307	1
3	510	1159.869971217089	2
3	512	1170.270592856227	3
3	516	1172.886145916887	3
3	521	1178.431073673036	1
3	523	1180.180260533885	2
3	527	1187.386849011417	1
3	533	1213.938108252133	1
3	536	1220.894768537029	1
3	539	1246.89843674697	1
3	541	1247.276325723585	2
3	545	1266.056222790817	1
3	548	1278.370214318002	1
3	554	1284.448987743469	1
3	557	1294.136166031973	1
3	560	1301.96258254879	1
3	563	1317.004740683419	1
3	566	1321.089472312076	1
3	569	1327.240403897141	1
3	575	1339.31192988468	1
3	578	1344.089152158986	1
3	581	1354.139097917223	1
3	586	1357.590687385923	1
3	588	1362.401640317386	2
3	593	1370.548662839093	1
3	596	1393.477834516225	1
3	599	1394.357009853883	1
3	602	1399.467597341814	1
3	605	1409.444819982285	1
3	611	1413.916469106427	1
3	616	1442.842899766702	1
3	624	1460.245386861678	1
3	634	1482.431277285998	1
3	636	1482.922469037112	2
3	643	1504.007678257348	1
3	647	1516.603279450633	1
3	650	1520.830688733209	1
3	653	1521.897440116271	1
3	656	1534.041056993256	1
3	665	1567.933072131845	1
3	671	1575.426811134132	1
3	674	1577.614321941095	1
3	677	1588.382349111459	1
3	680	1604.98445020996	1
3	683	1608.10816906207	1
3	686	1611.611585584382	1
3	689	1620.970579796187	1
3	694	1629.016241169596	1
3	696	1629.509796788956	2
3	703	1645.107593448206	1
3	710	1656.998456245854	2
3	713	1667.385312246145	3
3	716	1670.941665386543	4
3	722	1677.340756018396	1
3	728	1679.151605878875	1
3	736	1698.499432454028	1
3	738	1702.537875751213	2
3	745	1710.023199632792	1
3	747	1711.831678986269	2
3	751	1715.794270075167	2
3	757	1740.402810295447	1
3	764	1754.371851842985	1
3	767	1757.712952114246	1
3	774	1803.563631578393	1
3	776	1804.702121163114	2
3	780	1813.945618333506	3
3	782	1815.189939142241	4
3	788	1830.000877789753	5
3	791	1844.087242559274	6
3	806	1865.352465476735	1
3	817	1883.609421275364	1
3	820	1885.977274496929	2
3	822	1886.339112843074	3
3	830	1925.322903074237	1
3	832	1926.617656675168	2
3	838	1946.452518246029	1
3	844	1968.617331088617	1
3	853	1983.774184273965	1
3	857	1991.012150132266	1
3	860	1995.96333466045	1
3	869	2021.788839862228	1
3	872	2027.965610252793	1
3	875	2036.670246191136	1
3	878	2038.612038391061	1
3	886	2053.451391923639	1
3	888	2059.720372977221	2
3	890	2065.213904978399	3
3	892	2070.960011779213	4
3	906	2088.416297189241	1
3	908	2094.55514914724	2
3	911	2099.423059657969	3
3	915	2109.526301819064	3
3	918	2113.901216392289	3
3	931	2152.7373224416	1
3	933	2158.324858173646	2
3	938	2170.032935115697	1
3	943	2175.059280819876	1
3	945	2175.89386075536	2
3	956	2194.513301538501	1
3	959	2197.181186761374	1
3	962	2201.862421686758	1
3	965	2205.989717082358	1
3	968	2210.635198036061	1
3	971	2215.605995918517	1
3	974	2220.983562150837	1
3	977	2237.146804838887	1
3	980	2242.672738216294	1
3	982	2243.211192938679	2
3	986	2254.082127145278	1
3	988	2255.276179260871	2
3	990	2257.380623580054	3
3	998	2265.712071714624	1
3	1001	2278.530645851194	1
3	1003	2279.373335041389	2
3	1007	2282.299088262717	1
3	1010	2288.557943251978	1
3	1019	2321.438632138943	1
3	1022	2332.743083346899	1
3	1025	2334.166339972331	1
3	1027	2334.24183420918	2
3	1031	2350.681956625492	1
3	1034	2362.032617962155	1
3	1039	2366.417596998391	1
3	1048	2382.613350806866	1
3	1052	2383.497710697982	2
3	1058	2419.292970577924	1
3	1062	2432.429685492346	2
3	1070	2452.103637946343	1
4	134	354.172507827807	0
4	135	356.386901089501	0
4	137	373.165573927013	0
4	138	373.459823752198	0
4	148	393.279838510632	0
4	150	394.592819089817	0
4	156	408.207277351423	0
4	158	411.99829745011	1
4	160	412.37183081957	2
4	163	436.073400872944	3
4	165	437.314233815506	4
4	167	437.327952946813	5
4	174	451.242256151972	6
4	176	459.810452974783	7
4	180	462.544540123058	8
4	181	463.453733790584	8
4	182	464.28571571258	7
4	186	468.979055047066	7
4	189	471.920162134502	8
4	190	474.36614729549	8
4	192	475.095408618298	8
4	193	476.500235304648	8
4	194	476.997251006286	7
4	195	482.281542220909	6
4	196	483.590524231581	5
4	197	485.726846025528	4
4	198	485.896750508437	3
4	199	486.934903019675	2
4	200	487.662274458941	1
4	201	488.178260075511	0
4	203	494.588354537745	0
4	204	495.376548703931	0
4	206	497.713550616588	0
4	207	498.97913354452	0
4	219	527.626775085374	0
4	230	571.143215401286	1
4	232	579.391432256081	2
4	235	590.076885814957	2
4	236	593.205227271852	1
4	237	593.678670261926	0
4	239	605.943574795199	0
4	241	607.913223543641	1
4	242	609.858555273282	1
4	244	609.957947543076	1
4	245	612.745835500734	1
4	246	617.464031254671	0
4	248	624.665666816139	0
4	252	628.735003891995	0
4	254	630.706851864441	0
4	255	631.226424579755	0
4	257	637.487093734645	0
4	262	643.417267897842	1
4	263	644.821226418332	1
4	264	645.218333720134	0
4	266	653.393714807935	0
4	267	654.484293707685	0
4	269	656.310268947339	0
4	270	656.776121641114	0
4	281	674.6047529137	0
4	282	674.880341109378	0
4	284	695.335114389194	0
4	285	695.468643426217	0
4	287	701.516242444663	0
4	288	702.048455238055	0
4	290	704.925125838561	0
4	291	707.00970868593	0
4	293	711.815483747498	0
4	297	715.664169776615	1
4	299	716.235121793502	1
4	300	716.965329867861	0
4	302	727.040126940911	0
4	303	727.634615740543	0
4	305	735.618888755847	0
4	306	737.018501623959	0
4	310	746.139589939481	0
4	312	752.557171110581	0
4	314	762.644089716245	0
4	315	762.910726472085	0
4	317	765.774707186922	0
4	318	766.953813079694	0
4	320	768.538631314541	0
4	322	769.235612506848	1
4	323	769.308602978368	1
4	324	769.67630498998	0
4	326	787.248359323836	0
4	327	789.695683667413	0
4	331	802.008149240264	0
4	333	804.939446821254	0
4	335	815.757023724541	0
4	336	816.924789294555	0
4	338	822.315232027055	0
4	342	828.136835226231	1
4	344	830.164858454112	1
4	346	832.129773314188	1
4	347	832.290064167233	1
4	349	833.062464632352	1
4	350	835.128687899656	1
4	351	835.890742968662	0
4	353	840.209054935251	0
4	354	840.676037496149	0
4	356	845.043579502083	0
4	357	847.468769883136	0
4	359	848.103789288935	0
4	360	849.534874398641	0
4	362	853.51756743213	0
4	363	856.34930413072	0
4	365	857.235620783026	0
4	366	858.822212460727	0
4	368	871.716141047027	0
4	369	871.844966411832	0
4	373	881.573981200952	0
4	375	883.796395950465	1
4	377	884.878043475014	1
4	384	891.948409974863	1
4	386	892.451265341315	2
4	388	896.287023108023	3
4	390	898.332785281085	3
4	391	899.125135108669	2
4	392	900.236594406997	1
4	393	902.728935565816	0
4	395	907.496880138223	0
4	399	908.931624328058	0
4	403	912.519557305623	0
4	405	912.719751269411	1
4	407	915.703469079402	2
4	412	931.627609079209	3
4	414	940.01724742264	3
4	416	940.35611761368	3
4	417	943.446434548296	3
4	418	944.428571018538	2
4	419	944.792803124977	1
4	420	945.802914734977	0
4	422	952.926673196333	0
4	424	954.689615315032	1
4	425	956.277155938337	1
4	427	958.18994317615	1
4	428	958.92032407149	1
4	429	961.107157535468	0
4	434	967.306304503991	0
4	435	970.243622239709	0
4	437	971.293520383222	0
4	438	972.119228629208	0
4	443	988.770386098451	0
4	444	991.100292485045	0
4	446	991.89196686214	0
4	451	993.592636988663	1
4	453	995.06088645478	2
4	454	995.999626074006	2
4	455	999.27890316092	1
4	456	999.322733515923	0
4	458	1008.314780315635	0
4	459	1010.115054278946	0
4	461	1012.966214610902	0
4	462	1013.462079075717	0
4	466	1018.219575777321	0
4	468	1018.378246406112	1
4	470	1020.443302766917	1
4	471	1022.314332823665	0
4	473	1033.460060157527	0
4	474	1034.00780179303	0
4	476	1037.687100701228	0
4	477	1038.401026507938	0
4	479	1053.982005230281	0
4	480	1056.554906403774	0
4	486	1087.119359711866	0
4	489	1094.308726796658	0
4	491	1102.540491660609	0
4	492	1102.766141198397	0
4	494	1104.720238786165	0
4	495	1106.700520395705	0
4	500	1113.692156924454	0
4	501	1114.461640118515	0
4	503	1148.073931961739	0
4	504	1148.567591428023	0
4	508	1158.994943503307	0
4	510	1159.869971217089	1
4	512	1170.270592856227	2
4	514	1171.559634191799	2
4	516	1172.886145916887	2
4	517	1172.922535965239	2
4	518	1174.261608810736	1
4	519	1175.309604001693	0
4	521	1178.431073673036	0
4	523	1180.180260533885	1
4	524	1181.691940143156	1
4	525	1181.909526764992	0
4	527	1187.386849011417	0
4	528	1187.982517712287	0
4	533	1213.938108252133	0
4	534	1215.455146033273	0
4	536	1220.894768537029	0
4	537	1223.343902466419	0
4	539	1246.89843674697	0
4	541	1247.276325723585	1
4	542	1247.717980610244	1
4	543	1250.113154413301	0
4	545	1266.056222790817	0
4	546	1266.592395402459	0
4	548	1278.370214318002	0
4	552	1283.371774311022	0
4	554	1284.448987743469	0
4	555	1288.89199007527	0
4	557	1294.136166031973	0
4	558	1294.555960100881	0
4	560	1301.96258254879	0
4	561	1303.702698766126	0
4	563	1317.004740683419	0
4	564	1319.571583233986	0
4	566	1321.089472312076	0
4	567	1323.041229029145	0
4	569	1327.240403897141	0
4	570	1328.185947531612	0
4	575	1339.31192988468	0
4	576	1340.058402603067	0
4	578	1344.089152158986	0
4	579	1346.104629463606	0
4	581	1354.139097917223	0
4	582	1354.265437340148	0
4	586	1357.590687385923	0
4	588	1362.401640317386	1
4	590	1365.840499811772	1
4	591	1366.580653377243	0
4	593	1370.548662839093	0
4	594	1373.542259550213	0
4	596	1393.477834516225	0
4	597	1393.643999880269	0
4	599	1394.357009853883	0
4	600	1396.173829743142	0
4	602	1399.467597341814	0
4	603	1404.136692553151	0
4	605	1409.444819982285	0
4	606	1409.720659291267	0
4	611	1413.916469106427	0
4	612	1415.808896551958	0
4	616	1442.842899766702	0
4	618	1450.290046444896	0
4	624	1460.245386861678	0
4	627	1468.478690923574	0
4	634	1482.431277285998	0
4	636	1482.922469037112	1
4	638	1486.880419408096	1
4	639	1491.308519039861	0
4	643	1504.007678257348	0
4	645	1506.798163152643	0
4	647	1516.603279450633	0
4	648	1517.007269714097	0
4	650	1520.830688733209	0
4	651	1521.550248891816	0
4	653	1521.897440116271	0
4	654	1523.702855159823	0
4	656	1534.041056993256	0
4	657	1534.104177875379	0
4	665	1567.933072131845	0
4	666	1569.843075452878	0
4	671	1575.426811134132	0
4	672	1576.935162543078	0
4	674	1577.614321941095	0
4	675	1578.295484386701	0
4	677	1588.382349111459	0
4	678	1590.828175565604	0
4	680	1604.98445020996	0
4	681	1605.029816454177	0
4	683	1608.10816906207	0
4	684	1611.522272206773	0
4	686	1611.611585584382	0
4	687	1612.445508820961	0
4	689	1620.970579796187	0
4	690	1621.295508658358	0
4	694	1629.016241169596	0
4	696	1629.509796788956	1
4	698	1633.240782624853	1
4	699	1636.161744081054	0
4	703	1645.107593448206	0
4	710	1656.998456245854	1
4	713	1667.385312246145	2
4	716	1670.941665386543	3
4	717	1672.780369796166	3
4	718	1673.072075591668	2
4	719	1673.78949565939	1
4	720	1674.490955932137	0
4	722	1677.340756018396	0
4	723	1677.715205607939	0
4	728	1679.151605878875	0
4	729	1679.874182870181	0
4	736	1698.499432454028	0
4	738	1702.537875751213	1
4	740	1708.658664977096	1
4	741	1709.926871840359	0
4	745	1710.023199632792	0
4	747	1711.831678986269	1
4	749	1715.382931166754	1
4	751	1715.794270075167	1
4	752	1716.456439768164	1
4	753	1718.808434469229	0
4	757	1740.402810295447	0
4	762	1747.952641721274	0
4	764	1754.371851842985	0
4	765	1754.941136677445	0
4	767	1757.712952114246	0
4	768	1758.823947858607	0
4	774	1803.563631578393	0
4	776	1804.702121163114	1
4	780	1813.945618333506	2
4	782	1815.189939142241	3
4	788	1830.000877789753	4
4	791	1844.087242559274	5
4	793	1846.45150711006	5
4	794	1850.481180001318	4
4	795	1851.693419555966	3
4	796	1852.118110109414	2
4	803	1859.884307510779	1
4	804	1860.98224125944	0
4	806	1865.352465476735	0
4	807	1865.766277288031	0
4	817	1883.609421275364	0
4	820	1885.977274496929	1
4	822	1886.339112843074	2
4	823	1886.532619734324	2
4	824	1890.677016910461	1
4	825	1891.220338707148	0
4	830	1925.322903074237	0
4	832	1926.617656675168	1
4	833	1926.875864715189	1
4	834	1928.563571981849	0
4	838	1946.452518246029	0
4	840	1948.389535205849	0
4	844	1968.617331088617	0
4	846	1975.434745288208	0
4	853	1983.774184273965	0
4	855	1987.119140529118	0
4	857	1991.012150132266	0
4	858	1991.120956843132	0
4	860	1995.96333466045	0
4	861	1997.131753723589	0
4	869	2021.788839862228	0
4	870	2024.07214460152	0
4	872	2027.965610252793	0
4	873	2028.746756592817	0
4	875	2036.670246191136	0
4	876	2036.72384705566	0
4	878	2038.612038391061	0
4	879	2039.461038578399	0
4	886	2053.451391923639	0
4	888	2059.720372977221	1
4	890	2065.213904978399	2
4	892	2070.960011779213	3
4	894	2072.836240242465	3
4	895	2074.595314726026	2
4	896	2075.461809370347	1
4	900	2076.60321349892	0
4	906	2088.416297189241	0
4	908	2094.55514914724	1
4	911	2099.423059657969	2
4	913	2108.964423662326	2
4	915	2109.526301819064	2
4	916	2111.687330412982	2
4	918	2113.901216392289	2
4	919	2113.953394172614	2
4	920	2114.161783857626	1
4	921	2114.234355111961	0
4	931	2152.7373224416	0
4	933	2158.324858173646	1
4	935	2160.777846451278	1
4	936	2160.894077367449	0
4	938	2170.032935115697	0
4	939	2170.06025377157	0
4	943	2175.059280819876	0
4	945	2175.89386075536	1
4	947	2180.032364878909	1
4	948	2182.482231143926	0
4	956	2194.513301538501	0
4	957	2196.382317776209	0
4	959	2197.181186761374	0
4	960	2200.628988279187	0
4	962	2201.862421686758	0
4	963	2202.107567554488	0
4	965	2205.989717082358	0
4	966	2206.515804022686	0
4	968	2210.635198036061	0
4	969	2212.066045118132	0
4	971	2215.605995918517	0
4	972	2215.991539498966	0
4	974	2220.983562150837	0
4	975	2221.228843034267	0
4	977	2237.146804838887	0
4	978	2240.303235466715	0
4	980	2242.672738216294	0
4	982	2243.211192938679	1
4	983	2243.601836873052	1
4	984	2244.398715731281	0
4	986	2254.082127145278	0
4	988	2255.276179260871	1
4	990	2257.380623580054	2
4	991	2259.970038931598	2
4	992	2260.176708811375	1
4	993	2262.958941353229	0
4	998	2265.712071714624	0
4	999	2268.960265023653	0
4	1001	2278.530645851194	0
4	1003	2279.373335041389	1
4	1004	2280.296714146537	1
4	1005	2280.665726599683	0
4	1007	2282.299088262717	0
4	1008	2283.231162489371	0
4	1010	2288.557943251978	0
4	1011	2289.985304567854	0
4	1019	2321.438632138943	0
4	1020	2325.167918519599	0
4	1022	2332.743083346899	0
4	1023	2333.620072585298	0
4	1025	2334.166339972331	0
4	1027	2334.24183420918	1
4	1028	2336.14467199891	1
4	1029	2338.243350328376	0
4	1031	2350.681956625492	0
4	1032	2350.685110694526	0
4	1034	2362.032617962155	0
4	1035	2362.949966008807	0
4	1039	2366.417596998391	0
4	1044	2378.385142184393	0
4	1048	2382.613350806866	0
4	1052	2383.497710697982	1
4	1055	2401.10693949294	1
4	1056	2402.40371857359	0
4	1058	2419.292970577924	0
4	1062	2432.429685492346	1
4	1067	2443.111607335305	1
4	1068	2444.089631107206	0
4	1070	2452.103637946343	0
4	1071	2452.73833401858	0
5	134	354.172507827807	0
5	137	373.165573927013	0
5	149	393.887129944835	0.607291434203
5	178	462.426174923433	54.21889757201
5	181	463.453733790584	51.455436340474
5	182	464.28571571258	51.91388489301
5	187	469.24871499244	33.175314119496
5	190	474.36614729549	37.051913479984
5	193	476.500235304648	39.172282357835
5	194	476.997251006286	25.754994854314
5	195	482.281542220909	22.471089246126
5	196	483.590524231581	21.045984108523
5	197	485.726846025528	18.621693317474
5	198	485.896750508437	16.917695461371
5	199	486.934903019675	15.014740885173
5	200	487.662274458941	12.566865840643
5	203	494.588354537745	0
5	206	497.713550616588	0
5	234	588.202591298547	60.575816213173
5	235	590.076885814957	18.933670413671
5	236	593.205227271852	13.813795015771
5	239	605.943574795199	0
5	242	609.858555273282	1.945331729641
5	245	612.745835500734	2.787887957658
5	248	624.665666816139	0
5	251	628.182021570573	0.403736631259
5	254	630.706851864441	0
5	257	637.487093734645	0
5	260	643.411264508302	5.188725231737
5	263	644.821226418332	1.40395852049
5	266	653.393714807935	0
5	269	656.310268947339	0
5	281	674.6047529137	0
5	284	695.335114389194	0
5	287	701.516242444663	0
5	290	704.925125838561	0
5	293	711.815483747498	0
5	298	715.959844366505	3.918644688557
5	299	716.235121793502	0.570952016887
5	302	727.040126940911	0
5	305	735.618888755847	0
5	311	751.632502027713	5.492912088232
5	314	762.644089716245	0
5	317	765.774707186922	0
5	320	768.538631314541	0
5	323	769.308602978368	0.07299047152
5	326	787.248359323836	0
5	332	802.526277162198	0.518127921934
5	335	815.757023724541	0
5	338	822.315232027055	0
5	343	828.764218354204	5.903934022333
5	344	830.164858454112	2.028023227881
5	347	832.290064167233	0.160290853045
5	350	835.128687899656	2.066223267304
5	353	840.209054935251	0
5	356	845.043579502083	0
5	359	848.103789288935	0
5	362	853.51756743213	0
5	365	857.235620783026	0
5	368	871.716141047027	0
5	376	884.144407077954	2.570425877002
5	377	884.878043475014	1.081647524549
5	380	888.040029308169	0.702424278402
5	389	896.954158184493	8.46665315689
5	390	898.332785281085	6.384375306222
5	391	899.125135108669	6.673869767354
5	392	900.236594406997	3.949571298974
5	395	907.496880138223	0
5	398	907.591612942326	0.003173708083
5	408	920.377917646957	7.858360341334
5	413	937.872697852838	25.152946583427
5	414	940.01724742264	24.313778343238
5	417	943.446434548296	22.674831897182
5	418	944.428571018538	12.800961939329
5	419	944.792803124977	4.436685511297
5	422	952.926673196333	0
5	425	956.277155938337	1.587540623305
5	428	958.92032407149	0.73038089534
5	434	967.306304503991	0
5	437	971.293520383222	0
5	443	988.770386098451	0
5	446	991.89196686214	0
5	449	993.424402170903	1.430711437675
5	454	995.999626074006	2.406989085343
5	455	999.27890316092	4.21801670614
5	458	1008.314780315635	0
5	461	1012.966214610902	0
5	469	1019.534525669565	1.314949892244
5	470	1020.443302766917	2.065056360805
5	473	1033.460060157527	0
5	476	1037.687100701228	0
5	479	1053.982005230281	0
5	488	1092.944046719336	5.82468700747
5	491	1102.540491660609	0
5	494	1104.720238786165	0
5	500	1113.692156924454	0
5	503	1148.073931961739	0
5	513	1171.165223531166	12.170280027859
5	514	1171.559634191799	11.68966297471
5	517	1172.922535965239	2.651943109012
5	518	1174.261608810736	1.375462893849
5	521	1178.431073673036	0
5	524	1181.691940143156	1.511679609271
5	527	1187.386849011417	0
5	533	1213.938108252133	0
5	536	1220.894768537029	0
5	539	1246.89843674697	0
5	542	1247.717980610244	0.441654886659
5	545	1266.056222790817	0
5	548	1278.370214318002	0
5	551	1282.346211741037	3.358013797431
5	554	1284.448987743469	0
5	557	1294.136166031973	0
5	560	1301.96258254879	0
5	563	1317.004740683419	0
5	566	1321.089472312076	0
5	569	1327.240403897141	0
5	575	1339.31192988468	0
5	578	1344.089152158986	0
5	581	1354.139097917223	0
5	589	1364.914423783132	7.323736397209
5	590	1365.840499811772	3.438859494386
5	593	1370.548662839093	0
5	596	1393.477834516225	0
5	599	1394.357009853883	0
5	602	1399.467597341814	0
5	605	1409.444819982285	0
5	611	1413.916469106427	0
5	617	1449.993747805408	7.150848038706
5	626	1467.773989771715	7.528602910037
5	637	1484.035688875754	1.604411589756
5	638	1486.880419408096	3.957950370984
5	644	1506.116702557156	2.109024299808
5	647	1516.603279450633	0
5	650	1520.830688733209	0
5	653	1521.897440116271	0
5	656	1534.041056993256	0
5	665	1567.933072131845	0
5	671	1575.426811134132	0
5	674	1577.614321941095	0
5	677	1588.382349111459	0
5	680	1604.98445020996	0
5	683	1608.10816906207	0
5	686	1611.611585584382	0
5	689	1620.970579796187	0
5	697	1633.04497466229	4.028733492694
5	698	1633.240782624853	3.730985835897
5	714	1670.807686226427	25.700092778221
5	717	1672.780369796166	15.781913550312
5	718	1673.072075591668	5.686763345523
5	719	1673.78949565939	2.847830272847
5	722	1677.340756018396	0
5	728	1679.151605878875	0
5	739	1706.442809829662	7.943377375634
5	740	1708.658664977096	6.120789225883
5	748	1714.738063551153	4.714863918361
5	749	1715.382931166754	3.551252180485
5	752	1716.456439768164	0.662169692997
5	758	1741.495578912281	1.092768616834
5	761	1746.959186678942	5.327470800778
5	764	1754.371851842985	0
5	767	1757.712952114246	0
5	792	1845.271241576123	41.70760999773
5	793	1846.45150711006	41.749385946946
5	794	1850.481180001318	36.535561667812
5	795	1851.693419555966	36.503480413725
5	796	1852.118110109414	22.117232319661
5	802	1859.533942609389	15.446700050115
5	803	1859.884307510779	7.323759317953
5	806	1865.352465476735	0
5	818	1883.99314269026	0.383721414896
5	823	1886.532619734324	0.555345237395
5	824	1890.677016910461	4.337904067387
5	830	1925.322903074237	0
5	833	1926.875864715189	0.258208040021
5	839	1948.022958819942	1.570440573913
5	845	1971.575946253077	2.95861516446
5	854	1985.389930989809	1.615746715844
5	857	1991.012150132266	0
5	860	1995.96333466045	0
5	869	2021.788839862228	0
5	872	2027.965610252793	0
5	875	2036.670246191136	0
5	878	2038.612038391061	0
5	893	2071.769030126031	18.317638202392
5	894	2072.836240242465	13.115867265244
5	895	2074.595314726026	9.381409747627
5	896	2075.461809370347	4.501797591134
5	899	2076.429819558214	0.18236786244
5	912	2107.2051223337	18.788825144459
5	913	2108.964423662326	14.409274515086
5	916	2111.687330412982	12.264270755013
5	919	2113.953394172614	4.42709235355
5	920	2114.161783857626	0.260567465337
5	934	2159.661906410409	6.924583968809
5	935	2160.777846451278	2.452988277632
5	938	2170.032935115697	0
5	946	2178.639650862395	3.580370042519
5	947	2180.032364878909	4.138504123549
5	956	2194.513301538501	0
5	959	2197.181186761374	0
5	962	2201.862421686758	0
5	965	2205.989717082358	0
5	968	2210.635198036061	0
5	971	2215.605995918517	0
5	974	2220.983562150837	0
5	977	2237.146804838887	0
5	980	2242.672738216294	0
5	983	2243.601836873052	0.390643934373
5	986	2254.082127145278	0
5	991	2259.970038931598	4.693859670727
5	992	2260.176708811375	2.796085231321
5	998	2265.712071714624	0
5	1001	2278.530645851194	0
5	1004	2280.296714146537	0.923379105148
5	1007	2282.299088262717	0
5	1010	2288.557943251978	0
5	1019	2321.438632138943	0
5	1022	2332.743083346899	0
5	1025	2334.166339972331	0
5	1028	2336.14467199891	1.90283778973
5	1031	2350.681956625492	0
5	1034	2362.032617962155	0
5	1043	2376.708774024465	10.291177026074
5	1054	2401.050984842451	18.437634035585
5	1055	2401.10693949294	17.609228794958
5	1058	2419.292970577924	0
5	1066	2442.261931644427	22.197137775638
5	1067	2443.111607335305	10.681921842959
5	1070	2452.103637946343	0
6	135	356.386901089501	26
6	138	373.459823752198	27
6	150	394.592819089817	28
6	181	463.453733790584	29
6	182	464.28571571258	30
6	190	474.36614729549	31
6	193	476.500235304648	32
6	194	476.997251006286	33
6	195	482.281542220909	34
6	196	483.590524231581	35
6	197	485.726846025528	36
6	198	485.896750508437	37
6	199	486.934903019675	38
6	200	487.662274458941	39
6	201	488.178260075511	40
6	204	495.376548703931	41
6	207	498.97913354452	42
6	235	590.076885814957	43
6	236	593.205227271852	44
6	237	593.678670261926	45
6	242	609.858555273282	46
6	245	612.745835500734	47
6	246	617.464031254671	48
6	252	628.735003891995	49
6	255	631.226424579755	50
6	263	644.821226418332	51
6	264	645.218333720134	52
6	267	654.484293707685	53
6	270	656.776121641114	54
6	282	674.880341109378	55
6	285	695.468643426217	56
6	288	702.048455238055	57
6	291	707.00970868593	58
6	299	716.235121793502	59
6	300	716.965329867861	60
6	303	727.634615740543	61
6	306	737.018501623959	62
6	312	752.557171110581	63
6	315	762.910726472085	64
6	318	766.953813079694	65
6	323	769.308602978368	66
6	324	769.67630498998	67
6	327	789.695683667413	68
6	333	804.939446821254	69
6	336	816.924789294555	70
6	344	830.164858454112	71
6	347	832.290064167233	72
6	350	835.128687899656	73
6	351	835.890742968662	74
6	354	840.676037496149	75
6	357	847.468769883136	76
6	360	849.534874398641	77
6	363	856.34930413072	78
6	366	858.822212460727	79
6	369	871.844966411832	80
6	377	884.878043475014	81
6	390	898.332785281085	82
6	391	899.125135108669	83
6	392	900.236594406997	84
6	393	902.728935565816	85
6	399	908.931624328058	86
6	414	940.01724742264	87
6	417	943.446434548296	88
6	418	944.428571018538	89
6	419	944.792803124977	90
6	420	945.802914734977	91
6	425	956.277155938337	92
6	428	958.92032407149	93
6	429	961.107157535468	94
6	435	970.243622239709	95
6	438	972.119228629208	96
6	444	991.100292485045	97
6	454	995.999626074006	98
6	455	999.27890316092	99
6	456	999.322733515923	100
6	459	1010.115054278946	101
6	462	1013.462079075717	102
6	470	1020.443302766917	103
6	471	1022.314332823665	104
6	474	1034.00780179303	105
6	477	1038.401026507938	106
6	480	1056.554906403774	107
6	489	1094.308726796658	108
6	492	1102.766141198397	109
6	495	1106.700520395705	110
6	501	1114.461640118515	111
6	504	1148.567591428023	112
6	514	1171.559634191799	113
6	517	1172.922535965239	114
6	518	1174.261608810736	115
6	519	1175.309604001693	116
6	524	1181.691940143156	117
6	525	1181.909526764992	118
6	528	1187.982517712287	119
6	534	1215.455146033273	120
6	537	1223.343902466419	121
6	542	1247.717980610244	122
6	543	1250.113154413301	123
6	546	1266.592395402459	124
6	552	1283.371774311022	125
6	555	1288.89199007527	126
6	558	1294.555960100881	127
6	561	1303.702698766126	128
6	564	1319.571583233986	129
6	567	1323.041229029145	130
6	570	1328.185947531612	131
6	576	1340.058402603067	132
6	579	1346.104629463606	133
6	582	1354.265437340148	134
6	590	1365.840499811772	135
6	591	1366.580653377243	136
6	594	1373.542259550213	137
6	597	1393.643999880269	138
6	600	1396.173829743142	139
6	603	1404.136692553151	140
6	606	1409.720659291267	141
6	612	1415.808896551958	142
6	618	1450.290046444896	143
6	627	1468.478690923574	144
6	638	1486.880419408096	145
6	639	1491.308519039861	146
6	645	1506.798163152643	147
6	648	1517.007269714097	148
6	651	1521.550248891816	149
6	654	1523.702855159823	150
6	657	1534.104177875379	151
6	666	1569.843075452878	152
6	672	1576.935162543078	153
6	675	1578.295484386701	154
6	678	1590.828175565604	155
6	681	1605.029816454177	156
6	684	1611.522272206773	157
6	687	1612.445508820961	158
6	690	1621.295508658358	159
6	698	1633.240782624853	160
6	699	1636.161744081054	161
6	717	1672.780369796166	162
6	718	1673.072075591668	163
6	719	1673.78949565939	164
6	720	1674.490955932137	165
6	723	1677.715205607939	166
6	729	1679.874182870181	167
6	740	1708.658664977096	168
6	741	1709.926871840359	169
6	749	1715.382931166754	170
6	752	1716.456439768164	171
6	753	1718.808434469229	172
6	762	1747.952641721274	173
6	765	1754.941136677445	174
6	768	1758.823947858607	175
6	793	1846.45150711006	176
6	794	1850.481180001318	177
6	795	1851.693419555966	178
6	796	1852.118110109414	179
6	803	1859.884307510779	180
6	804	1860.98224125944	181
6	807	1865.766277288031	182
6	823	1886.532619734324	183
6	824	1890.677016910461	184
6	825	1891.220338707148	185
6	833	1926.875864715189	186
6	834	1928.563571981849	187
6	840	1948.389535205849	188
6	846	1975.434745288208	189
6	855	1987.119140529118	190
6	858	1991.120956843132	191
6	861	1997.131753723589	192
6	870	2024.07214460152	193
6	873	2028.746756592817	194
6	876	2036.72384705566	195
6	879	2039.461038578399	196
6	894	2072.836240242465	197
6	895	2074.595314726026	198
6	896	2075.461809370347	199
6	900	2076.60321349892	200
6	913	2108.964423662326	201
6	916	2111.687330412982	202
6	919	2113.953394172614	203
6	920	2114.161783857626	204
6	921	2114.234355111961	205
6	935	2160.777846451278	206
6	936	2160.894077367449	207
6	939	2170.06025377157	208
6	947	2180.032364878909	209
6	948	2182.482231143926	210
6	957	2196.382317776209	211
6	960	2200.628988279187	212
6	963	2202.107567554488	213
6	966	2206.515804022686	214
6	969	2212.066045118132	215
6	972	2215.991539498966	216
6	975	2221.228843034267	217
6	978	2240.303235466715	218
6	983	2243.601836873052	219
6	984	2244.398715731281	220
6	991	2259.970038931598	221
6	992	2260.176708811375	222
6	993	2262.958941353229	223
6	999	2268.960265023653	224
6	1004	2280.296714146537	225
6	1005	2280.665726599683	226
6	1008	2283.231162489371	227
6	1011	2289.985304567854	228
6	1020	2325.167918519599	229
6	1023	2333.620072585298	230
6	1028	2336.14467199891	231
6	1029	2338.243350328376	232
6	1032	2350.685110694526	233
6	1035	2362.949966008807	234
6	1044	2378.385142184393	235
6	1055	2401.10693949294	236
6	1056	2402.40371857359	237
6	1067	2443.111607335305	238
6	1068	2444.089631107206	239
6	1071	2452.73833401858	240
7	135	356.386901089501	2.214393261694
7	138	373.459823752198	0.294249825185
7	150	394.592819089817	1.312980579185
7	181	463.453733790584	55.246456439161
7	182	464.28571571258	52.28741826247
7	190	474.36614729549	38.292746422546
7	193	476.500235304648	39.186001489142
7	194	476.997251006286	39.669298059473
7	195	482.281542220909	31.039286068937
7	196	483.590524231581	23.780071256798
7	197	485.726846025528	23.18230590247
7	198	485.896750508437	18.791597800383
7	199	486.934903019675	17.955847972609
7	200	487.662274458941	15.742112324439
7	201	488.178260075511	13.082851457213
7	204	495.376548703931	0.788194166186
7	207	498.97913354452	1.265582927932
7	235	590.076885814957	62.450110729583
7	236	593.205227271852	22.062011870566
7	237	593.678670261926	14.287238005845
7	242	609.858555273282	3.914980478083
7	245	612.745835500734	4.832611957093
7	246	617.464031254671	7.506083711595
7	252	628.735003891995	0.956718952681
7	255	631.226424579755	0.519572715314
7	263	644.821226418332	6.598687141767
7	264	645.218333720134	1.801065822292
7	267	654.484293707685	1.09057889975
7	270	656.776121641114	0.465852693775
7	282	674.880341109378	0.275588195678
7	285	695.468643426217	0.133529037023
7	288	702.048455238055	0.532212793392
7	291	707.00970868593	2.084582847369
7	299	716.235121793502	4.193922115554
7	300	716.965329867861	1.301160091246
7	303	727.634615740543	0.594488799632
7	306	737.018501623959	1.399612868112
7	312	752.557171110581	6.4175811711
7	315	762.910726472085	0.26663675584
7	318	766.953813079694	1.179105892772
7	323	769.308602978368	0.769971663827
7	324	769.67630498998	0.440692483132
7	327	789.695683667413	2.447324343577
7	333	804.939446821254	2.93129758099
7	336	816.924789294555	1.167765570014
7	344	830.164858454112	7.304574122241
7	347	832.290064167233	4.153228941002
7	350	835.128687899656	2.998914585468
7	351	835.890742968662	2.82827833631
7	354	840.676037496149	0.466982560898
7	357	847.468769883136	2.425190381053
7	360	849.534874398641	1.431085109706
7	363	856.34930413072	2.83173669859
7	366	858.822212460727	1.586591677701
7	369	871.844966411832	0.128825364805
7	377	884.878043475014	3.304062274062
7	390	898.332785281085	9.845280253482
7	391	899.125135108669	7.176725133806
7	392	900.236594406997	7.785329065682
7	393	902.728935565816	6.441912457793
7	399	908.931624328058	1.343185093815
7	414	940.01724742264	27.297496153229
7	417	943.446434548296	27.742965468894
7	418	944.428571018538	23.656968367424
7	419	944.792803124977	13.165194045768
7	420	945.802914734977	5.446797121297
7	425	956.277155938337	3.350482742004
7	428	958.92032407149	4.230708756458
7	429	961.107157535468	2.917214359318
7	435	970.243622239709	2.937317735718
7	438	972.119228629208	0.825708245986
7	444	991.100292485045	2.329906386594
7	454	995.999626074006	4.005935340778
7	455	999.27890316092	5.686266172257
7	456	999.322733515923	4.261847061143
7	459	1010.115054278946	1.800273963311
7	462	1013.462079075717	0.495864464815
7	470	1020.443302766917	2.223726989596
7	471	1022.314332823665	3.936086417553
7	474	1034.00780179303	0.547741635503
7	477	1038.401026507938	0.71392580671
7	480	1056.554906403774	2.572901173493
7	489	1094.308726796658	7.189367084792
7	492	1102.766141198397	0.225649537788
7	495	1106.700520395705	1.98028160954
7	501	1114.461640118515	0.769483194061
7	504	1148.567591428023	0.493659466284
7	514	1171.559634191799	12.564690688492
7	517	1172.922535965239	13.05256474815
7	518	1174.261608810736	3.991015954509
7	519	1175.309604001693	2.423458084806
7	524	1181.691940143156	3.26086647012
7	525	1181.909526764992	1.729266231107
7	528	1187.982517712287	0.59566870087
7	534	1215.455146033273	1.51703778114
7	537	1223.343902466419	2.44913392939
7	542	1247.717980610244	0.819543863274
7	543	1250.113154413301	2.836828689716
7	546	1266.592395402459	0.536172611642
7	552	1283.371774311022	4.383576367416
7	555	1288.89199007527	4.443002331801
7	558	1294.555960100881	0.419794068908
7	561	1303.702698766126	1.740116217336
7	564	1319.571583233986	2.566842550567
7	567	1323.041229029145	1.951756717069
7	570	1328.185947531612	0.945543634471
7	576	1340.058402603067	0.746472718387
7	579	1346.104629463606	2.01547730462
7	582	1354.265437340148	0.126339422925
7	590	1365.840499811772	8.249812425849
7	591	1366.580653377243	4.179013059857
7	594	1373.542259550213	2.99359671112
7	597	1393.643999880269	0.166165364044
7	600	1396.173829743142	1.816819889259
7	603	1404.136692553151	4.669095211337
7	606	1409.720659291267	0.275839308982
7	612	1415.808896551958	1.892427445531
7	618	1450.290046444896	7.447146678194
7	627	1468.478690923574	8.233304061896
7	638	1486.880419408096	4.449142122098
7	639	1491.308519039861	8.386050002749
7	645	1506.798163152643	2.790484895295
7	648	1517.007269714097	0.403990263464
7	651	1521.550248891816	0.719560158607
7	654	1523.702855159823	1.805415043552
7	657	1534.104177875379	0.063120882123
7	666	1569.843075452878	1.910003321033
7	672	1576.935162543078	1.508351408946
7	675	1578.295484386701	0.681162445606
7	678	1590.828175565604	2.445826454145
7	681	1605.029816454177	0.045366244217
7	684	1611.522272206773	3.414103144703
7	687	1612.445508820961	0.833923236579
7	690	1621.295508658358	0.324928862171
7	698	1633.240782624853	4.224541455257
7	699	1636.161744081054	6.651947292098
7	717	1672.780369796166	27.67277634796
7	718	1673.072075591668	16.073619345814
7	719	1673.78949565939	6.404183413245
7	720	1674.490955932137	3.549290545594
7	723	1677.715205607939	0.374449589543
7	729	1679.874182870181	0.722576991306
7	740	1708.658664977096	10.159232523068
7	741	1709.926871840359	7.388996089146
7	749	1715.382931166754	5.359731533962
7	752	1716.456439768164	4.624760781895
7	753	1718.808434469229	3.014164394062
7	762	1747.952641721274	6.32092584311
7	765	1754.941136677445	0.56928483446
7	768	1758.823947858607	1.110995744361
7	793	1846.45150711006	42.887875531667
7	794	1850.481180001318	45.779058838204
7	795	1851.693419555966	37.74780122246
7	796	1852.118110109414	36.928170967173
7	803	1859.884307510779	15.797064951505
7	804	1860.98224125944	8.421693066614
7	807	1865.766277288031	0.413811811296
7	823	1886.532619734324	2.92319845896
7	824	1890.677016910461	4.699742413532
7	825	1891.220338707148	4.881225864074
7	833	1926.875864715189	1.552961640952
7	834	1928.563571981849	1.945915306681
7	840	1948.389535205849	1.93701695982
7	846	1975.434745288208	6.817414199591
7	855	1987.119140529118	3.344956255153
7	858	1991.120956843132	0.108806710866
7	861	1997.131753723589	1.168419063139
7	870	2024.07214460152	2.283304739292
7	873	2028.746756592817	0.781146340024
7	876	2036.72384705566	0.053600864524
7	879	2039.461038578399	0.849000187338
7	894	2072.836240242465	19.384848318826
7	895	2074.595314726026	14.874941748805
7	896	2075.461809370347	10.247904391948
7	900	2076.60321349892	0.355761803146
7	913	2108.964423662326	20.548126473085
7	916	2111.687330412982	17.132181265742
7	919	2113.953394172614	14.530334514645
7	920	2114.161783857626	4.635482038562
7	921	2114.234355111961	0.333138719672
7	935	2160.777846451278	8.040524009678
7	936	2160.894077367449	2.569219193803
7	939	2170.06025377157	0.027318655873
7	947	2180.032364878909	4.973084059033
7	948	2182.482231143926	6.588370388566
7	957	2196.382317776209	1.869016237708
7	960	2200.628988279187	3.447801517813
7	963	2202.107567554488	0.24514586773
7	966	2206.515804022686	0.526086940328
7	969	2212.066045118132	1.430847082071
7	972	2215.991539498966	0.385543580449
7	975	2221.228843034267	0.24528088343
7	978	2240.303235466715	3.156430627828
7	983	2243.601836873052	0.929098656758
7	984	2244.398715731281	1.187522792602
7	991	2259.970038931598	5.88791178632
7	992	2260.176708811375	4.900529550504
7	993	2262.958941353229	5.578317773175
7	999	2268.960265023653	3.248193309029
7	1004	2280.296714146537	1.766068295343
7	1005	2280.665726599683	1.292391558294
7	1008	2283.231162489371	0.932074226654
7	1011	2289.985304567854	1.427361315876
7	1020	2325.167918519599	3.729286380656
7	1023	2333.620072585298	0.876989238399
7	1028	2336.14467199891	1.978332026579
7	1029	2338.243350328376	4.001516119196
7	1032	2350.685110694526	0.003154069034
7	1035	2362.949966008807	0.917348046652
7	1044	2378.385142184393	11.967545186002
7	1055	2401.10693949294	18.493588686074
7	1056	2402.40371857359	18.906007875608
7	1067	2443.111607335305	23.046813466516
7	1068	2444.089631107206	11.65994561486
7	1071	2452.73833401858	0.634696072237
8	140	381.910508285344	1
8	142	382.12216177113	2
8	146	385.458599038288	1
8	152	401.932998597983	1
8	154	404.293112790177	2
8	169	437.903864460807	2
8	171	439.767450543379	3
8	184	467.105152708054	1
8	209	507.778352471988	1
8	211	511.970843354015	2
8	213	523.641403692857	3
8	215	523.764599663184	4
8	217	526.525142992614	5
8	224	556.097184880185	3
8	227	564.45633319999	3
8	250	627.778284939314	1
8	259	638.222539276565	1
8	272	662.431607004495	1
8	274	662.436923341715	2
8	278	669.501349085891	1
8	295	712.041199677948	1
8	308	741.260931673624	1
8	329	799.551242766425	1
8	340	822.860284331871	1
8	371	877.543810870645	1
8	379	887.337605029767	1
8	382	888.487505027603	1
8	397	907.588439234243	1
8	401	909.614822051967	1
8	410	920.771602651114	1
8	431	964.27347470108	1
8	440	981.828805080065	1
8	448	991.993690733228	1
8	464	1016.249624094874	1
8	482	1077.928705248913	1
8	484	1080.302015026252	2
8	497	1107.584578418003	1
8	506	1158.933809594803	1
8	530	1188.996723057024	1
8	550	1278.988197943606	1
8	572	1331.699076905576	1
8	584	1354.3265869964	1
8	608	1410.690821772367	1
8	614	1442.401810080516	1
8	620	1458.263650676793	1
8	622	1458.853799594753	2
8	629	1474.67750170795	1
8	632	1478.591938273987	1
8	641	1499.350124495382	1
8	659	1540.927398831871	1
8	662	1543.83572861612	1
8	668	1571.160236717777	1
8	692	1627.011532211296	1
8	701	1641.200728983196	1
8	705	1649.139788179428	2
8	708	1651.886764969815	2
8	725	1677.97722850772	1
8	731	1691.221218932796	1
8	734	1695.469903337416	1
8	743	1709.973952942435	1
8	755	1734.173751778239	1
8	760	1741.631715878164	1
8	770	1795.251777029999	1
8	772	1796.186514870931	2
8	778	1810.233699922377	3
8	785	1821.747407345427	3
8	798	1852.560548192826	1
8	800	1854.576513861016	2
8	809	1868.175832967458	1
8	811	1869.101112407136	2
8	815	1883.079443135498	1
8	827	1906.172223784969	1
8	836	1929.509174591028	1
8	842	1967.343964080476	1
8	848	1979.682068380707	1
8	851	1982.357432335051	1
8	863	2003.786686497585	1
8	866	2006.5504223079	1
8	881	2040.249635521158	1
8	884	2053.063007369747	1
8	898	2076.247451695774	1
8	902	2080.649378436169	1
8	904	2086.329528345313	2
8	923	2116.760152658708	1
8	926	2130.649701280081	1
8	929	2149.349687489204	1
8	941	2171.319197265902	1
8	950	2183.040962897326	1
8	952	2183.478361293144	2
8	995	2263.858396856056	1
8	1013	2294.457992447564	1
8	1016	2319.143568197383	1
8	1037	2364.097716176362	1
8	1041	2369.034416376807	2
8	1046	2379.332298766566	1
8	1050	2382.99845866801	2
8	1060	2420.064793868789	1
8	1064	2435.541766541786	2
8	1073	2461.309526535168	1
8	1076	2468.83020005602	1
8	1079	2471.034788360199	1
9	140	381.910508285344	0
9	143	385.249269280727	3.127107509597
9	146	385.458599038288	0
9	152	401.932998597983	0
9	161	414.859653637601	10.566540847424
9	172	449.451473794797	11.54760933399
9	177	462.425676340133	22.658225796754
9	184	467.105152708054	0
9	209	507.778352471988	0
9	220	530.145281820548	18.174438466533
9	221	535.488754614125	11.847350921268
9	222	538.74803378901	14.983434125826
9	225	561.765887438167	35.240744445553
9	228	568.631766246896	12.534581366711
9	233	579.82138009729	15.3650468973
9	250	627.778284939314	0
9	259	638.222539276565	0
9	272	662.431607004495	0
9	275	664.526777491869	2.089854150154
9	278	669.501349085891	0
9	295	712.041199677948	0
9	308	741.260931673624	0
9	329	799.551242766425	0
9	340	822.860284331871	0
9	371	877.543810870645	0
9	379	887.337605029767	0
9	382	888.487505027603	0
9	397	907.588439234243	0
9	401	909.614822051967	0
9	410	920.771602651114	0
9	431	964.27347470108	0
9	440	981.828805080065	0
9	448	991.993690733228	0
9	464	1016.249624094874	0
9	482	1077.928705248913	0
9	487	1090.391667219728	10.089652193476
9	497	1107.584578418003	0
9	506	1158.933809594803	0
9	530	1188.996723057024	0
9	550	1278.988197943606	0
9	572	1331.699076905576	0
9	584	1354.3265869964	0
9	608	1410.690821772367	0
9	614	1442.401810080516	0
9	620	1458.263650676793	0
9	625	1467.012259767551	8.158460172798
9	629	1474.67750170795	0
9	632	1478.591938273987	0
9	641	1499.350124495382	0
9	659	1540.927398831871	0
9	662	1543.83572861612	0
9	668	1571.160236717777	0
9	692	1627.011532211296	0
9	701	1641.200728983196	0
9	706	1651.875159993464	2.735371814036
9	711	1667.061641343547	15.174876373732
9	725	1677.97722850772	0
9	731	1691.221218932796	0
9	734	1695.469903337416	0
9	743	1709.973952942435	0
9	755	1734.173751778239	0
9	760	1741.631715878164	0
9	770	1795.251777029999	0
9	783	1815.883676901066	19.697162030135
9	786	1824.79673751748	14.563037595103
9	789	1838.871254697905	17.123847352478
9	798	1852.560548192826	0
9	801	1854.639249531969	0.062735670953
9	809	1868.175832967458	0
9	812	1869.132877756773	0.031765349637
9	815	1883.079443135498	0
9	827	1906.172223784969	0
9	836	1929.509174591028	0
9	842	1967.343964080476	0
9	848	1979.682068380707	0
9	851	1982.357432335051	0
9	863	2003.786686497585	0
9	866	2006.5504223079	0
9	881	2040.249635521158	0
9	884	2053.063007369747	0
9	898	2076.247451695774	0
9	902	2080.649378436169	0
9	909	2094.561798595889	8.232270250576
9	923	2116.760152658708	0
9	926	2130.649701280081	0
9	929	2149.349687489204	0
9	941	2171.319197265902	0
9	950	2183.040962897326	0
9	953	2193.592626484204	10.11426519106
9	995	2263.858396856056	0
9	1013	2294.457992447564	0
9	1016	2319.143568197383	0
9	1037	2364.097716176362	0
9	1042	2372.94728058749	3.912864210683
9	1046	2379.332298766566	0
9	1053	2388.380395964038	5.381937296028
9	1060	2420.064793868789	0
9	1065	2441.304417685114	5.762651143328
9	1073	2461.309526535168	0
9	1076	2468.83020005602	0
9	1079	2471.034788360199	0
10	184	467.105152708054	2
10	250	627.778284939314	3
10	259	638.222539276565	4
10	295	712.041199677948	5
10	340	822.860284331871	6
10	379	887.337605029767	7
10	382	888.487505027603	8
10	397	907.588439234243	9
10	410	920.771602651114	10
10	448	991.993690733228	11
10	550	1278.988197943606	12
10	760	1741.631715878164	13
10	798	1852.560548192826	14
10	898	2076.247451695774	15
10	1060	2420.064793868789	16
11	1081	2500	0.096
12	1081	2500	0.048

