file 67130 1678273418                                           
version 2
run experiments_easy_game_mode1-496-20230308-12:03:38-20889
attr configname experiments_easy_game_mode1
attr datetime 20230308-12:03:38
attr experiment experiments_easy_game_mode1
attr inifile omnetpp.ini
attr iterationvars "$0=5.5, $1=2, $2=0"
attr iterationvarsf 5.5,2,0-
attr measurement "$0=5.5, $1=2, $2=0"
attr network Network
attr processid 20889
attr repetition 16
attr replication #16
attr resultdir results
attr runnumber 496
attr seedset 16
param *.boss.arrival_mean 20
param *.boss.service_mean 5.5
param *.minion.arrival_mean 10
param *.minion.service_mean 2
param *.player.recover_rate_x 0
param **.minion.arrival_distribution 0
param **.minion.service_distribution 0
param **.boss.arrival_distribution 0
param **.boss.service_distribution 0

vector 0 Network.player minion_jobs_number_stat:vector ETV
attr source signal_minion_jobs_number
vector 1 Network.player minion_jobs_queue_number_stat:vector ETV
attr source signal_minion_jobs_queue_number
vector 2 Network.player minion_waiting_time_stat:vector ETV
attr source signal_minion_waiting_time
vector 3 Network.player boss_jobs_number_stat:vector ETV
attr source signal_boss_jobs_number
vector 4 Network.player boss_jobs_queue_number_stat:vector ETV
attr source signal_boss_jobs_queue_number
vector 5 Network.player minion_recovered_stat:vector ETV
attr source signal_minion_recovered
vector 6 Network.player boss_waiting_time_stat:vector ETV
attr source signal_boss_waiting_time
vector 7 Network.player boss_defeated_stat:vector ETV
attr source signal_boss_defeated
vector 8 Network.player boss_response_time_stat:vector ETV
attr source signal_boss_response_time
vector 9 Network.player minion_defeated_stat:vector ETV
attr source signal_minion_defeated
vector 10 Network.player minion_response_time_stat:vector ETV
attr source signal_minion_response_time
vector 11 Network.player minion_throughput:vector ETV
attr source signal_minion_throughput
vector 12 Network.player boss_throughput:vector ETV
attr source signal_boss_throughput
0	2013 5893 161 1238 368.8046549948 2480.211963592418 228 1 7 429 1207
1	7906 11790 161 1239 368.8046549948 2488.388945990494 456 0 6 402 1154
2	19696 8398 161 1238 368.8046549948 2480.211963592418 251 0 48.549421764909 1840.4582990654 47915.624484745
3	28094 3387 165 1226 369.138949755894 2458.382625969776 132 1 6 213 457
4	31481 6781 165 1227 369.138949755894 2460.652463919846 264 0 5 162 326
5	38262 612 165 1123 369.138949755894 2310.846390442859 23 3 25 322 5520
6	38874 4083 165 1226 369.138949755894 2458.382625969776 132 0 20.71958832575 396.91450081597 4846.9706448362
7	42957 3581 166 1227 374.067875408627 2460.652463919846 132 23 154 11682 1225510
8	46538 5142 166 1227 374.067875408627 2460.652463919846 132 0.046461171414 32.262132722477 1138.3561582497 17660.759314042
9	51680 6285 167 1239 376.752103432962 2488.388945990494 228 32 259 33174 5814494
10	57965 9124 167 1239 376.752103432962 2488.388945990494 228 0.033997320958 49.507534565976 2080.1153178997 51871.338791176
11	67089 20 1240 1240 2500 2500 1 0.1036 0.1036 0.1036 0.01073296
12	67109 20 1240 1240 2500 2500 1 0.0616 0.0616 0.0616 0.00379456

