file 64198 1678273544                                           
version 2
run experiments_easy_game_mode1-1082-20230308-12:05:44-24191
attr configname experiments_easy_game_mode1
attr datetime 20230308-12:05:44
attr experiment experiments_easy_game_mode1
attr inifile omnetpp.ini
attr iterationvars "$0=6.5, $1=1, $2=0"
attr iterationvarsf 6.5,1,0-
attr measurement "$0=6.5, $1=1, $2=0"
attr network Network
attr processid 24191
attr repetition 2
attr replication #2
attr resultdir results
attr runnumber 1082
attr seedset 2
param *.boss.arrival_mean 20
param *.boss.service_mean 6.5
param *.minion.arrival_mean 10
param *.minion.service_mean 1
param *.player.recover_rate_x 0
param **.minion.arrival_distribution 0
param **.minion.service_distribution 0
param **.boss.arrival_distribution 0
param **.boss.service_distribution 0

vector 0 Network.player minion_jobs_number_stat:vector ETV
attr source signal_minion_jobs_number
vector 1 Network.player minion_jobs_queue_number_stat:vector ETV
attr source signal_minion_jobs_queue_number
vector 2 Network.player minion_waiting_time_stat:vector ETV
attr source signal_minion_waiting_time
vector 3 Network.player minion_defeated_stat:vector ETV
attr source signal_minion_defeated
vector 4 Network.player minion_response_time_stat:vector ETV
attr source signal_minion_response_time
vector 5 Network.player boss_jobs_number_stat:vector ETV
attr source signal_boss_jobs_number
vector 6 Network.player boss_jobs_queue_number_stat:vector ETV
attr source signal_boss_jobs_queue_number
vector 7 Network.player boss_waiting_time_stat:vector ETV
attr source signal_boss_waiting_time
vector 8 Network.player boss_defeated_stat:vector ETV
attr source signal_boss_defeated
vector 9 Network.player boss_response_time_stat:vector ETV
attr source signal_boss_response_time
vector 10 Network.player minion_recovered_stat:vector ETV
attr source signal_minion_recovered
vector 11 Network.player minion_throughput:vector ETV
attr source signal_minion_throughput
vector 12 Network.player boss_throughput:vector ETV
attr source signal_boss_throughput
0	2012 5777 170 1208 361.253872248248 2491.854625862879 224 1 12 497 2331
1	7789 11396 170 1216 361.253872248248 2499.946895272642 443 0 11 536 3092
2	19185 7853 170 1216 361.253872248248 2499.946895272642 237 0 62.592245536141 2225.0477591558 76540.437594953
3	27038 5988 171 1216 362.353181685757 2499.946895272642 219 35 253 31536 5416454
4	33026 8498 171 1216 362.353181685757 2499.946895272642 219 0.004574292067 64.263405320504 2266.646363657 75165.32540539
5	41524 3280 173 1204 368.958402505989 2486.574186514758 127 1 4 196 388
6	44804 6562 173 1209 368.958402505989 2492.721898941169 254 0 3 138 246
7	51366 3904 173 1204 368.958402505989 2486.574186514758 127 0 36.875475512226 425.14248651649 6224.7432459884
8	55270 3459 174 1209 369.706647916529 2492.721898941169 127 23 149 10922 1109980
9	58729 4968 174 1209 369.706647916529 2492.721898941169 127 0.039115401333 44.25963637837 1280.759519603 23552.992147094
10	63697 460 235 1204 469.80224824894 2486.574186514758 17 1 17 153 1785
11	64157 20 1217 1217 2500 2500 1 0.1012 0.1012 0.1012 0.01024144
12	64177 20 1217 1217 2500 2500 1 0.0596 0.0596 0.0596 0.00355216

