version 2
run experiments_easy_game_mode1-2032-20230308-12:09:00-28949
attr configname experiments_easy_game_mode1
attr datetime 20230308-12:09:00
attr experiment experiments_easy_game_mode1
attr inifile omnetpp.ini
attr iterationvars "$0=7.5, $1=2.5, $2=100"
attr iterationvarsf 7.5,2.5,100-
attr measurement "$0=7.5, $1=2.5, $2=100"
attr network Network
attr processid 28949
attr repetition 22
attr replication #22
attr resultdir results
attr runnumber 2032
attr seedset 22
param *.boss.arrival_mean 20
param *.boss.service_mean 7.5
param *.minion.arrival_mean 10
param *.minion.service_mean 2.5
param *.player.recover_rate_x 100
param **.minion.arrival_distribution 0
param **.minion.service_distribution 0
param **.boss.arrival_distribution 0
param **.boss.service_distribution 0

vector 0 Network.player boss_jobs_number_stat:vector ETV
attr source signal_boss_jobs_number
vector 1 Network.player boss_jobs_queue_number_stat:vector ETV
attr source signal_boss_jobs_queue_number
vector 2 Network.player boss_waiting_time_stat:vector ETV
attr source signal_boss_waiting_time
vector 3 Network.player minion_jobs_number_stat:vector ETV
attr source signal_minion_jobs_number
vector 4 Network.player minion_jobs_queue_number_stat:vector ETV
attr source signal_minion_jobs_queue_number
vector 5 Network.player boss_defeated_stat:vector ETV
attr source signal_boss_defeated
vector 6 Network.player boss_response_time_stat:vector ETV
attr source signal_boss_response_time
vector 7 Network.player minion_waiting_time_stat:vector ETV
attr source signal_minion_waiting_time
vector 8 Network.player minion_defeated_stat:vector ETV
attr source signal_minion_defeated
vector 9 Network.player minion_response_time_stat:vector ETV
attr source signal_minion_response_time
vector 10 Network.player minion_recovered_stat:vector ETV
attr source signal_minion_recovered
vector 11 Network.player minion_throughput:vector ETV
attr source signal_minion_throughput
vector 12 Network.player boss_throughput:vector ETV
attr source signal_boss_throughput
0	149	352.732720250375	1
0	151	355.433047855263	2
0	169	372.773431743755	1
0	179	389.911696294157	2
0	183	409.20090723275	3
0	194	419.115805167906	1
0	200	428.285912979846	1
0	205	432.020690320547	1
0	210	437.993320757065	1
0	221	448.984162645259	1
0	228	453.306284690797	1
0	251	510.387125889854	1
0	257	526.46961230785	1
0	261	533.563355917929	2
0	272	568.494963728278	1
0	275	577.631216787148	1
0	287	591.632646903891	1
0	293	601.54926800305	1
0	302	624.816116876814	1
0	305	640.060494979796	1
0	311	668.565266190094	1
0	335	746.322986805191	1
0	346	766.884422485837	1
0	352	769.669052624047	1
0	359	779.391853016187	1
0	367	815.902299426086	1
0	372	817.572190500044	1
0	374	818.393229417335	2
0	390	851.345356059816	1
0	416	906.013461760535	1
0	433	939.383849919173	1
0	439	955.915434262725	1
0	441	956.958761290858	2
0	443	957.461455670674	3
0	449	975.50190493379	2
0	457	986.879967410732	1
0	494	1055.885023117775	1
0	500	1059.630242846955	2
0	527	1145.316987997786	1
0	539	1165.70992133794	1
0	560	1199.983447462322	1
0	573	1227.224402541465	1
0	578	1250.640409287308	1
0	580	1253.598628145409	2
0	583	1273.121481900732	2
0	585	1278.10411848818	3
0	600	1296.391501752732	1
0	623	1373.490195164909	1
0	631	1396.378671918339	1
0	634	1404.998596004887	1
0	641	1441.491428769926	1
0	656	1500.224709875965	1
0	668	1512.548829056849	1
0	674	1521.35570542557	1
0	683	1537.225514547729	1
0	695	1568.230041862579	1
0	709	1630.928663981691	1
0	749	1737.19410452424	1
0	753	1743.875031036989	2
0	758	1764.137385416466	2
0	767	1777.384326312965	2
0	769	1784.016498561004	3
0	784	1817.563950498099	1
0	792	1831.000081940892	1
0	798	1849.6697379151	1
0	800	1850.828071912874	2
0	811	1870.994647250275	1
0	819	1893.698305662355	1
0	826	1904.479950762439	1
0	828	1904.750086054783	2
0	842	1935.146117081951	1
0	858	1974.554008801891	1
0	862	1981.808488126002	1
0	866	1986.362462881426	1
0	881	2014.879474030786	1
0	905	2072.110436258973	1
0	907	2082.323736446278	2
0	920	2102.142222095481	1
0	923	2130.15466470212	1
0	940	2151.655274757864	1
0	949	2170.100655578106	1
0	956	2177.404956811009	1
0	962	2189.05207409054	2
0	966	2191.23146393384	3
0	972	2209.341922937825	2
0	977	2218.118859979382	1
0	986	2267.984510232703	1
0	992	2295.117984520488	1
0	1004	2341.666917677911	1
0	1007	2343.790800771955	1
0	1013	2361.192018666655	1
0	1016	2371.777703174319	1
0	1046	2425.669696899728	1
0	1048	2426.874752860027	2
0	1052	2450.298982238692	1
0	1073	2486.924382343612	1
1	149	352.732720250375	0
1	151	355.433047855263	1
1	154	360.13712573091	1
1	159	363.901052316167	0
1	169	372.773431743755	0
1	179	389.911696294157	1
1	183	409.20090723275	2
1	184	409.259150107949	2
1	185	410.900989064985	1
1	186	411.494797320252	0
1	194	419.115805167906	0
1	197	423.738651564827	0
1	200	428.285912979846	0
1	201	431.431979945585	0
1	205	432.020690320547	0
1	208	432.817753975881	0
1	210	437.993320757065	0
1	211	440.743062503641	0
1	221	448.984162645259	0
1	226	452.072399789162	0
1	228	453.306284690797	0
1	233	462.595636532716	0
1	251	510.387125889854	0
1	252	515.034058822704	0
1	257	526.46961230785	0
1	261	533.563355917929	1
1	262	545.165221052405	1
1	263	550.774835266716	0
1	272	568.494963728278	0
1	273	569.127721009461	0
1	275	577.631216787148	0
1	280	583.114804157997	0
1	287	591.632646903891	0
1	290	592.119352139448	0
1	293	601.54926800305	0
1	296	609.560490102877	0
1	302	624.816116876814	0
1	303	631.36119101472	0
1	305	640.060494979796	0
1	308	647.029838910559	0
1	311	668.565266190094	0
1	312	676.86203576853	0
1	335	746.322986805191	0
1	336	746.621483605009	0
1	346	766.884422485837	0
1	347	766.954812170076	0
1	352	769.669052624047	0
1	353	770.883789849957	0
1	359	779.391853016187	0
1	360	783.5022611161	0
1	367	815.902299426086	0
1	368	817.008129176047	0
1	372	817.572190500044	0
1	374	818.393229417335	1
1	375	821.34599567726	1
1	378	829.211167181339	0
1	390	851.345356059816	0
1	391	851.915520061857	0
1	416	906.013461760535	0
1	419	916.826290637727	0
1	433	939.383849919173	0
1	436	950.416152142903	0
1	439	955.915434262725	0
1	441	956.958761290858	1
1	443	957.461455670674	2
1	444	968.629687869062	2
1	445	970.204165083346	1
1	449	975.50190493379	1
1	450	980.320959313152	1
1	455	985.054407011743	0
1	457	986.879967410732	0
1	458	993.149636950943	0
1	494	1055.885023117775	0
1	500	1059.630242846955	1
1	505	1063.796251323757	1
1	508	1073.066762001159	0
1	527	1145.316987997786	0
1	528	1145.378441127202	0
1	539	1165.70992133794	0
1	540	1166.248207754575	0
1	560	1199.983447462322	0
1	561	1200.511414864515	0
1	573	1227.224402541465	0
1	574	1230.317886813059	0
1	578	1250.640409287308	0
1	580	1253.598628145409	1
1	581	1260.946083012689	1
1	583	1273.121481900732	1
1	585	1278.10411848818	2
1	586	1279.721599682128	2
1	587	1281.006696667183	1
1	590	1283.134982159143	0
1	600	1296.391501752732	0
1	601	1302.13121731194	0
1	623	1373.490195164909	0
1	624	1378.737726940414	0
1	631	1396.378671918339	0
1	632	1404.837660001241	0
1	634	1404.998596004887	0
1	637	1431.025321838315	0
1	641	1441.491428769926	0
1	642	1446.989251911701	0
1	656	1500.224709875965	0
1	659	1508.306218725264	0
1	668	1512.548829056849	0
1	669	1518.044233485914	0
1	674	1521.35570542557	0
1	675	1524.145860668042	0
1	683	1537.225514547729	0
1	686	1541.927362075327	0
1	695	1568.230041862579	0
1	696	1570.308815723139	0
1	709	1630.928663981691	0
1	710	1633.032949652409	0
1	749	1737.19410452424	0
1	753	1743.875031036989	1
1	754	1749.692181702392	1
1	758	1764.137385416466	1
1	761	1767.881215086594	1
1	767	1777.384326312965	1
1	769	1784.016498561004	2
1	772	1794.144093219832	2
1	773	1794.998523278154	1
1	778	1806.994435894776	0
1	784	1817.563950498099	0
1	785	1822.49380961982	0
1	792	1831.000081940892	0
1	795	1834.640098248142	0
1	798	1849.6697379151	0
1	800	1850.828071912874	1
1	803	1860.028331749112	1
1	806	1863.088312821171	0
1	811	1870.994647250275	0
1	814	1874.640542508675	0
1	819	1893.698305662355	0
1	820	1895.018969582736	0
1	826	1904.479950762439	0
1	828	1904.750086054783	1
1	833	1914.935609758552	1
1	834	1915.811408999142	0
1	842	1935.146117081951	0
1	843	1945.838071605055	0
1	858	1974.554008801891	0
1	859	1976.630271260843	0
1	862	1981.808488126002	0
1	863	1984.355188473751	0
1	866	1986.362462881426	0
1	867	1989.423384737938	0
1	881	2014.879474030786	0
1	882	2023.272837122886	0
1	905	2072.110436258973	0
1	907	2082.323736446278	1
1	914	2097.334467600756	1
1	915	2098.782475501458	0
1	920	2102.142222095481	0
1	921	2120.388506673635	0
1	923	2130.15466470212	0
1	926	2138.514278530275	0
1	940	2151.655274757864	0
1	943	2156.873637958018	0
1	949	2170.100655578106	0
1	950	2172.73856060341	0
1	956	2177.404956811009	0
1	962	2189.05207409054	1
1	966	2191.23146393384	2
1	969	2203.829578492135	2
1	970	2209.179235820253	1
1	972	2209.341922937825	1
1	973	2213.655149839109	1
1	974	2215.85055905288	0
1	977	2218.118859979382	0
1	980	2224.434114878144	0
1	986	2267.984510232703	0
1	987	2273.669808356903	0
1	992	2295.117984520488	0
1	993	2298.205505216645	0
1	1004	2341.666917677911	0
1	1005	2342.808961525322	0
1	1007	2343.790800771955	0
1	1008	2344.234141534156	0
1	1013	2361.192018666655	0
1	1014	2368.366821699411	0
1	1016	2371.777703174319	0
1	1019	2376.486105303005	0
1	1046	2425.669696899728	0
1	1048	2426.874752860027	1
1	1049	2430.436853702599	1
1	1050	2432.459998881493	0
1	1052	2450.298982238692	0
1	1063	2472.902792285285	0
1	1073	2486.924382343612	0
1	1074	2489.966940842665	0
2	149	352.732720250375	0
2	154	360.13712573091	4.704077875647
2	169	372.773431743755	0
2	184	409.259150107949	19.347453813792
2	185	410.900989064985	1.700081832235
2	194	419.115805167906	0
2	200	428.285912979846	0
2	205	432.020690320547	0
2	210	437.993320757065	0
2	221	448.984162645259	0
2	228	453.306284690797	0
2	251	510.387125889854	0
2	257	526.46961230785	0
2	262	545.165221052405	11.601865134476
2	272	568.494963728278	0
2	275	577.631216787148	0
2	287	591.632646903891	0
2	293	601.54926800305	0
2	302	624.816116876814	0
2	305	640.060494979796	0
2	311	668.565266190094	0
2	335	746.322986805191	0
2	346	766.884422485837	0
2	352	769.669052624047	0
2	359	779.391853016187	0
2	367	815.902299426086	0
2	372	817.572190500044	0
2	375	821.34599567726	2.952766259925
2	390	851.345356059816	0
2	416	906.013461760535	0
2	433	939.383849919173	0
2	439	955.915434262725	0
2	444	968.629687869062	11.670926578204
2	445	970.204165083346	12.742709412672
2	450	980.320959313152	4.819054379362
2	457	986.879967410732	0
2	494	1055.885023117775	0
2	505	1063.796251323757	4.166008476802
2	527	1145.316987997786	0
2	539	1165.70992133794	0
2	560	1199.983447462322	0
2	573	1227.224402541465	0
2	578	1250.640409287308	0
2	581	1260.946083012689	7.34745486728
2	586	1279.721599682128	6.600117781396
2	587	1281.006696667183	2.902578179003
2	600	1296.391501752732	0
2	623	1373.490195164909	0
2	631	1396.378671918339	0
2	634	1404.998596004887	0
2	641	1441.491428769926	0
2	656	1500.224709875965	0
2	668	1512.548829056849	0
2	674	1521.35570542557	0
2	683	1537.225514547729	0
2	695	1568.230041862579	0
2	709	1630.928663981691	0
2	749	1737.19410452424	0
2	754	1749.692181702392	5.817150665403
2	761	1767.881215086594	3.743829670128
2	772	1794.144093219832	16.759766906867
2	773	1794.998523278154	10.98202471715
2	784	1817.563950498099	0
2	792	1831.000081940892	0
2	798	1849.6697379151	0
2	803	1860.028331749112	9.200259836238
2	811	1870.994647250275	0
2	819	1893.698305662355	0
2	826	1904.479950762439	0
2	833	1914.935609758552	10.185523703769
2	842	1935.146117081951	0
2	858	1974.554008801891	0
2	862	1981.808488126002	0
2	866	1986.362462881426	0
2	881	2014.879474030786	0
2	905	2072.110436258973	0
2	914	2097.334467600756	15.010731154478
2	920	2102.142222095481	0
2	923	2130.15466470212	0
2	940	2151.655274757864	0
2	949	2170.100655578106	0
2	956	2177.404956811009	0
2	969	2203.829578492135	14.777504401595
2	970	2209.179235820253	17.947771886413
2	973	2213.655149839109	4.313226901284
2	977	2218.118859979382	0
2	986	2267.984510232703	0
2	992	2295.117984520488	0
2	1004	2341.666917677911	0
2	1007	2343.790800771955	0
2	1013	2361.192018666655	0
2	1016	2371.777703174319	0
2	1046	2425.669696899728	0
2	1049	2430.436853702599	3.562100842572
2	1052	2450.298982238692	0
2	1073	2486.924382343612	0
3	153	357.110273761727	1
3	156	360.782346563254	2
3	158	360.900786523798	3
3	162	365.810453568358	3
3	165	367.412899786366	3
3	171	376.122387271869	2
3	173	384.627559805106	3
3	175	385.834413027814	4
3	177	386.576892817182	5
3	181	401.181908524793	6
3	190	416.321708143119	5
3	196	420.069603263322	4
3	207	432.528569256868	2
3	214	442.913448376436	2
3	216	444.803130129404	3
3	218	445.135584916655	4
3	223	449.401489746978	4
3	225	451.221452777944	5
3	230	454.576488467537	6
3	232	460.202995459364	7
3	235	464.638686879267	8
3	237	467.223887546964	9
3	247	484.831073808571	2
3	254	518.735864083602	1
3	259	529.169429449537	1
3	266	552.701837662188	1
3	268	557.823998198495	2
3	277	577.898028766112	1
3	279	583.100866190608	2
3	282	583.427779886505	3
3	289	592.018243094432	1
3	295	608.087541157606	1
3	299	618.533539022096	1
3	307	642.194701466183	1
3	314	682.979150824183	1
3	317	695.150857070289	1
3	320	698.967478304851	1
3	322	701.57739216657	2
3	326	713.191993803831	1
3	329	718.492683037777	1
3	332	722.564048108325	1
3	338	761.028255665413	1
3	340	761.487909032096	2
3	343	765.478455412807	2
3	349	767.320131015934	2
3	356	776.371885117411	1
3	362	804.13294165697	1
3	365	811.808337935243	1
3	370	817.455280928788	2
3	377	823.637458456528	3
3	380	831.508393944909	4
3	383	834.067640015354	4
3	386	843.377789365346	4
3	395	868.704436630748	1
3	398	878.544751053541	1
3	401	887.981957247444	1
3	403	888.398460733039	2
3	407	890.884252885326	1
3	410	901.853393344468	1
3	412	902.25416399318	2
3	418	915.149172449138	1
3	422	923.087460793294	1
3	425	926.920114016937	1
3	427	927.865272905843	2
3	429	930.983038456167	3
3	435	948.024276580382	2
3	447	970.800367903949	2
3	452	982.306886979273	3
3	454	983.530452524714	4
3	464	1010.992334053645	1
3	467	1021.313715227685	1
3	469	1022.255844706883	2
3	473	1031.154393004607	1
3	475	1031.28886926745	2
3	477	1033.225056498623	3
3	479	1035.659953448519	4
3	484	1038.551823205842	2
3	487	1043.392157736558	2
3	489	1045.419253597348	3
3	496	1058.795578569949	1
3	498	1059.042887166149	2
3	502	1061.987326247723	3
3	504	1062.741491367953	4
3	507	1065.690552507971	5
3	515	1088.20665058496	1
3	517	1090.936952841159	2
3	521	1140.475554567249	1
3	524	1141.601879095854	1
3	530	1157.494283946164	1
3	533	1159.506583065727	1
3	535	1159.587698204853	2
3	542	1181.930640896007	1
3	545	1182.152906295878	1
3	547	1182.768867144938	2
3	549	1184.969599222507	3
3	552	1186.784380597366	3
3	555	1192.143366601033	3
3	557	1192.520514962675	4
3	566	1211.805728267594	1
3	569	1223.873945092779	1
3	571	1224.744438681014	2
3	589	1281.731393799702	1
3	593	1288.810266778806	1
3	596	1289.987153130249	1
3	598	1290.252851183042	2
3	603	1303.146600035626	3
3	606	1312.273084810844	3
3	608	1316.389124757649	4
3	614	1346.850799411842	1
3	616	1348.796696255572	2
3	620	1356.337181890864	1
3	626	1384.787550339199	1
3	629	1393.455638340852	1
3	636	1430.725391606938	2
3	644	1452.039160495682	1
3	647	1466.510899405055	1
3	650	1491.916215156343	1
3	653	1497.066978577859	1
3	658	1504.221754487347	1
3	662	1509.634805061608	1
3	664	1510.171494330509	2
3	671	1520.527234707304	1
3	677	1524.96445812091	1
3	680	1525.327820162718	1
3	685	1541.829508091436	1
3	688	1543.276083854784	2
3	692	1560.585597844298	1
3	698	1570.658007599415	1
3	701	1595.824246247895	1
3	704	1622.495889256859	1
3	706	1623.642751490942	2
3	713	1653.684944445692	1
3	716	1669.074259599486	1
3	719	1677.360257209685	1
3	722	1696.172959194833	1
3	725	1698.555926067567	1
3	727	1701.053979771413	2
3	731	1708.839332401317	1
3	734	1721.058067293559	1
3	736	1722.961603454763	2
3	739	1727.137787525301	2
3	743	1728.733597568893	1
3	746	1730.093735591804	1
3	751	1743.058090492531	1
3	756	1763.393878676221	2
3	760	1765.748169376143	3
3	763	1775.793398433086	4
3	765	1776.016775535124	5
3	771	1789.277059377877	6
3	775	1799.111210359416	7
3	777	1800.559418640174	8
3	790	1830.70500639445	2
3	794	1832.010909947143	3
3	802	1854.416367651413	3
3	805	1862.229586683131	4
3	808	1866.838260173935	5
3	813	1874.052896741215	5
3	823	1900.459589706337	2
3	830	1905.322787154266	2
3	832	1912.556391803308	3
3	836	1923.034351827729	4
3	845	1951.806771612204	1
3	848	1961.866252201993	1
3	851	1970.293660341468	1
3	854	1973.607775948638	1
3	856	1973.741657500567	2
3	869	1989.469899896957	1
3	872	1993.598979995522	1
3	875	1995.919065059989	1
3	877	1997.182016906037	2
3	884	2024.339075712373	1
3	887	2028.503767400147	1
3	890	2042.844716623217	1
3	893	2047.370582727142	1
3	896	2055.676399834504	1
3	899	2066.310848008636	1
3	901	2066.779377899461	2
3	909	2094.26848032071	1
3	911	2094.311972251083	2
3	913	2096.536844739733	3
3	925	2131.423627661612	1
3	928	2141.199999379404	2
3	932	2146.335326496691	1
3	935	2148.0452512445	1
3	938	2151.136001806825	1
3	942	2151.997696375118	2
3	946	2164.023702648272	2
3	953	2175.835942713852	1
3	958	2183.253664310616	1
3	960	2186.451739360042	2
3	964	2190.271191358363	3
3	968	2195.461831745553	4
3	979	2224.188134757312	4
3	989	2282.880082712992	1
3	995	2298.569973153469	1
3	998	2305.584008865002	1
3	1001	2327.57412025814	1
3	1010	2355.384984240619	1
3	1018	2374.355315969987	1
3	1022	2378.768449697843	1
3	1025	2381.829432356643	1
3	1028	2385.367600433471	1
3	1031	2398.60852433365	1
3	1033	2399.836363075805	2
3	1035	2402.207237734363	3
3	1039	2408.222033721261	2
3	1043	2418.017793774835	1
3	1054	2456.153930869414	1
3	1056	2463.66316072287	2
3	1058	2469.955638397126	3
3	1060	2471.525547650354	4
3	1062	2471.855350292107	5
3	1069	2481.15861096232	2
3	1076	2491.824172234539	1
4	153	357.110273761727	0
4	156	360.782346563254	1
4	158	360.900786523798	2
4	160	364.529934349929	2
4	162	365.810453568358	2
4	163	367.267591625815	2
4	165	367.412899786366	2
4	166	371.038990240569	2
4	167	371.411282749762	1
4	171	376.122387271869	1
4	173	384.627559805106	2
4	175	385.834413027814	3
4	177	386.576892817182	4
4	181	401.181908524793	5
4	187	411.591657932818	5
4	188	416.027927127705	4
4	190	416.321708143119	4
4	191	417.726456634226	4
4	192	418.055146658345	3
4	196	420.069603263322	3
4	198	425.954216832226	3
4	202	431.632007096192	2
4	203	431.794949872707	1
4	207	432.528569256868	1
4	212	442.028038434557	1
4	214	442.913448376436	1
4	216	444.803130129404	2
4	218	445.135584916655	3
4	219	447.641788737749	3
4	223	449.401489746978	3
4	225	451.221452777944	4
4	230	454.576488467537	5
4	232	460.202995459364	6
4	235	464.638686879267	7
4	237	467.223887546964	8
4	238	469.187099181345	8
4	239	469.856905880609	7
4	240	472.980646234864	6
4	241	477.080786523842	5
4	242	482.541103833029	4
4	243	483.118701531361	3
4	244	483.671538090322	2
4	245	484.34909868605	1
4	247	484.831073808571	1
4	248	485.407981255668	1
4	249	485.666910767682	0
4	254	518.735864083602	0
4	255	520.648742373453	0
4	259	529.169429449537	0
4	264	551.990557185998	0
4	266	552.701837662188	0
4	268	557.823998198495	1
4	269	562.310817843202	1
4	270	566.771258819914	0
4	277	577.898028766112	0
4	279	583.100866190608	1
4	282	583.427779886505	2
4	283	584.86294115274	2
4	284	586.75217452058	1
4	285	587.819333752279	0
4	289	592.018243094432	0
4	291	594.485992633256	0
4	295	608.087541157606	0
4	297	610.158629652696	0
4	299	618.533539022096	0
4	300	619.237415125695	0
4	307	642.194701466183	0
4	309	647.518216168691	0
4	314	682.979150824183	0
4	315	683.08333504986	0
4	317	695.150857070289	0
4	318	695.425474044232	0
4	320	698.967478304851	0
4	322	701.57739216657	1
4	323	703.93550990199	1
4	324	704.454471262113	0
4	326	713.191993803831	0
4	327	713.451634418912	0
4	329	718.492683037777	0
4	330	718.595555202888	0
4	332	722.564048108325	0
4	333	726.103005543451	0
4	338	761.028255665413	0
4	340	761.487909032096	1
4	341	761.714075646062	1
4	343	765.478455412807	1
4	344	766.413112393949	1
4	349	767.320131015934	1
4	350	768.817849149805	1
4	354	772.849943872386	0
4	356	776.371885117411	0
4	357	776.954185474849	0
4	362	804.13294165697	0
4	363	807.320703751133	0
4	365	811.808337935243	0
4	370	817.455280928788	1
4	377	823.637458456528	2
4	380	831.508393944909	3
4	381	831.789860265253	3
4	383	834.067640015354	3
4	384	842.69931143282	3
4	386	843.377789365346	3
4	387	843.654352202007	3
4	388	850.731420681371	2
4	392	853.941198809891	1
4	393	855.00270152917	0
4	395	868.704436630748	0
4	396	875.76407060067	0
4	398	878.544751053541	0
4	399	878.665164279163	0
4	401	887.981957247444	0
4	403	888.398460733039	1
4	404	888.459246410919	1
4	405	890.517304702892	0
4	407	890.884252885326	0
4	408	893.027050549437	0
4	410	901.853393344468	0
4	412	902.25416399318	1
4	413	902.781716807732	1
4	414	903.739193934506	0
4	418	915.149172449138	0
4	420	917.831044609144	0
4	422	923.087460793294	0
4	423	924.400137950507	0
4	425	926.920114016937	0
4	427	927.865272905843	1
4	429	930.983038456167	2
4	430	934.829173790326	2
4	431	937.257734089506	1
4	435	948.024276580382	1
4	437	953.613021103257	1
4	447	970.800367903949	1
4	452	982.306886979273	2
4	454	983.530452524714	3
4	459	993.198286086088	3
4	460	995.353941351592	2
4	461	998.915587527633	1
4	462	1000.150590914559	0
4	464	1010.992334053645	0
4	465	1011.844414229726	0
4	467	1021.313715227685	0
4	469	1022.255844706883	1
4	470	1022.6259836691	1
4	471	1022.795652148797	0
4	473	1031.154393004607	0
4	475	1031.28886926745	1
4	477	1033.225056498623	2
4	479	1035.659953448519	3
4	480	1036.293539782745	3
4	481	1037.041903252681	2
4	482	1037.358647918333	1
4	484	1038.551823205842	1
4	485	1039.210975283748	1
4	487	1043.392157736558	1
4	489	1045.419253597348	2
4	490	1048.550298944899	2
4	491	1050.456610415242	1
4	492	1050.773996465707	0
4	496	1058.795578569949	0
4	498	1059.042887166149	1
4	502	1061.987326247723	2
4	504	1062.741491367953	3
4	507	1065.690552507971	4
4	509	1075.457224382373	4
4	510	1079.039365190277	3
4	511	1079.185491639175	2
4	512	1080.209773111464	1
4	513	1080.961958485413	0
4	515	1088.20665058496	0
4	517	1090.936952841159	1
4	518	1093.790144645303	1
4	519	1101.644922754756	0
4	521	1140.475554567249	0
4	522	1140.795913314936	0
4	524	1141.601879095854	0
4	525	1141.854412133311	0
4	530	1157.494283946164	0
4	531	1159.024808699946	0
4	533	1159.506583065727	0
4	535	1159.587698204853	1
4	536	1162.105876354364	1
4	537	1164.519573938772	0
4	542	1181.930640896007	0
4	543	1182.083912412165	0
4	545	1182.152906295878	0
4	547	1182.768867144938	1
4	549	1184.969599222507	2
4	550	1185.533475594188	2
4	552	1186.784380597366	2
4	553	1188.138982400354	2
4	555	1192.143366601033	2
4	557	1192.520514962675	3
4	558	1196.62869862557	3
4	562	1201.229657837013	2
4	563	1203.35649052533	1
4	564	1205.983985922777	0
4	566	1211.805728267594	0
4	567	1212.442149910848	0
4	569	1223.873945092779	0
4	571	1224.744438681014	1
4	575	1230.442123473483	1
4	576	1235.079584408334	0
4	589	1281.731393799702	0
4	591	1284.237870875302	0
4	593	1288.810266778806	0
4	594	1289.328292162062	0
4	596	1289.987153130249	0
4	598	1290.252851183042	1
4	603	1303.146600035626	2
4	604	1310.932320612096	2
4	606	1312.273084810844	2
4	608	1316.389124757649	3
4	609	1318.327075885175	3
4	610	1318.887312107562	2
4	611	1322.321863429836	1
4	612	1322.976692690145	0
4	614	1346.850799411842	0
4	616	1348.796696255572	1
4	617	1349.910499698322	1
4	618	1353.104049819459	0
4	620	1356.337181890864	0
4	621	1357.037189833105	0
4	626	1384.787550339199	0
4	627	1387.852707622743	0
4	629	1393.455638340852	0
4	636	1430.725391606938	1
4	638	1431.61078066826	1
4	639	1432.979796168589	0
4	644	1452.039160495682	0
4	645	1454.679959719258	0
4	647	1466.510899405055	0
4	648	1469.774556262693	0
4	650	1491.916215156343	0
4	651	1493.713249033973	0
4	653	1497.066978577859	0
4	654	1497.865406998285	0
4	658	1504.221754487347	0
4	660	1509.165879673246	0
4	662	1509.634805061608	0
4	664	1510.171494330509	1
4	665	1511.003366802174	1
4	666	1512.368938512066	0
4	671	1520.527234707304	0
4	672	1520.550275297798	0
4	677	1524.96445812091	0
4	678	1525.205254299632	0
4	680	1525.327820162718	0
4	681	1526.243765826449	0
4	685	1541.829508091436	0
4	688	1543.276083854784	1
4	689	1543.305623777763	1
4	690	1547.221469318622	0
4	692	1560.585597844298	0
4	693	1562.118585917377	0
4	698	1570.658007599415	0
4	699	1571.56756733818	0
4	701	1595.824246247895	0
4	702	1596.072347906401	0
4	704	1622.495889256859	0
4	706	1623.642751490942	1
4	707	1625.163419539754	1
4	711	1634.774412979453	0
4	713	1653.684944445692	0
4	714	1656.47999924025	0
4	716	1669.074259599486	0
4	717	1669.230623098123	0
4	719	1677.360257209685	0
4	720	1678.449523029809	0
4	722	1696.172959194833	0
4	723	1696.181891216237	0
4	725	1698.555926067567	0
4	727	1701.053979771413	1
4	728	1704.782476265048	1
4	729	1705.081291675254	0
4	731	1708.839332401317	0
4	732	1710.694662462821	0
4	734	1721.058067293559	0
4	736	1722.961603454763	1
4	737	1724.685083098027	1
4	739	1727.137787525301	1
4	740	1728.03176136807	1
4	741	1728.370339476354	0
4	743	1728.733597568893	0
4	744	1729.258434568832	0
4	746	1730.093735591804	0
4	747	1730.761033982678	0
4	751	1743.058090492531	0
4	756	1763.393878676221	1
4	760	1765.748169376143	2
4	763	1775.793398433086	3
4	765	1776.016775535124	4
4	771	1789.277059377877	5
4	775	1799.111210359416	6
4	777	1800.559418640174	7
4	779	1807.223369462727	7
4	780	1811.874889652353	6
4	781	1812.541202367619	5
4	782	1814.085033998266	4
4	786	1823.310923606499	3
4	787	1823.98815559546	2
4	788	1826.015049401513	1
4	790	1830.70500639445	1
4	794	1832.010909947143	2
4	796	1840.16475451286	2
4	802	1854.416367651413	2
4	805	1862.229586683131	3
4	808	1866.838260173935	4
4	809	1870.263907908523	4
4	813	1874.052896741215	4
4	815	1881.529118625908	4
4	816	1884.287829588068	3
4	817	1887.813425662561	2
4	821	1895.820982627844	1
4	823	1900.459589706337	1
4	824	1902.223756384232	1
4	830	1905.322787154266	1
4	832	1912.556391803308	2
4	836	1923.034351827729	3
4	837	1924.25336740849	3
4	838	1927.755997840536	2
4	839	1930.685895775733	1
4	840	1932.719771861071	0
4	845	1951.806771612204	0
4	846	1951.917615479134	0
4	848	1961.866252201993	0
4	849	1964.141398945955	0
4	851	1970.293660341468	0
4	852	1970.501484169003	0
4	854	1973.607775948638	0
4	856	1973.741657500567	1
4	860	1979.479336932901	1
4	864	1985.297626563492	0
4	869	1989.469899896957	0
4	870	1993.549625257779	0
4	872	1993.598979995522	0
4	873	1994.441093574769	0
4	875	1995.919065059989	0
4	877	1997.182016906037	1
4	878	2004.326278879681	1
4	879	2005.145266994006	0
4	884	2024.339075712373	0
4	885	2024.556044103042	0
4	887	2028.503767400147	0
4	888	2034.375629411248	0
4	890	2042.844716623217	0
4	891	2043.461890028947	0
4	893	2047.370582727142	0
4	894	2053.273282769217	0
4	896	2055.676399834504	0
4	897	2056.177917060154	0
4	899	2066.310848008636	0
4	901	2066.779377899461	1
4	902	2067.669510014566	1
4	903	2068.390198556557	0
4	909	2094.26848032071	0
4	911	2094.311972251083	1
4	913	2096.536844739733	2
4	916	2099.925236854708	2
4	917	2100.343192994741	1
4	918	2100.976552275653	0
4	925	2131.423627661612	0
4	928	2141.199999379404	1
4	929	2141.792847759091	1
4	930	2143.278181720977	0
4	932	2146.335326496691	0
4	933	2148.005394152831	0
4	935	2148.0452512445	0
4	936	2149.457309784357	0
4	938	2151.136001806825	0
4	942	2151.997696375118	1
4	944	2163.956602182537	1
4	946	2164.023702648272	1
4	947	2164.283701126451	1
4	951	2175.208900973705	0
4	953	2175.835942713852	0
4	954	2176.710798618959	0
4	958	2183.253664310616	0
4	960	2186.451739360042	1
4	964	2190.271191358363	2
4	968	2195.461831745553	3
4	975	2216.603714490887	3
4	979	2224.188134757312	3
4	981	2224.911200315211	3
4	982	2236.647197470884	2
4	983	2240.171317233917	1
4	984	2240.922078248552	0
4	989	2282.880082712992	0
4	990	2283.566720952842	0
4	995	2298.569973153469	0
4	996	2298.62512083104	0
4	998	2305.584008865002	0
4	999	2306.547569238207	0
4	1001	2327.57412025814	0
4	1002	2330.366722554622	0
4	1010	2355.384984240619	0
4	1011	2357.878426390273	0
4	1018	2374.355315969987	0
4	1020	2378.422968839186	0
4	1022	2378.768449697843	0
4	1023	2381.018109994078	0
4	1025	2381.829432356643	0
4	1026	2385.205913677027	0
4	1028	2385.367600433471	0
4	1029	2390.436285030338	0
4	1031	2398.60852433365	0
4	1033	2399.836363075805	1
4	1035	2402.207237734363	2
4	1036	2405.995581444481	2
4	1037	2407.375134478604	1
4	1039	2408.222033721261	1
4	1040	2409.211959451779	1
4	1041	2409.491468484173	0
4	1043	2418.017793774835	0
4	1044	2423.566084807603	0
4	1054	2456.153930869414	0
4	1056	2463.66316072287	1
4	1058	2469.955638397126	2
4	1060	2471.525547650354	3
4	1062	2471.855350292107	4
4	1064	2474.718839545927	4
4	1065	2474.736757388741	3
4	1066	2479.722154604822	2
4	1067	2480.35817145704	1
4	1069	2481.15861096232	1
4	1070	2481.550220269072	1
4	1071	2481.892597892505	0
4	1076	2491.824172234539	0
4	1077	2492.883436602667	0
5	154	360.13712573091	19
5	159	363.901052316167	20
5	184	409.259150107949	21
5	185	410.900989064985	22
5	186	411.494797320252	23
5	197	423.738651564827	24
5	201	431.431979945585	25
5	208	432.817753975881	26
5	211	440.743062503641	27
5	226	452.072399789162	28
5	233	462.595636532716	29
5	252	515.034058822704	30
5	262	545.165221052405	31
5	263	550.774835266716	32
5	273	569.127721009461	33
5	280	583.114804157997	34
5	290	592.119352139448	35
5	296	609.560490102877	36
5	303	631.36119101472	37
5	308	647.029838910559	38
5	312	676.86203576853	39
5	336	746.621483605009	40
5	347	766.954812170076	41
5	353	770.883789849957	42
5	360	783.5022611161	43
5	368	817.008129176047	44
5	375	821.34599567726	45
5	378	829.211167181339	46
5	391	851.915520061857	47
5	419	916.826290637727	48
5	436	950.416152142903	49
5	444	968.629687869062	50
5	445	970.204165083346	51
5	450	980.320959313152	52
5	455	985.054407011743	53
5	458	993.149636950943	54
5	505	1063.796251323757	55
5	508	1073.066762001159	56
5	528	1145.378441127202	57
5	540	1166.248207754575	58
5	561	1200.511414864515	59
5	574	1230.317886813059	60
5	581	1260.946083012689	61
5	586	1279.721599682128	62
5	587	1281.006696667183	63
5	590	1283.134982159143	64
5	601	1302.13121731194	65
5	624	1378.737726940414	66
5	632	1404.837660001241	67
5	637	1431.025321838315	68
5	642	1446.989251911701	69
5	659	1508.306218725264	70
5	669	1518.044233485914	71
5	675	1524.145860668042	72
5	686	1541.927362075327	73
5	696	1570.308815723139	74
5	710	1633.032949652409	75
5	754	1749.692181702392	76
5	761	1767.881215086594	77
5	772	1794.144093219832	78
5	773	1794.998523278154	79
5	778	1806.994435894776	80
5	785	1822.49380961982	81
5	795	1834.640098248142	82
5	803	1860.028331749112	83
5	806	1863.088312821171	84
5	814	1874.640542508675	85
5	820	1895.018969582736	86
5	833	1914.935609758552	87
5	834	1915.811408999142	88
5	843	1945.838071605055	89
5	859	1976.630271260843	90
5	863	1984.355188473751	91
5	867	1989.423384737938	92
5	882	2023.272837122886	93
5	914	2097.334467600756	94
5	915	2098.782475501458	95
5	921	2120.388506673635	96
5	926	2138.514278530275	97
5	943	2156.873637958018	98
5	950	2172.73856060341	99
5	969	2203.829578492135	100
5	970	2209.179235820253	101
5	973	2213.655149839109	102
5	974	2215.85055905288	103
5	980	2224.434114878144	104
5	987	2273.669808356903	105
5	993	2298.205505216645	106
5	1005	2342.808961525322	107
5	1008	2344.234141534156	108
5	1014	2368.366821699411	109
5	1019	2376.486105303005	110
5	1049	2430.436853702599	111
5	1050	2432.459998881493	112
5	1063	2472.902792285285	113
5	1074	2489.966940842665	114
6	154	360.13712573091	7.404405480535
6	159	363.901052316167	8.468004460904
6	184	409.259150107949	36.485718364194
6	185	410.900989064985	20.989292770828
6	186	411.494797320252	2.293890087502
6	197	423.738651564827	4.622846396921
6	201	431.431979945585	3.146066965739
6	208	432.817753975881	0.797063655334
6	211	440.743062503641	2.749741746576
6	226	452.072399789162	3.088237143903
6	233	462.595636532716	9.289351841919
6	252	515.034058822704	4.64693293285
6	262	545.165221052405	18.695608744555
6	263	550.774835266716	17.211479348787
6	273	569.127721009461	0.632757281183
6	280	583.114804157997	5.483587370849
6	290	592.119352139448	0.486705235557
6	296	609.560490102877	8.011222099827
6	303	631.36119101472	6.545074137906
6	308	647.029838910559	6.969343930763
6	312	676.86203576853	8.296769578436
6	336	746.621483605009	0.298496799818
6	347	766.954812170076	0.070389684239
6	353	770.883789849957	1.21473722591
6	360	783.5022611161	4.110408099913
6	368	817.008129176047	1.105829749961
6	375	821.34599567726	3.773805177216
6	378	829.211167181339	10.817937764004
6	391	851.915520061857	0.570164002041
6	419	916.826290637727	10.812828877192
6	436	950.416152142903	11.03230222373
6	444	968.629687869062	12.714253606337
6	445	970.204165083346	13.245403792488
6	450	980.320959313152	22.859503642478
6	455	985.054407011743	9.552502077953
6	458	993.149636950943	6.269669540211
6	505	1063.796251323757	7.911228205982
6	508	1073.066762001159	13.436519154204
6	528	1145.378441127202	0.061453129416
6	540	1166.248207754575	0.538286416635
6	561	1200.511414864515	0.527967402193
6	574	1230.317886813059	3.093484271594
6	581	1260.946083012689	10.305673725381
6	586	1279.721599682128	26.122971536719
6	587	1281.006696667183	7.885214766451
6	590	1283.134982159143	5.030863670963
6	601	1302.13121731194	5.739715559208
6	624	1378.737726940414	5.247531775505
6	632	1404.837660001241	8.458988082902
6	637	1431.025321838315	26.026725833428
6	642	1446.989251911701	5.497823141775
6	659	1508.306218725264	8.081508849299
6	669	1518.044233485914	5.495404429065
6	675	1524.145860668042	2.790155242472
6	686	1541.927362075327	4.701847527598
6	696	1570.308815723139	2.07877386056
6	710	1633.032949652409	2.104285670718
6	754	1749.692181702392	12.498077178152
6	761	1767.881215086594	24.006184049605
6	772	1794.144093219832	30.006707803366
6	773	1794.998523278154	17.614196965189
6	778	1806.994435894776	22.977937333772
6	785	1822.49380961982	4.929859121721
6	795	1834.640098248142	3.64001630725
6	803	1860.028331749112	10.358593834012
6	806	1863.088312821171	12.260240908297
6	814	1874.640542508675	3.6458952584
6	820	1895.018969582736	1.320663920381
6	833	1914.935609758552	10.455658996113
6	834	1915.811408999142	11.061322944359
6	843	1945.838071605055	10.691954523104
6	859	1976.630271260843	2.076262458952
6	863	1984.355188473751	2.546700347749
6	867	1989.423384737938	3.060921856512
6	882	2023.272837122886	8.3933630921
6	914	2097.334467600756	25.224031341783
6	915	2098.782475501458	16.45873905518
6	921	2120.388506673635	18.246284578154
6	926	2138.514278530275	8.359613828155
6	943	2156.873637958018	5.218363200154
6	950	2172.73856060341	2.637905025304
6	969	2203.829578492135	26.424621681126
6	970	2209.179235820253	20.127161729713
6	973	2213.655149839109	22.423685905269
6	974	2215.85055905288	6.508636115055
6	980	2224.434114878144	6.315254898762
6	987	2273.669808356903	5.6852981242
6	993	2298.205505216645	3.087520696157
6	1005	2342.808961525322	1.142043847411
6	1008	2344.234141534156	0.443340762201
6	1014	2368.366821699411	7.174803032756
6	1019	2376.486105303005	4.708402128686
6	1049	2430.436853702599	4.767156802871
6	1050	2432.459998881493	5.585246021466
6	1063	2472.902792285285	22.603810046593
6	1074	2489.966940842665	3.042558499053
7	159	363.901052316167	6.79077855444
7	160	364.529934349929	3.747587786675
7	163	367.267591625815	6.366805102017
7	166	371.038990240569	5.228536672211
7	167	371.411282749762	3.998382963396
7	186	411.494797320252	38.721365576497
7	187	411.591657932818	35.469270660949
7	188	416.027927127705	31.400367322599
7	191	417.726456634226	31.892043606412
7	192	418.055146658345	31.478253841163
7	197	423.738651564827	22.556743040034
7	198	425.954216832226	9.632508689107
7	201	431.431979945585	12.316174777679
7	202	431.632007096192	11.56240383287
7	203	431.794949872707	3.509036892861
7	208	432.817753975881	0.797063655334
7	211	440.743062503641	8.214493246773
7	212	442.028038434557	4.034717677492
7	219	447.641788737749	4.728340361313
7	226	452.072399789162	7.269269659758
7	233	462.595636532716	17.460051616061
7	238	469.187099181345	20.202936536086
7	239	469.856905880609	20.455416133631
7	240	472.980646234864	21.75919345692
7	241	477.080786523842	23.774501833045
7	242	482.541103833029	27.964615365492
7	243	483.118701531361	22.915706071997
7	244	483.671538090322	19.032851211055
7	245	484.34909868605	17.125211139086
7	248	485.407981255668	0.576907447097
7	254	518.735864083602	0
7	263	550.774835266716	21.605405817179
7	266	552.701837662188	0
7	269	562.310817843202	4.486819644707
7	280	583.114804157997	5.216775391885
7	283	584.86294115274	1.762074962132
7	284	586.75217452058	3.324394634075
7	290	592.119352139448	0.101109045016
7	296	609.560490102877	1.472948945271
7	299	618.533539022096	0
7	308	647.029838910559	4.835137444376
7	314	682.979150824183	0
7	317	695.150857070289	0
7	320	698.967478304851	0
7	323	703.93550990199	2.35811773542
7	326	713.191993803831	0
7	329	718.492683037777	0
7	332	722.564048108325	0
7	338	761.028255665413	0
7	341	761.714075646062	0.226166613966
7	344	766.413112393949	0.934656981142
7	347	766.954812170076	0.070389684239
7	350	768.817849149805	1.497718133871
7	353	770.883789849957	1.21473722591
7	356	776.371885117411	0
7	362	804.13294165697	0
7	365	811.808337935243	0
7	368	817.008129176047	1.105829749961
7	378	829.211167181339	11.755886252551
7	381	831.789860265253	14.217669765209
7	384	842.69931143282	19.061852976292
7	387	843.654352202007	12.145958257098
7	388	850.731420681371	16.663780666017
7	391	851.915520061857	8.537730696511
7	392	853.941198809891	2.595842750075
7	395	868.704436630748	0
7	398	878.544751053541	0
7	401	887.981957247444	0
7	404	888.459246410919	0.06078567788
7	407	890.884252885326	0
7	410	901.853393344468	0
7	413	902.781716807732	0.527552814552
7	419	916.826290637727	1.677118188589
7	422	923.087460793294	0
7	425	926.920114016937	0
7	430	934.829173790326	6.963900884483
7	431	937.257734089506	6.274695633339
7	436	950.416152142903	11.03230222373
7	437	953.613021103257	5.588744522875
7	455	985.054407011743	29.138972749018
7	458	993.149636950943	22.349269046994
7	459	993.198286086088	10.891399106815
7	460	995.353941351592	11.823488826878
7	461	998.915587527633	12.035620116901
7	464	1010.992334053645	0
7	467	1021.313715227685	0
7	470	1022.6259836691	0.370138962217
7	473	1031.154393004607	0
7	480	1036.293539782745	5.004670515295
7	481	1037.041903252681	3.816846754058
7	482	1037.358647918333	1.698694469814
7	485	1039.210975283748	0.659152077906
7	490	1048.550298944899	5.158141208341
7	491	1050.456610415242	5.037356817894
7	508	1073.066762001159	14.27118343121
7	509	1075.457224382373	16.414337216224
7	510	1079.039365190277	17.052038942554
7	511	1079.185491639175	16.444000271222
7	512	1080.209773111464	14.519220603493
7	515	1088.20665058496	0
7	518	1093.790144645303	2.853191804144
7	521	1140.475554567249	0
7	524	1141.601879095854	0
7	530	1157.494283946164	0
7	533	1159.506583065727	0
7	536	1162.105876354364	2.518178149511
7	542	1181.930640896007	0
7	545	1182.152906295878	0
7	550	1185.533475594188	2.76460844925
7	553	1188.138982400354	3.169383177847
7	558	1196.62869862557	9.844318028204
7	561	1200.511414864515	8.368048263482
7	562	1201.229657837013	8.709142874338
7	563	1203.35649052533	3.373043063008
7	566	1211.805728267594	0
7	569	1223.873945092779	0
7	574	1230.317886813059	5.573448132045
7	575	1230.442123473483	3.217720932018
7	590	1283.134982159143	1.403588359441
7	593	1288.810266778806	0
7	596	1289.987153130249	0
7	601	1302.13121731194	11.878366128898
7	604	1310.932320612096	14.540818859364
7	609	1318.327075885175	15.180475849549
7	610	1318.887312107562	6.614227296718
7	611	1322.321863429836	5.932738672187
7	614	1346.850799411842	0
7	617	1349.910499698322	1.11380344275
7	620	1356.337181890864	0
7	626	1384.787550339199	0
7	629	1393.455638340852	0
7	632	1404.837660001241	8.458988082902
7	637	1431.025321838315	26.026725833428
7	638	1431.61078066826	0.885389061322
7	644	1452.039160495682	0
7	647	1466.510899405055	0
7	650	1491.916215156343	0
7	653	1497.066978577859	0
7	659	1508.306218725264	4.084464237917
7	662	1509.634805061608	0
7	665	1511.003366802174	0.831872471665
7	671	1520.527234707304	0
7	677	1524.96445812091	0
7	680	1525.327820162718	0
7	686	1541.927362075327	0.097853983891
7	689	1543.305623777763	0.029539922979
7	692	1560.585597844298	0
7	698	1570.658007599415	0
7	701	1595.824246247895	0
7	704	1622.495889256859	0
7	707	1625.163419539754	1.520668048812
7	710	1633.032949652409	2.104285670718
7	713	1653.684944445692	0
7	716	1669.074259599486	0
7	719	1677.360257209685	0
7	722	1696.172959194833	0
7	725	1698.555926067567	0
7	728	1704.782476265048	3.728496493635
7	731	1708.839332401317	0
7	734	1721.058067293559	0
7	737	1724.685083098027	1.723479643264
7	740	1728.03176136807	0.893973842769
7	743	1728.733597568893	0
7	746	1730.093735591804	0
7	778	1806.994435894776	63.936345402245
7	779	1807.223369462727	43.829490786506
7	780	1811.874889652353	46.12672027621
7	781	1812.541202367619	36.747803934533
7	782	1814.085033998266	38.068258463142
7	785	1822.49380961982	33.216750241943
7	786	1823.310923606499	24.199713247083
7	787	1823.98815559546	23.428736955286
7	788	1826.015049401513	8.451098903414
7	795	1834.640098248142	3.935091853692
7	796	1840.16475451286	9.164672571968
7	806	1863.088312821171	31.077402874028
7	809	1870.263907908523	20.594169993423
7	814	1874.640542508675	20.224174857262
7	815	1881.529118625908	19.299531942777
7	816	1884.287829588068	17.449569414133
7	817	1887.813425662561	16.818778412286
7	820	1895.018969582736	20.966072841521
7	821	1895.820982627844	2.122676965489
7	824	1902.223756384232	1.764166677895
7	834	1915.811408999142	11.331458236703
7	837	1924.25336740849	18.930580254224
7	838	1927.755997840536	15.199606037228
7	839	1930.685895775733	7.651543948004
7	845	1951.806771612204	0
7	848	1961.866252201993	0
7	851	1970.293660341468	0
7	854	1973.607775948638	0
7	859	1976.630271260843	2.888613760276
7	860	1979.479336932901	4.92532813101
7	863	1984.355188473751	2.546700347749
7	869	1989.469899896957	0
7	872	1993.598979995522	0
7	875	1995.919065059989	0
7	878	2004.326278879681	7.144261973644
7	884	2024.339075712373	0
7	887	2028.503767400147	0
7	890	2042.844716623217	0
7	893	2047.370582727142	0
7	896	2055.676399834504	0
7	899	2066.310848008636	0
7	902	2067.669510014566	0.890132115105
7	915	2098.782475501458	4.513995180748
7	916	2099.925236854708	5.613264603625
7	917	2100.343192994741	3.806348255008
7	926	2138.514278530275	7.090650868663
7	929	2141.792847759091	0.592848379687
7	932	2146.335326496691	0
7	935	2148.0452512445	0
7	938	2151.136001806825	0
7	943	2156.873637958018	5.218363200154
7	944	2163.956602182537	11.958905807419
7	947	2164.283701126451	0.259998478179
7	950	2172.73856060341	2.637905025304
7	953	2175.835942713852	0
7	974	2215.85055905288	32.596894742264
7	975	2216.603714490887	30.151975130845
7	980	2224.434114878144	34.162923519781
7	981	2224.911200315211	29.449368569658
7	982	2236.647197470884	18.528337491502
7	983	2240.171317233917	15.983182476605
7	989	2282.880082712992	0
7	995	2298.569973153469	0
7	998	2305.584008865002	0
7	1001	2327.57412025814	0
7	1010	2355.384984240619	0
7	1019	2376.486105303005	2.130789333018
7	1022	2378.768449697843	0
7	1025	2381.829432356643	0
7	1028	2385.367600433471	0
7	1031	2398.60852433365	0
7	1036	2405.995581444481	6.159218368676
7	1037	2407.375134478604	5.167896744241
7	1040	2409.211959451779	0.989925730518
7	1043	2418.017793774835	0
7	1063	2472.902792285285	16.748861415871
7	1064	2474.718839545927	11.055678823057
7	1065	2474.736757388741	4.781118991615
7	1066	2479.722154604822	8.196606954468
7	1067	2480.35817145704	8.502821164933
7	1070	2481.550220269072	0.391609306752
7	1076	2491.824172234539	0
8	160	364.529934349929	32
8	163	367.267591625815	33
8	166	371.038990240569	34
8	167	371.411282749762	35
8	187	411.591657932818	36
8	188	416.027927127705	37
8	191	417.726456634226	38
8	192	418.055146658345	39
8	198	425.954216832226	40
8	202	431.632007096192	41
8	203	431.794949872707	42
8	212	442.028038434557	43
8	219	447.641788737749	44
8	238	469.187099181345	45
8	239	469.856905880609	46
8	240	472.980646234864	47
8	241	477.080786523842	48
8	242	482.541103833029	49
8	243	483.118701531361	50
8	244	483.671538090322	51
8	245	484.34909868605	52
8	248	485.407981255668	53
8	249	485.666910767682	54
8	255	520.648742373453	55
8	264	551.990557185998	56
8	269	562.310817843202	57
8	270	566.771258819914	58
8	283	584.86294115274	59
8	284	586.75217452058	60
8	285	587.819333752279	61
8	291	594.485992633256	62
8	297	610.158629652696	63
8	300	619.237415125695	64
8	309	647.518216168691	65
8	315	683.08333504986	66
8	318	695.425474044232	67
8	323	703.93550990199	68
8	324	704.454471262113	69
8	327	713.451634418912	70
8	330	718.595555202888	71
8	333	726.103005543451	72
8	341	761.714075646062	73
8	344	766.413112393949	74
8	350	768.817849149805	75
8	354	772.849943872386	76
8	357	776.954185474849	77
8	363	807.320703751133	78
8	381	831.789860265253	79
8	384	842.69931143282	80
8	387	843.654352202007	81
8	388	850.731420681371	82
8	392	853.941198809891	83
8	393	855.00270152917	84
8	396	875.76407060067	85
8	399	878.665164279163	86
8	404	888.459246410919	87
8	405	890.517304702892	88
8	408	893.027050549437	89
8	413	902.781716807732	90
8	414	903.739193934506	91
8	420	917.831044609144	92
8	423	924.400137950507	93
8	430	934.829173790326	94
8	431	937.257734089506	95
8	437	953.613021103257	96
8	459	993.198286086088	97
8	460	995.353941351592	98
8	461	998.915587527633	99
8	462	1000.150590914559	100
8	465	1011.844414229726	101
8	470	1022.6259836691	102
8	471	1022.795652148797	103
8	480	1036.293539782745	104
8	481	1037.041903252681	105
8	482	1037.358647918333	106
8	485	1039.210975283748	107
8	490	1048.550298944899	108
8	491	1050.456610415242	109
8	492	1050.773996465707	110
8	509	1075.457224382373	111
8	510	1079.039365190277	112
8	511	1079.185491639175	113
8	512	1080.209773111464	114
8	513	1080.961958485413	115
8	518	1093.790144645303	116
8	519	1101.644922754756	117
8	522	1140.795913314936	118
8	525	1141.854412133311	119
8	531	1159.024808699946	120
8	536	1162.105876354364	121
8	537	1164.519573938772	122
8	543	1182.083912412165	123
8	550	1185.533475594188	124
8	553	1188.138982400354	125
8	558	1196.62869862557	126
8	562	1201.229657837013	127
8	563	1203.35649052533	128
8	564	1205.983985922777	129
8	567	1212.442149910848	130
8	575	1230.442123473483	131
8	576	1235.079584408334	132
8	591	1284.237870875302	133
8	594	1289.328292162062	134
8	604	1310.932320612096	135
8	609	1318.327075885175	136
8	610	1318.887312107562	137
8	611	1322.321863429836	138
8	612	1322.976692690145	139
8	617	1349.910499698322	140
8	618	1353.104049819459	141
8	621	1357.037189833105	142
8	627	1387.852707622743	143
8	638	1431.61078066826	144
8	639	1432.979796168589	145
8	645	1454.679959719258	146
8	648	1469.774556262693	147
8	651	1493.713249033973	148
8	654	1497.865406998285	149
8	660	1509.165879673246	150
8	665	1511.003366802174	151
8	666	1512.368938512066	152
8	672	1520.550275297798	153
8	678	1525.205254299632	154
8	681	1526.243765826449	155
8	689	1543.305623777763	156
8	690	1547.221469318622	157
8	693	1562.118585917377	158
8	699	1571.56756733818	159
8	702	1596.072347906401	160
8	707	1625.163419539754	161
8	711	1634.774412979453	162
8	714	1656.47999924025	163
8	717	1669.230623098123	164
8	720	1678.449523029809	165
8	723	1696.181891216237	166
8	728	1704.782476265048	167
8	729	1705.081291675254	168
8	732	1710.694662462821	169
8	737	1724.685083098027	170
8	740	1728.03176136807	171
8	741	1728.370339476354	172
8	744	1729.258434568832	173
8	747	1730.761033982678	174
8	779	1807.223369462727	175
8	780	1811.874889652353	176
8	781	1812.541202367619	177
8	782	1814.085033998266	178
8	786	1823.310923606499	179
8	787	1823.98815559546	180
8	788	1826.015049401513	181
8	796	1840.16475451286	182
8	809	1870.263907908523	183
8	815	1881.529118625908	184
8	816	1884.287829588068	185
8	817	1887.813425662561	186
8	821	1895.820982627844	187
8	824	1902.223756384232	188
8	837	1924.25336740849	189
8	838	1927.755997840536	190
8	839	1930.685895775733	191
8	840	1932.719771861071	192
8	846	1951.917615479134	193
8	849	1964.141398945955	194
8	852	1970.501484169003	195
8	860	1979.479336932901	196
8	864	1985.297626563492	197
8	870	1993.549625257779	198
8	873	1994.441093574769	199
8	878	2004.326278879681	200
8	879	2005.145266994006	201
8	885	2024.556044103042	202
8	888	2034.375629411248	203
8	891	2043.461890028947	204
8	894	2053.273282769217	205
8	897	2056.177917060154	206
8	902	2067.669510014566	207
8	903	2068.390198556557	208
8	916	2099.925236854708	209
8	917	2100.343192994741	210
8	918	2100.976552275653	211
8	929	2141.792847759091	212
8	930	2143.278181720977	213
8	933	2148.005394152831	214
8	936	2149.457309784357	215
8	944	2163.956602182537	216
8	947	2164.283701126451	217
8	951	2175.208900973705	218
8	954	2176.710798618959	219
8	975	2216.603714490887	220
8	981	2224.911200315211	221
8	982	2236.647197470884	222
8	983	2240.171317233917	223
8	984	2240.922078248552	224
8	990	2283.566720952842	225
8	996	2298.62512083104	226
8	999	2306.547569238207	227
8	1002	2330.366722554622	228
8	1011	2357.878426390273	229
8	1020	2378.422968839186	230
8	1023	2381.018109994078	231
8	1026	2385.205913677027	232
8	1029	2390.436285030338	233
8	1036	2405.995581444481	234
8	1037	2407.375134478604	235
8	1040	2409.211959451779	236
8	1041	2409.491468484173	237
8	1044	2423.566084807603	238
8	1064	2474.718839545927	239
8	1065	2474.736757388741	240
8	1066	2479.722154604822	241
8	1067	2480.35817145704	242
8	1070	2481.550220269072	243
8	1071	2481.892597892505	244
8	1077	2492.883436602667	245
9	160	364.529934349929	7.419660588202
9	163	367.267591625815	6.485245062561
9	166	371.038990240569	10.138203716771
9	167	371.411282749762	5.600829181404
9	187	411.591657932818	38.818226189063
9	188	416.027927127705	39.905539855836
9	191	417.726456634226	33.09889682912
9	192	418.055146658345	32.220733630531
9	198	425.954216832226	24.772308307433
9	202	431.632007096192	12.516201928286
9	203	431.794949872707	11.725346609385
9	212	442.028038434557	9.499469177689
9	219	447.641788737749	9.648467980684
9	238	469.187099181345	24.05151426469
9	239	469.856905880609	20.87274323535
9	240	472.980646234864	23.579156487886
9	241	477.080786523842	25.859333745898
9	242	482.541103833029	29.234819142232
9	243	483.118701531361	28.542213063824
9	244	483.671538090322	23.468542630958
9	245	484.34909868605	19.710411806783
9	248	485.407981255668	18.184093708704
9	249	485.666910767682	0.835836959111
9	255	520.648742373453	1.912878289851
9	264	551.990557185998	22.821127736461
9	269	562.310817843202	9.608980181014
9	270	566.771258819914	8.947260621419
9	283	584.86294115274	6.964912386628
9	284	586.75217452058	3.651308329972
9	285	587.819333752279	4.391553865774
9	291	594.485992633256	2.467749538824
9	297	610.158629652696	2.07108849509
9	300	619.237415125695	0.703876103599
9	309	647.518216168691	5.323514702508
9	315	683.08333504986	0.104184225677
9	318	695.425474044232	0.274616973943
9	323	703.93550990199	4.968031597139
9	324	704.454471262113	2.877079095543
9	327	713.451634418912	0.259640615081
9	330	718.595555202888	0.102872165111
9	333	726.103005543451	3.538957435126
9	341	761.714075646062	0.685819980649
9	344	766.413112393949	4.925203361853
9	350	768.817849149805	1.933426663968
9	354	772.849943872386	3.180891248339
9	357	776.954185474849	0.582300357438
9	363	807.320703751133	3.187762094163
9	381	831.789860265253	14.334579336465
9	384	842.69931143282	25.127120932776
9	387	843.654352202007	20.016893745479
9	388	850.731420681371	19.223026736462
9	392	853.941198809891	10.563409444545
9	393	855.00270152917	3.657345469354
9	396	875.76407060067	7.059633969922
9	399	878.665164279163	0.120413225622
9	404	888.459246410919	0.477289163475
9	405	890.517304702892	2.118843969853
9	408	893.027050549437	2.142797664111
9	413	902.781716807732	0.928323463264
9	414	903.739193934506	1.485029941326
9	420	917.831044609144	2.681872160006
9	423	924.400137950507	1.312677157213
9	430	934.829173790326	7.909059773389
9	431	937.257734089506	9.392461183663
9	437	953.613021103257	14.229171184084
9	459	993.198286086088	22.397918182139
9	460	995.353941351592	13.047054372319
9	461	998.915587527633	15.385135002919
9	462	1000.150590914559	13.270623503827
9	465	1011.844414229726	0.852080176081
9	470	1022.6259836691	1.312268441415
9	471	1022.795652148797	0.539807441914
9	480	1036.293539782745	5.139146778138
9	481	1037.041903252681	5.753033985231
9	482	1037.358647918333	4.13359141971
9	485	1039.210975283748	3.551021835229
9	490	1048.550298944899	9.998475739057
9	491	1050.456610415242	7.064452678684
9	492	1050.773996465707	5.354742868359
9	509	1075.457224382373	16.661645812424
9	510	1079.039365190277	19.996478024128
9	511	1079.185491639175	17.198165391452
9	512	1080.209773111464	17.468281743511
9	513	1080.961958485413	15.271405977442
9	518	1093.790144645303	5.583494060343
9	519	1101.644922754756	10.707969913597
9	522	1140.795913314936	0.320358747687
9	525	1141.854412133311	0.252533037457
9	531	1159.024808699946	1.530524753782
9	536	1162.105876354364	2.599293288637
9	537	1164.519573938772	4.931875733919
9	543	1182.083912412165	0.153271516158
9	550	1185.533475594188	3.38056929831
9	553	1188.138982400354	5.370115255416
9	558	1196.62869862557	11.659099403063
9	562	1201.229657837013	9.08629123598
9	563	1203.35649052533	10.835975562655
9	564	1205.983985922777	6.000538460455
9	567	1212.442149910848	0.636421643254
9	575	1230.442123473483	5.697684792469
9	576	1235.079584408334	7.855181866869
9	591	1284.237870875302	2.5064770756
9	594	1289.328292162062	0.518025383256
9	604	1310.932320612096	20.679469429054
9	609	1318.327075885175	21.935574132443
9	610	1318.887312107562	15.740712071936
9	611	1322.321863429836	10.048778618992
9	612	1322.976692690145	6.587567932496
9	617	1349.910499698322	3.05970028648
9	618	1353.104049819459	4.307353563887
9	621	1357.037189833105	0.700007942241
9	627	1387.852707622743	3.065157283544
9	638	1431.61078066826	26.612184663373
9	639	1432.979796168589	2.254404561651
9	645	1454.679959719258	2.640799223576
9	648	1469.774556262693	3.263656857638
9	651	1493.713249033973	1.79703387763
9	654	1497.865406998285	0.798428420426
9	660	1509.165879673246	4.944125185899
9	665	1511.003366802174	1.368561740566
9	666	1512.368938512066	2.197444181557
9	672	1520.550275297798	0.023040590494
9	678	1525.205254299632	0.240796178722
9	681	1526.243765826449	0.915945663731
9	689	1543.305623777763	1.476115686327
9	690	1547.221469318622	3.945385463838
9	693	1562.118585917377	1.532988073079
9	699	1571.56756733818	0.909559738765
9	702	1596.072347906401	0.248101658506
9	707	1625.163419539754	2.667530282895
9	711	1634.774412979453	3.845748997762
9	714	1656.47999924025	2.795054794558
9	717	1669.230623098123	0.156363498637
9	720	1678.449523029809	1.089265820124
9	723	1696.181891216237	0.008932021404
9	728	1704.782476265048	6.226550197481
9	729	1705.081291675254	4.027311903841
9	732	1710.694662462821	1.855330061504
9	737	1724.685083098027	3.627015804468
9	740	1728.03176136807	5.070157913307
9	741	1728.370339476354	1.232551951053
9	744	1729.258434568832	0.524836999939
9	747	1730.761033982678	0.667298390874
9	779	1807.223369462727	64.165278970196
9	780	1811.874889652353	48.481010976132
9	781	1812.541202367619	46.793032991476
9	782	1814.085033998266	38.29163556518
9	786	1823.310923606499	34.033864228622
9	787	1823.98815559546	24.876945236044
9	788	1826.015049401513	25.455630761339
9	796	1840.16475451286	9.45974811841
9	809	1870.263907908523	38.25299796138
9	815	1881.529118625908	27.112750974495
9	816	1884.287829588068	22.058242904937
9	817	1887.813425662561	20.975165488626
9	821	1895.820982627844	21.768085886629
9	824	1902.223756384232	8.525450721877
9	837	1924.25336740849	19.773416646051
9	838	1927.755997840536	22.43321068627
9	839	1930.685895775733	18.129503972425
9	840	1932.719771861071	9.685420033342
9	846	1951.917615479134	0.11084386693
9	849	1964.141398945955	2.275146743962
9	852	1970.501484169003	0.207823827535
9	860	1979.479336932901	5.737679432334
9	864	1985.297626563492	3.48913843749
9	870	1993.549625257779	4.079725360822
9	873	1994.441093574769	0.842113579247
9	878	2004.326278879681	8.407213819692
9	879	2005.145266994006	7.963250087969
9	885	2024.556044103042	0.216968390669
9	888	2034.375629411248	5.871862011101
9	891	2043.461890028947	0.61717340573
9	894	2053.273282769217	5.902700042075
9	897	2056.177917060154	0.50151722565
9	902	2067.669510014566	1.35866200593
9	903	2068.390198556557	1.610820657096
9	916	2099.925236854708	5.656756533998
9	917	2100.343192994741	6.031220743658
9	918	2100.976552275653	4.43970753592
9	929	2141.792847759091	10.369220097479
9	930	2143.278181720977	2.078182341573
9	933	2148.005394152831	1.67006765614
9	936	2149.457309784357	1.412058539857
9	944	2163.956602182537	12.301327424673
9	947	2164.283701126451	12.286004751333
9	951	2175.208900973705	5.108245395599
9	954	2176.710798618959	0.874855905107
9	975	2216.603714490887	33.350050180271
9	981	2224.911200315211	34.640008956848
9	982	2236.647197470884	41.185365725331
9	983	2240.171317233917	22.052457254535
9	984	2240.922078248552	16.73394349124
9	990	2283.566720952842	0.68663823985
9	996	2298.62512083104	0.055147677571
9	999	2306.547569238207	0.963560373205
9	1002	2330.366722554622	2.792602296482
9	1011	2357.878426390273	2.493442149654
9	1020	2378.422968839186	4.067652869199
9	1023	2381.018109994078	2.249660296235
9	1026	2385.205913677027	3.376481320384
9	1029	2390.436285030338	5.068684596867
9	1036	2405.995581444481	7.387057110831
9	1037	2407.375134478604	7.538771402799
9	1040	2409.211959451779	7.004721717416
9	1041	2409.491468484173	1.269434762912
9	1044	2423.566084807603	5.548291032768
9	1064	2474.718839545927	18.564908676513
9	1065	2474.736757388741	11.073596665871
9	1066	2479.722154604822	9.766516207696
9	1067	2480.35817145704	8.832623806686
9	1070	2481.550220269072	9.694869976965
9	1071	2481.892597892505	0.733986930185
9	1077	2492.883436602667	1.059264368128
10	169	372.773431743755	7
10	194	419.115805167906	8
10	200	428.285912979846	9
10	205	432.020690320547	10
10	210	437.993320757065	11
10	221	448.984162645259	12
10	228	453.306284690797	13
10	346	766.884422485837	14
10	352	769.669052624047	15
10	367	815.902299426086	16
10	372	817.572190500044	17
10	390	851.345356059816	18
10	433	939.383849919173	19
10	439	955.915434262725	20
10	457	986.879967410732	21
10	560	1199.983447462322	22
10	573	1227.224402541465	23
10	600	1296.391501752732	24
10	631	1396.378671918339	25
10	634	1404.998596004887	26
10	709	1630.928663981691	27
10	784	1817.563950498099	28
10	792	1831.000081940892	29
10	798	1849.6697379151	30
10	811	1870.994647250275	31
10	819	1893.698305662355	32
10	826	1904.479950762439	33
10	858	1974.554008801891	34
10	862	1981.808488126002	35
10	940	2151.655274757864	36
10	949	2170.100655578106	37
10	977	2218.118859979382	38
11	1078	2500	0.098
12	1078	2500	0.0456

