version 2
run experiments_easy_game_mode1-378-20230308-12:03:13-20298
attr configname experiments_easy_game_mode1
attr datetime 20230308-12:03:13
attr experiment experiments_easy_game_mode1
attr inifile omnetpp.ini
attr iterationvars "$0=5.5, $1=1, $2=0"
attr iterationvarsf 5.5,1,0-
attr measurement "$0=5.5, $1=1, $2=0"
attr network Network
attr processid 20298
attr repetition 18
attr replication #18
attr resultdir results
attr runnumber 378
attr seedset 18
param *.boss.arrival_mean 20
param *.boss.service_mean 5.5
param *.minion.arrival_mean 10
param *.minion.service_mean 1
param *.player.recover_rate_x 0
param **.minion.arrival_distribution 0
param **.minion.service_distribution 0
param **.boss.arrival_distribution 0
param **.boss.service_distribution 0

vector 0 Network.player boss_jobs_number_stat:vector ETV
attr source signal_boss_jobs_number
vector 1 Network.player boss_jobs_queue_number_stat:vector ETV
attr source signal_boss_jobs_queue_number
vector 2 Network.player boss_waiting_time_stat:vector ETV
attr source signal_boss_waiting_time
vector 3 Network.player minion_jobs_number_stat:vector ETV
attr source signal_minion_jobs_number
vector 4 Network.player minion_jobs_queue_number_stat:vector ETV
attr source signal_minion_jobs_queue_number
vector 5 Network.player boss_defeated_stat:vector ETV
attr source signal_boss_defeated
vector 6 Network.player boss_response_time_stat:vector ETV
attr source signal_boss_response_time
vector 7 Network.player minion_waiting_time_stat:vector ETV
attr source signal_minion_waiting_time
vector 8 Network.player minion_defeated_stat:vector ETV
attr source signal_minion_defeated
vector 9 Network.player minion_response_time_stat:vector ETV
attr source signal_minion_response_time
vector 10 Network.player minion_recovered_stat:vector ETV
attr source signal_minion_recovered
vector 11 Network.player minion_throughput:vector ETV
attr source signal_minion_throughput
vector 12 Network.player boss_throughput:vector ETV
attr source signal_boss_throughput
0	146	352.65760743913	1
0	152	359.293699558628	1
0	155	361.689670555923	1
0	179	423.510220605586	1
0	194	464.310329824607	1
0	206	490.311357624162	1
0	215	503.252965294132	1
0	219	507.787385408353	2
0	224	509.460907223688	2
0	231	515.59083765368	2
0	233	518.812306809382	3
0	240	528.789657893763	3
0	243	536.621619676878	3
0	247	539.876371230947	4
0	249	540.011977590143	5
0	275	576.409290106954	1
0	284	601.646983798841	1
0	299	620.5673933378	1
0	301	621.913209437982	2
0	314	646.35204339536	1
0	317	657.379640067769	1
0	344	733.174320689637	1
0	353	765.857088538859	1
0	383	831.36383180455	1
0	385	831.962629369746	2
0	392	850.840600045191	2
0	398	865.76178541671	3
0	416	901.223484359462	1
0	437	932.184322298713	1
0	440	937.929585530627	1
0	455	971.342649776712	1
0	467	983.072545625181	1
0	470	991.427067730116	1
0	479	1015.605515033844	1
0	487	1025.81114179477	1
0	518	1109.798972014767	1
0	530	1149.457133924026	1
0	551	1196.526696454582	1
0	553	1196.569454728748	2
0	557	1210.285144495441	1
0	559	1213.98675580795	2
0	566	1231.630065478987	2
0	570	1241.308179746611	3
0	587	1263.189796643971	1
0	601	1281.513172219529	1
0	605	1292.096612948606	1
0	611	1294.89263798076	2
0	613	1295.723033753267	3
0	615	1296.428746356222	4
0	617	1297.941004178685	5
0	629	1322.14802534089	2
0	631	1323.120498050406	3
0	641	1338.292960251381	4
0	674	1384.918681491055	1
0	680	1412.519964056525	1
0	689	1429.644800299848	1
0	691	1432.943823798201	2
0	703	1454.825693868242	1
0	705	1456.237201907714	2
0	709	1463.501273298819	3
0	717	1476.895200702336	2
0	721	1478.65248867971	3
0	728	1493.942844496456	3
0	742	1513.068384497825	1
0	752	1530.316331484607	1
0	794	1626.275814319071	1
0	803	1648.090529582688	1
0	805	1648.406833864499	2
0	812	1660.09057612624	1
0	817	1673.738745992098	1
0	820	1676.701949053993	1
0	822	1677.810560318481	2
0	825	1682.363952277894	2
0	830	1701.700788650236	2
0	833	1706.668184001908	2
0	850	1748.582026119455	1
0	872	1779.095334613409	1
0	884	1801.263659048677	1
0	893	1825.874136888878	1
0	899	1830.294960282079	1
0	905	1845.141402175686	1
0	914	1885.574877957284	1
0	950	1962.87460879635	1
0	959	2024.60862566707	1
0	961	2030.819784934859	2
0	968	2055.285658945094	1
0	983	2081.351597619549	1
0	995	2096.782173260599	1
0	1001	2106.087901989699	1
0	1025	2154.144294006872	1
0	1034	2167.364661838233	1
0	1040	2176.992351096176	1
0	1049	2206.891406240519	1
0	1061	2247.512079356014	1
0	1070	2306.924212961346	1
0	1076	2348.186366084548	1
0	1085	2370.15674638938	1
0	1109	2425.111267728735	1
0	1121	2451.626198357569	1
0	1127	2469.476608553846	1
0	1133	2490.238705866935	1
0	1135	2494.252370332495	2
0	1137	2494.636027121347	3
1	146	352.65760743913	0
1	149	355.234957148056	0
1	152	359.293699558628	0
1	153	359.601323760454	0
1	155	361.689670555923	0
1	158	376.604513839375	0
1	179	423.510220605586	0
1	182	427.625190107073	0
1	194	464.310329824607	0
1	195	470.055219099707	0
1	206	490.311357624162	0
1	209	495.533859992509	0
1	215	503.252965294132	0
1	219	507.787385408353	1
1	222	509.380543972085	1
1	224	509.460907223688	1
1	225	513.397481993815	1
1	231	515.59083765368	1
1	233	518.812306809382	2
1	238	528.14846014183	2
1	240	528.789657893763	2
1	241	535.520168142736	2
1	243	536.621619676878	2
1	247	539.876371230947	3
1	249	540.011977590143	4
1	250	541.617614045256	4
1	253	546.823330896409	3
1	254	548.276033152219	2
1	257	552.423354274662	1
1	258	554.048558227707	0
1	275	576.409290106954	0
1	276	578.708725978218	0
1	284	601.646983798841	0
1	287	603.048833145662	0
1	299	620.5673933378	0
1	301	621.913209437982	1
1	302	623.312725323997	1
1	303	623.775514456228	0
1	314	646.35204339536	0
1	315	651.574212194976	0
1	317	657.379640067769	0
1	320	658.498016789084	0
1	344	733.174320689637	0
1	345	736.631905603406	0
1	353	765.857088538859	0
1	356	772.956489092589	0
1	383	831.36383180455	0
1	385	831.962629369746	1
1	386	832.084235689485	1
1	392	850.840600045191	1
1	398	865.76178541671	2
1	401	869.708038973638	2
1	402	872.217186197593	1
1	403	873.067023519333	0
1	416	901.223484359462	0
1	417	906.058937386884	0
1	437	932.184322298713	0
1	438	933.555949632523	0
1	440	937.929585530627	0
1	441	939.040782405726	0
1	455	971.342649776712	0
1	456	973.137617073512	0
1	467	983.072545625181	0
1	468	987.491051566223	0
1	470	991.427067730116	0
1	475	998.98733540028	0
1	479	1015.605515033844	0
1	480	1016.602754939575	0
1	487	1025.81114179477	0
1	494	1047.461437729863	0
1	518	1109.798972014767	0
1	521	1113.621691236613	0
1	530	1149.457133924026	0
1	535	1157.734940807631	0
1	551	1196.526696454582	0
1	553	1196.569454728748	1
1	554	1201.557482907776	1
1	555	1208.090998229455	0
1	557	1210.285144495441	0
1	559	1213.98675580795	1
1	562	1227.096688861015	1
1	566	1231.630065478987	1
1	570	1241.308179746611	2
1	571	1243.405832947714	2
1	572	1246.274865932309	1
1	573	1246.720616134271	0
1	587	1263.189796643971	0
1	592	1274.768549982331	0
1	601	1281.513172219529	0
1	602	1282.810099482965	0
1	605	1292.096612948606	0
1	611	1294.89263798076	1
1	613	1295.723033753267	2
1	615	1296.428746356222	3
1	617	1297.941004178685	4
1	618	1298.294435649831	4
1	619	1304.317239088538	3
1	622	1307.090084539414	2
1	627	1315.92484113241	1
1	629	1322.14802534089	1
1	631	1323.120498050406	2
1	641	1338.292960251381	3
1	642	1343.036165414318	3
1	645	1348.629972671147	2
1	646	1350.785852798235	1
1	647	1350.972115952691	0
1	674	1384.918681491055	0
1	675	1392.216063043291	0
1	680	1412.519964056525	0
1	681	1414.366547870212	0
1	689	1429.644800299848	0
1	691	1432.943823798201	1
1	698	1452.606357255023	1
1	699	1453.096060114614	0
1	703	1454.825693868242	0
1	705	1456.237201907714	1
1	709	1463.501273298819	2
1	710	1464.193529024495	2
1	713	1475.64236497073	1
1	717	1476.895200702336	1
1	721	1478.65248867971	2
1	722	1480.905334247555	2
1	728	1493.942844496456	2
1	729	1497.927375492147	2
1	730	1501.180008506103	1
1	731	1508.349101713036	0
1	742	1513.068384497825	0
1	745	1519.518468483332	0
1	752	1530.316331484607	0
1	753	1530.457083057754	0
1	794	1626.275814319071	0
1	797	1631.468441287402	0
1	803	1648.090529582688	0
1	805	1648.406833864499	1
1	806	1655.839988929356	1
1	809	1657.286311414843	0
1	812	1660.09057612624	0
1	815	1672.321663513372	0
1	817	1673.738745992098	0
1	818	1675.648405974112	0
1	820	1676.701949053993	0
1	822	1677.810560318481	1
1	823	1678.39688832282	1
1	825	1682.363952277894	1
1	826	1687.498560033863	1
1	830	1701.700788650236	1
1	831	1702.23295380425	1
1	833	1706.668184001908	1
1	834	1707.029610587871	1
1	835	1709.909000715347	0
1	850	1748.582026119455	0
1	851	1752.243059334305	0
1	872	1779.095334613409	0
1	875	1782.045710407393	0
1	884	1801.263659048677	0
1	885	1803.573274782576	0
1	893	1825.874136888878	0
1	894	1827.08715121635	0
1	899	1830.294960282079	0
1	900	1834.504431711958	0
1	905	1845.141402175686	0
1	908	1868.487279996237	0
1	914	1885.574877957284	0
1	915	1885.649815574593	0
1	950	1962.87460879635	0
1	951	1964.941783272595	0
1	959	2024.60862566707	0
1	961	2030.819784934859	1
1	962	2032.313472936383	1
1	963	2033.39842386356	0
1	968	2055.285658945094	0
1	971	2060.448008835701	0
1	983	2081.351597619549	0
1	984	2081.415186189532	0
1	995	2096.782173260599	0
1	996	2101.074653323877	0
1	1001	2106.087901989699	0
1	1004	2114.985262053194	0
1	1025	2154.144294006872	0
1	1026	2156.387466766789	0
1	1034	2167.364661838233	0
1	1037	2171.219808344083	0
1	1040	2176.992351096176	0
1	1041	2180.00307711338	0
1	1049	2206.891406240519	0
1	1052	2210.363850461026	0
1	1061	2247.512079356014	0
1	1062	2250.998991285835	0
1	1070	2306.924212961346	0
1	1071	2315.238156551455	0
1	1076	2348.186366084548	0
1	1077	2349.981298101126	0
1	1085	2370.15674638938	0
1	1086	2371.99028739213	0
1	1109	2425.111267728735	0
1	1110	2431.229172941408	0
1	1121	2451.626198357569	0
1	1122	2452.257036162289	0
1	1127	2469.476608553846	0
1	1128	2476.303549925659	0
1	1133	2490.238705866935	0
1	1135	2494.252370332495	1
1	1137	2494.636027121347	2
2	146	352.65760743913	0
2	152	359.293699558628	0
2	155	361.689670555923	0
2	179	423.510220605586	0
2	194	464.310329824607	0
2	206	490.311357624162	0
2	215	503.252965294132	0
2	222	509.380543972085	1.593158563732
2	225	513.397481993815	3.936574770127
2	238	528.14846014183	12.55762248815
2	241	535.520168142736	16.707861333354
2	250	541.617614045256	12.827956151493
2	253	546.823330896409	10.201711219531
2	254	548.276033152219	8.399661921272
2	257	552.423354274662	12.411376684519
2	275	576.409290106954	0
2	284	601.646983798841	0
2	299	620.5673933378	0
2	302	623.312725323997	1.399515886015
2	314	646.35204339536	0
2	317	657.379640067769	0
2	344	733.174320689637	0
2	353	765.857088538859	0
2	383	831.36383180455	0
2	386	832.084235689485	0.121606319739
2	401	869.708038973638	18.867438928447
2	402	872.217186197593	6.455400780883
2	416	901.223484359462	0
2	437	932.184322298713	0
2	440	937.929585530627	0
2	455	971.342649776712	0
2	467	983.072545625181	0
2	470	991.427067730116	0
2	479	1015.605515033844	0
2	487	1025.81114179477	0
2	518	1109.798972014767	0
2	530	1149.457133924026	0
2	551	1196.526696454582	0
2	554	1201.557482907776	4.988028179028
2	557	1210.285144495441	0
2	562	1227.096688861015	13.109933053065
2	571	1243.405832947714	11.775767468727
2	572	1246.274865932309	4.966686185698
2	587	1263.189796643971	0
2	601	1281.513172219529	0
2	605	1292.096612948606	0
2	618	1298.294435649831	3.401797669071
2	619	1304.317239088538	8.594205335271
2	622	1307.090084539414	10.661338183192
2	627	1315.92484113241	17.983836953725
2	642	1343.036165414318	20.888140073428
2	645	1348.629972671147	25.509474620741
2	646	1350.785852798235	12.492892546854
2	674	1384.918681491055	0
2	680	1412.519964056525	0
2	689	1429.644800299848	0
2	698	1452.606357255023	19.662533456822
2	703	1454.825693868242	0
2	710	1464.193529024495	7.956327116781
2	713	1475.64236497073	12.141091671911
2	722	1480.905334247555	4.010133545219
2	729	1497.927375492147	19.274886812437
2	730	1501.180008506103	7.237164009647
2	742	1513.068384497825	0
2	752	1530.316331484607	0
2	794	1626.275814319071	0
2	803	1648.090529582688	0
2	806	1655.839988929356	7.433155064857
2	812	1660.09057612624	0
2	817	1673.738745992098	0
2	820	1676.701949053993	0
2	823	1678.39688832282	0.586328004339
2	826	1687.498560033863	5.134607755969
2	831	1702.23295380425	0.532165154014
2	834	1707.029610587871	0.361426585963
2	850	1748.582026119455	0
2	872	1779.095334613409	0
2	884	1801.263659048677	0
2	893	1825.874136888878	0
2	899	1830.294960282079	0
2	905	1845.141402175686	0
2	914	1885.574877957284	0
2	950	1962.87460879635	0
2	959	2024.60862566707	0
2	962	2032.313472936383	1.493688001524
2	968	2055.285658945094	0
2	983	2081.351597619549	0
2	995	2096.782173260599	0
2	1001	2106.087901989699	0
2	1025	2154.144294006872	0
2	1034	2167.364661838233	0
2	1040	2176.992351096176	0
2	1049	2206.891406240519	0
2	1061	2247.512079356014	0
2	1070	2306.924212961346	0
2	1076	2348.186366084548	0
2	1085	2370.15674638938	0
2	1109	2425.111267728735	0
2	1121	2451.626198357569	0
2	1127	2469.476608553846	0
2	1133	2490.238705866935	0
3	148	355.05946736505	1
3	157	370.780850023652	1
3	161	386.01824043156	1
3	164	397.684376195028	1
3	167	407.278190585379	1
3	169	407.91544005567	2
3	173	417.79778371846	1
3	176	419.657785982005	1
3	181	424.276063284641	1
3	185	445.699346670034	1
3	188	447.543103794211	1
3	191	460.516704985146	1
3	197	474.19422053615	1
3	200	481.095683169202	1
3	203	486.127831312219	1
3	208	490.485140357307	1
3	212	501.288951545055	1
3	217	505.002956299096	1
3	221	508.839663443019	2
3	227	513.738271046524	3
3	229	514.458292495847	4
3	235	525.229499277953	5
3	237	525.730885217399	6
3	245	537.391873471516	7
3	252	543.219500807899	8
3	256	548.535664666951	9
3	267	560.623706455632	3
3	272	568.939460714816	1
3	278	584.468749162211	1
3	281	599.791279867924	1
3	286	602.50064407349	1
3	290	605.718975695784	1
3	293	616.248476632966	1
3	296	619.18447714698	1
3	305	639.624648878793	1
3	308	641.806301898067	1
3	311	644.169706261645	1
3	319	658.230766056464	1
3	322	659.622136286692	2
3	326	665.804613480816	1
3	329	682.178400840308	1
3	332	700.87674194091	1
3	334	701.285677243009	2
3	338	717.967404583469	1
3	341	722.446726874082	1
3	347	739.610347347772	1
3	350	750.885863105092	1
3	355	769.247020053464	1
3	359	786.806884617963	1
3	362	796.034432044079	1
3	365	801.770196139294	1
3	368	802.643361737249	1
3	371	803.466342464771	1
3	374	821.989938605393	1
3	377	822.971999659924	1
3	380	825.692127493628	1
3	388	837.481048809211	1
3	390	837.528711359265	2
3	394	853.367451096851	3
3	396	864.80791871467	4
3	400	868.699468202168	5
3	410	892.215476562267	1
3	413	896.95419122637	1
3	419	908.783784786466	1
3	422	921.983408396422	1
3	425	923.077491675642	1
3	428	926.313872219769	1
3	431	928.366526091904	1
3	434	931.138786419577	1
3	443	951.775819964726	1
3	446	954.938401825785	1
3	449	960.15791517345	1
3	451	961.941637758824	2
3	458	973.955373969978	1
3	460	974.438970779056	2
3	464	976.208487875792	1
3	472	994.275476802733	1
3	474	998.967850855492	2
3	482	1021.422423220967	1
3	485	1025.61861987627	1
3	489	1034.732109192486	2
3	491	1038.782605635946	3
3	493	1043.159900290471	4
3	500	1064.460086608793	1
3	502	1065.265403748812	2
3	506	1093.886914810011	1
3	509	1095.796884728062	1
3	512	1100.441881947243	1
3	515	1102.411024622887	1
3	520	1110.248847979331	1
3	524	1115.662036455481	1
3	527	1127.991864436109	1
3	532	1150.403494908239	1
3	534	1157.698185414769	2
3	538	1160.726672716901	2
3	542	1179.987550244786	1
3	545	1190.406193379886	1
3	548	1192.060187505366	1
3	561	1214.542207979603	1
3	564	1230.587609546064	2
3	568	1239.074375508244	3
3	578	1257.072305290322	1
3	580	1258.154433461831	2
3	582	1258.463916101759	3
3	589	1268.084140595639	1
3	591	1269.559912571375	2
3	596	1279.343956200392	1
3	599	1281.438934440836	1
3	607	1293.39115214529	1
3	609	1294.09831111435	2
3	621	1306.377084729727	3
3	624	1308.790255576544	4
3	626	1312.306243155178	5
3	633	1325.552127347144	6
3	635	1329.476278199886	7
3	637	1331.977731951153	8
3	639	1335.18914020612	9
3	644	1345.473493177319	10
3	652	1353.837422051082	8
3	654	1355.903882210185	9
3	657	1356.72186603143	9
3	667	1361.4761275669	2
3	671	1367.411236736202	1
3	677	1399.696189430956	1
3	683	1417.078528100198	1
3	685	1420.290782061921	2
3	693	1438.259455455825	1
3	695	1444.792201787484	2
3	697	1449.871614903672	3
3	707	1460.060926220485	2
3	712	1464.592283923065	3
3	715	1476.202711998038	4
3	719	1478.069516448218	5
3	724	1485.640289736562	6
3	726	1487.04370975529	7
3	739	1512.283199849435	2
3	744	1514.492181875754	2
3	749	1525.749158143837	1
3	755	1532.577202008577	1
3	758	1538.005236612714	1
3	761	1551.435827516609	1
3	764	1561.172855466474	1
3	766	1562.687982903677	2
3	770	1576.644626109085	1
3	773	1577.971520441329	1
3	775	1578.224976662378	2
3	779	1580.245655261544	1
3	782	1584.930820075336	1
3	785	1598.806839497624	1
3	788	1609.425566048026	1
3	791	1624.066798678646	1
3	796	1627.508938156312	1
3	800	1644.804533826314	1
3	808	1656.941765470321	1
3	814	1667.440571028196	1
3	828	1696.918963719115	2
3	839	1719.112607261954	1
3	842	1730.314919826024	1
3	845	1747.308895643383	1
3	847	1748.047353153453	2
3	854	1758.501417219979	1
3	856	1759.620362943869	2
3	858	1761.129210365635	3
3	863	1763.813737269511	1
3	866	1770.185782847709	1
3	869	1778.687776808715	1
3	874	1781.263490443706	1
3	877	1783.647511303199	2
3	881	1791.920343721064	1
3	887	1809.927053426328	1
3	890	1824.121326190655	1
3	896	1828.799173711548	1
3	902	1836.776512552437	1
3	907	1863.001971466587	1
3	911	1877.221133022566	1
3	917	1886.960024108163	1
3	920	1894.963428843149	1
3	923	1898.466332015644	1
3	926	1905.001104474535	1
3	929	1918.282732109325	1
3	932	1930.581653249306	1
3	935	1935.826789934323	1
3	938	1942.879357732617	1
3	941	1951.691519557266	1
3	943	1951.845844740435	2
3	947	1955.941756291918	1
3	953	1981.415149903608	1
3	956	1991.932271441198	1
3	965	2036.820239663622	1
3	970	2055.395634036457	1
3	974	2066.336908056797	1
3	977	2068.572735745909	1
3	980	2073.629401755589	1
3	986	2090.373689927269	1
3	989	2091.510531786147	1
3	992	2094.509784816636	1
3	998	2103.10888607586	1
3	1003	2109.544519618569	1
3	1007	2121.370922174609	1
3	1010	2121.865282291356	1
3	1013	2140.760935507749	1
3	1016	2148.408502014201	1
3	1019	2150.88545136286	1
3	1022	2153.152701023359	1
3	1028	2156.826185249186	1
3	1030	2158.885137271309	2
3	1036	2167.645034195839	1
3	1043	2180.820140528645	1
3	1046	2190.617248134383	1
3	1051	2208.631005398133	1
3	1055	2213.327587140208	1
3	1058	2229.887447686045	1
3	1064	2260.949383513056	1
3	1067	2299.27861517504	1
3	1073	2325.819276184382	1
3	1079	2354.169776292782	1
3	1082	2363.140470416597	1
3	1088	2372.742441384221	1
3	1091	2376.357023247149	1
3	1094	2387.929246926715	1
3	1096	2388.368622764903	2
3	1100	2399.324458944691	1
3	1103	2416.76104363929	1
3	1106	2420.683923370384	1
3	1112	2433.483901769592	1
3	1115	2436.064121627286	1
3	1118	2449.110225251561	1
3	1124	2452.839439866003	1
3	1130	2485.429838161415	1
4	148	355.05946736505	0
4	150	355.538730075528	0
4	157	370.780850023652	0
4	159	377.191963564209	0
4	161	386.01824043156	0
4	162	388.108457592335	0
4	164	397.684376195028	0
4	165	397.938310513626	0
4	167	407.278190585379	0
4	169	407.91544005567	1
4	170	409.792428448882	1
4	171	409.98540797764	0
4	173	417.79778371846	0
4	174	417.908685002256	0
4	176	419.657785982005	0
4	177	421.244784952963	0
4	181	424.276063284641	0
4	183	431.154713548178	0
4	185	445.699346670034	0
4	186	445.825227929012	0
4	188	447.543103794211	0
4	189	447.587502346098	0
4	191	460.516704985146	0
4	192	460.806027081778	0
4	197	474.19422053615	0
4	198	474.228857376197	0
4	200	481.095683169202	0
4	201	481.570369238643	0
4	203	486.127831312219	0
4	204	486.888360241331	0
4	208	490.485140357307	0
4	210	496.362720956522	0
4	212	501.288951545055	0
4	213	501.316790008343	0
4	217	505.002956299096	0
4	221	508.839663443019	1
4	227	513.738271046524	2
4	229	514.458292495847	3
4	235	525.229499277953	4
4	237	525.730885217399	5
4	245	537.391873471516	6
4	252	543.219500807899	7
4	256	548.535664666951	8
4	259	555.251640066278	8
4	260	555.663370269125	7
4	261	556.732000108423	6
4	262	556.946848107544	5
4	263	559.760089562059	4
4	264	560.072993739655	3
4	265	560.515091853542	2
4	267	560.623706455632	2
4	268	564.281856561312	2
4	269	564.361882743637	1
4	270	567.302474793421	0
4	272	568.939460714816	0
4	273	569.693463293597	0
4	278	584.468749162211	0
4	279	586.182911699568	0
4	281	599.791279867924	0
4	282	600.246914926306	0
4	286	602.50064407349	0
4	288	604.113696488475	0
4	290	605.718975695784	0
4	291	606.827810859649	0
4	293	616.248476632966	0
4	294	616.30550364933	0
4	296	619.18447714698	0
4	297	619.495041368541	0
4	305	639.624648878793	0
4	306	640.793128601863	0
4	308	641.806301898067	0
4	309	641.863208941329	0
4	311	644.169706261645	0
4	312	645.18246775572	0
4	319	658.230766056464	0
4	322	659.622136286692	1
4	323	659.629120431463	1
4	324	660.552375036041	0
4	326	665.804613480816	0
4	327	666.780170298039	0
4	329	682.178400840308	0
4	330	682.307874278514	0
4	332	700.87674194091	0
4	334	701.285677243009	1
4	335	702.865089494553	1
4	336	703.104452909432	0
4	338	717.967404583469	0
4	339	718.255600998374	0
4	341	722.446726874082	0
4	342	723.154861953505	0
4	347	739.610347347772	0
4	348	743.459131128423	0
4	350	750.885863105092	0
4	351	751.53326899304	0
4	355	769.247020053464	0
4	357	774.015727897389	0
4	359	786.806884617963	0
4	360	786.891802382524	0
4	362	796.034432044079	0
4	363	796.801223731234	0
4	365	801.770196139294	0
4	366	802.211818424835	0
4	368	802.643361737249	0
4	369	802.823118450657	0
4	371	803.466342464771	0
4	372	804.787583756229	0
4	374	821.989938605393	0
4	375	822.046332934845	0
4	377	822.971999659924	0
4	378	824.28557509505	0
4	380	825.692127493628	0
4	381	825.836898382535	0
4	388	837.481048809211	0
4	390	837.528711359265	1
4	394	853.367451096851	2
4	396	864.80791871467	3
4	400	868.699468202168	4
4	404	873.192633054787	4
4	405	874.15472005394	3
4	406	874.197741299327	2
4	407	874.459416030225	1
4	408	874.843396070336	0
4	410	892.215476562267	0
4	411	893.325993297204	0
4	413	896.95419122637	0
4	414	898.779072075462	0
4	419	908.783784786466	0
4	420	911.688970758235	0
4	422	921.983408396422	0
4	423	922.919593461578	0
4	425	923.077491675642	0
4	426	923.819454397348	0
4	428	926.313872219769	0
4	429	926.394169994546	0
4	431	928.366526091904	0
4	432	928.484178635227	0
4	434	931.138786419577	0
4	435	931.447658252342	0
4	443	951.775819964726	0
4	444	951.784331464541	0
4	446	954.938401825785	0
4	447	955.821285836835	0
4	449	960.15791517345	0
4	451	961.941637758824	1
4	452	962.402657745372	1
4	453	962.954192479706	0
4	458	973.955373969978	0
4	460	974.438970779056	1
4	461	974.831140310105	1
4	462	975.838008578962	0
4	464	976.208487875792	0
4	465	976.526570445353	0
4	472	994.275476802733	0
4	474	998.967850855492	1
4	476	999.039885466483	1
4	477	1000.006587670719	0
4	482	1021.422423220967	0
4	483	1022.304127909334	0
4	485	1025.61861987627	0
4	489	1034.732109192486	1
4	491	1038.782605635946	2
4	493	1043.159900290471	3
4	495	1049.111753611876	3
4	496	1052.435469502186	2
4	497	1053.542675229592	1
4	498	1053.548246467935	0
4	500	1064.460086608793	0
4	502	1065.265403748812	1
4	503	1065.573641142772	1
4	504	1066.739952916719	0
4	506	1093.886914810011	0
4	507	1095.434522464094	0
4	509	1095.796884728062	0
4	510	1098.079340508562	0
4	512	1100.441881947243	0
4	513	1102.047695630076	0
4	515	1102.411024622887	0
4	516	1103.986094936288	0
4	520	1110.248847979331	0
4	522	1113.661983075443	0
4	524	1115.662036455481	0
4	525	1116.754436009913	0
4	527	1127.991864436109	0
4	528	1128.070472862625	0
4	532	1150.403494908239	0
4	534	1157.698185414769	1
4	536	1159.391447570831	1
4	538	1160.726672716901	1
4	539	1161.564619007625	1
4	540	1161.741103820954	0
4	542	1179.987550244786	0
4	543	1181.911186622832	0
4	545	1190.406193379886	0
4	546	1190.700171575025	0
4	548	1192.060187505366	0
4	549	1193.096416058326	0
4	561	1214.542207979603	0
4	564	1230.587609546064	1
4	568	1239.074375508244	2
4	574	1247.415556330074	2
4	575	1247.586825939283	1
4	576	1250.216393668694	0
4	578	1257.072305290322	0
4	580	1258.154433461831	1
4	582	1258.463916101759	2
4	583	1259.364302603767	2
4	584	1260.063236804842	1
4	585	1260.467051965781	0
4	589	1268.084140595639	0
4	591	1269.559912571375	1
4	593	1274.986182981345	1
4	594	1275.370027471047	0
4	596	1279.343956200392	0
4	597	1280.463480636826	0
4	599	1281.438934440836	0
4	603	1285.294290029107	0
4	607	1293.39115214529	0
4	609	1294.09831111435	1
4	621	1306.377084729727	2
4	624	1308.790255576544	3
4	626	1312.306243155178	4
4	633	1325.552127347144	5
4	635	1329.476278199886	6
4	637	1331.977731951153	7
4	639	1335.18914020612	8
4	644	1345.473493177319	9
4	648	1351.35416377954	9
4	649	1352.015514599185	8
4	650	1353.576071653117	7
4	652	1353.837422051082	7
4	654	1355.903882210185	8
4	655	1356.075453523553	8
4	657	1356.72186603143	8
4	658	1357.437773442047	8
4	659	1357.684972516562	7
4	660	1357.842776502943	6
4	661	1358.006908287113	5
4	662	1359.571496155298	4
4	663	1359.599717734458	3
4	664	1360.168119036727	2
4	665	1360.403146921079	1
4	667	1361.4761275669	1
4	668	1362.53335386484	1
4	669	1365.226067680559	0
4	671	1367.411236736202	0
4	672	1368.260063948916	0
4	677	1399.696189430956	0
4	678	1400.647874635985	0
4	683	1417.078528100198	0
4	685	1420.290782061921	1
4	686	1421.645896559991	1
4	687	1421.876926697026	0
4	693	1438.259455455825	0
4	695	1444.792201787484	1
4	697	1449.871614903672	2
4	700	1453.637773549409	2
4	701	1454.702401655403	1
4	707	1460.060926220485	1
4	712	1464.592283923065	2
4	715	1476.202711998038	3
4	719	1478.069516448218	4
4	724	1485.640289736562	5
4	726	1487.04370975529	6
4	732	1508.664606563801	6
4	733	1508.718132855814	5
4	734	1509.481562671631	4
4	735	1511.45705707108	3
4	736	1511.75883689365	2
4	737	1511.892662004683	1
4	739	1512.283199849435	1
4	740	1512.413304545048	1
4	744	1514.492181875754	1
4	746	1520.872646226877	1
4	747	1521.824332864145	0
4	749	1525.749158143837	0
4	750	1525.779927191079	0
4	755	1532.577202008577	0
4	756	1532.900385987541	0
4	758	1538.005236612714	0
4	759	1539.473335915965	0
4	761	1551.435827516609	0
4	762	1552.289532968911	0
4	764	1561.172855466474	0
4	766	1562.687982903677	1
4	767	1564.888583760577	1
4	768	1567.32992563147	0
4	770	1576.644626109085	0
4	771	1576.893401745367	0
4	773	1577.971520441329	0
4	775	1578.224976662378	1
4	776	1578.459750556684	1
4	777	1578.504076070522	0
4	779	1580.245655261544	0
4	780	1580.273175194583	0
4	782	1584.930820075336	0
4	783	1585.646376154231	0
4	785	1598.806839497624	0
4	786	1599.327811325672	0
4	788	1609.425566048026	0
4	789	1610.817742000549	0
4	791	1624.066798678646	0
4	792	1625.411431256492	0
4	796	1627.508938156312	0
4	798	1632.00166565937	0
4	800	1644.804533826314	0
4	801	1645.427644124244	0
4	808	1656.941765470321	0
4	810	1657.778073543596	0
4	814	1667.440571028196	0
4	828	1696.918963719115	1
4	836	1711.386820788582	1
4	837	1711.938161663771	0
4	839	1719.112607261954	0
4	840	1719.850867927287	0
4	842	1730.314919826024	0
4	843	1732.12090095816	0
4	845	1747.308895643383	0
4	847	1748.047353153453	1
4	848	1748.159295646718	1
4	852	1754.288645179164	0
4	854	1758.501417219979	0
4	856	1759.620362943869	1
4	858	1761.129210365635	2
4	859	1762.602795931968	2
4	860	1763.265706091472	1
4	861	1763.502406143956	0
4	863	1763.813737269511	0
4	864	1764.607137665888	0
4	866	1770.185782847709	0
4	867	1770.40281178491	0
4	869	1778.687776808715	0
4	870	1778.909280817697	0
4	874	1781.263490443706	0
4	877	1783.647511303199	1
4	878	1785.43389900602	1
4	879	1786.211301690085	0
4	881	1791.920343721064	0
4	882	1792.48043126873	0
4	887	1809.927053426328	0
4	888	1810.158248051196	0
4	890	1824.121326190655	0
4	891	1824.121921183799	0
4	896	1828.799173711548	0
4	897	1829.631238426107	0
4	902	1836.776512552437	0
4	903	1838.086083882911	0
4	907	1863.001971466587	0
4	909	1868.626046539037	0
4	911	1877.221133022566	0
4	912	1877.869778052941	0
4	917	1886.960024108163	0
4	918	1887.670605863273	0
4	920	1894.963428843149	0
4	921	1895.062899556713	0
4	923	1898.466332015644	0
4	924	1899.279773537037	0
4	926	1905.001104474535	0
4	927	1905.253356740705	0
4	929	1918.282732109325	0
4	930	1918.423561458578	0
4	932	1930.581653249306	0
4	933	1930.963284514023	0
4	935	1935.826789934323	0
4	936	1938.035832667868	0
4	938	1942.879357732617	0
4	939	1943.069141399041	0
4	941	1951.691519557266	0
4	943	1951.845844740435	1
4	944	1952.02128318146	1
4	945	1952.983217166629	0
4	947	1955.941756291918	0
4	948	1957.010583648023	0
4	953	1981.415149903608	0
4	954	1981.998141368444	0
4	956	1991.932271441198	0
4	957	1992.451342658412	0
4	965	2036.820239663622	0
4	966	2037.04578403772	0
4	970	2055.395634036457	0
4	972	2061.142492266893	0
4	974	2066.336908056797	0
4	975	2066.481328628399	0
4	977	2068.572735745909	0
4	978	2069.354245455789	0
4	980	2073.629401755589	0
4	981	2073.819428083545	0
4	986	2090.373689927269	0
4	987	2090.575173978776	0
4	989	2091.510531786147	0
4	990	2091.955923334828	0
4	992	2094.509784816636	0
4	993	2094.579052810781	0
4	998	2103.10888607586	0
4	999	2103.148609891261	0
4	1003	2109.544519618569	0
4	1005	2116.253078284923	0
4	1007	2121.370922174609	0
4	1008	2121.454096598474	0
4	1010	2121.865282291356	0
4	1011	2122.84604641848	0
4	1013	2140.760935507749	0
4	1014	2141.694833937619	0
4	1016	2148.408502014201	0
4	1017	2149.435301166119	0
4	1019	2150.88545136286	0
4	1020	2150.959232734089	0
4	1022	2153.152701023359	0
4	1023	2153.315713973195	0
4	1028	2156.826185249186	0
4	1030	2158.885137271309	1
4	1031	2158.975570204429	1
4	1032	2159.719963955818	0
4	1036	2167.645034195839	0
4	1038	2171.559126366075	0
4	1043	2180.820140528645	0
4	1044	2181.413040959561	0
4	1046	2190.617248134383	0
4	1047	2190.884889326741	0
4	1051	2208.631005398133	0
4	1053	2212.877210790285	0
4	1055	2213.327587140208	0
4	1056	2213.751881412319	0
4	1058	2229.887447686045	0
4	1059	2232.350607393683	0
4	1064	2260.949383513056	0
4	1065	2260.957810033646	0
4	1067	2299.27861517504	0
4	1068	2299.588282091113	0
4	1073	2325.819276184382	0
4	1074	2326.745811187217	0
4	1079	2354.169776292782	0
4	1080	2354.226335976426	0
4	1082	2363.140470416597	0
4	1083	2364.377610774349	0
4	1088	2372.742441384221	0
4	1089	2373.990826677261	0
4	1091	2376.357023247149	0
4	1092	2376.668251576126	0
4	1094	2387.929246926715	0
4	1096	2388.368622764903	1
4	1097	2389.817629398964	1
4	1098	2390.060198438424	0
4	1100	2399.324458944691	0
4	1101	2399.692320453714	0
4	1103	2416.76104363929	0
4	1104	2416.829322450744	0
4	1106	2420.683923370384	0
4	1107	2421.637257365359	0
4	1112	2433.483901769592	0
4	1113	2434.811816284009	0
4	1115	2436.064121627286	0
4	1116	2438.17750217387	0
4	1118	2449.110225251561	0
4	1119	2449.155813630789	0
4	1124	2452.839439866003	0
4	1125	2453.730597748553	0
4	1130	2485.429838161415	0
4	1131	2485.924140316822	0
5	149	355.234957148056	17
5	153	359.601323760454	18
5	158	376.604513839375	19
5	182	427.625190107073	20
5	195	470.055219099707	21
5	209	495.533859992509	22
5	222	509.380543972085	23
5	225	513.397481993815	24
5	238	528.14846014183	25
5	241	535.520168142736	26
5	250	541.617614045256	27
5	253	546.823330896409	28
5	254	548.276033152219	29
5	257	552.423354274662	30
5	258	554.048558227707	31
5	276	578.708725978218	32
5	287	603.048833145662	33
5	302	623.312725323997	34
5	303	623.775514456228	35
5	315	651.574212194976	36
5	320	658.498016789084	37
5	345	736.631905603406	38
5	356	772.956489092589	39
5	386	832.084235689485	40
5	401	869.708038973638	41
5	402	872.217186197593	42
5	403	873.067023519333	43
5	417	906.058937386884	44
5	438	933.555949632523	45
5	441	939.040782405726	46
5	456	973.137617073512	47
5	468	987.491051566223	48
5	475	998.98733540028	49
5	480	1016.602754939575	50
5	494	1047.461437729863	51
5	521	1113.621691236613	52
5	535	1157.734940807631	53
5	554	1201.557482907776	54
5	555	1208.090998229455	55
5	562	1227.096688861015	56
5	571	1243.405832947714	57
5	572	1246.274865932309	58
5	573	1246.720616134271	59
5	592	1274.768549982331	60
5	602	1282.810099482965	61
5	618	1298.294435649831	62
5	619	1304.317239088538	63
5	622	1307.090084539414	64
5	627	1315.92484113241	65
5	642	1343.036165414318	66
5	645	1348.629972671147	67
5	646	1350.785852798235	68
5	647	1350.972115952691	69
5	675	1392.216063043291	70
5	681	1414.366547870212	71
5	698	1452.606357255023	72
5	699	1453.096060114614	73
5	710	1464.193529024495	74
5	713	1475.64236497073	75
5	722	1480.905334247555	76
5	729	1497.927375492147	77
5	730	1501.180008506103	78
5	731	1508.349101713036	79
5	745	1519.518468483332	80
5	753	1530.457083057754	81
5	797	1631.468441287402	82
5	806	1655.839988929356	83
5	809	1657.286311414843	84
5	815	1672.321663513372	85
5	818	1675.648405974112	86
5	823	1678.39688832282	87
5	826	1687.498560033863	88
5	831	1702.23295380425	89
5	834	1707.029610587871	90
5	835	1709.909000715347	91
5	851	1752.243059334305	92
5	875	1782.045710407393	93
5	885	1803.573274782576	94
5	894	1827.08715121635	95
5	900	1834.504431711958	96
5	908	1868.487279996237	97
5	915	1885.649815574593	98
5	951	1964.941783272595	99
5	962	2032.313472936383	100
5	963	2033.39842386356	101
5	971	2060.448008835701	102
5	984	2081.415186189532	103
5	996	2101.074653323877	104
5	1004	2114.985262053194	105
5	1026	2156.387466766789	106
5	1037	2171.219808344083	107
5	1041	2180.00307711338	108
5	1052	2210.363850461026	109
5	1062	2250.998991285835	110
5	1071	2315.238156551455	111
5	1077	2349.981298101126	112
5	1086	2371.99028739213	113
5	1110	2431.229172941408	114
5	1122	2452.257036162289	115
5	1128	2476.303549925659	116
6	149	355.234957148056	2.577349708926
6	153	359.601323760454	0.307624201826
6	158	376.604513839375	14.914843283452
6	182	427.625190107073	4.114969501487
6	195	470.055219099707	5.7448892751
6	209	495.533859992509	5.222502368347
6	222	509.380543972085	6.127578677953
6	225	513.397481993815	5.610096585462
6	238	528.14846014183	18.687552918142
6	241	535.520168142736	19.929330489056
6	250	541.617614045256	22.805307235874
6	253	546.823330896409	18.033673002646
6	254	548.276033152219	11.654413475341
6	257	552.423354274662	12.546983043715
6	258	554.048558227707	14.036580637564
6	276	578.708725978218	2.299435871264
6	287	603.048833145662	1.401849346821
6	302	623.312725323997	2.745331986197
6	303	623.775514456228	1.862305018246
6	315	651.574212194976	5.222168799616
6	320	658.498016789084	1.118376721315
6	345	736.631905603406	3.457584913769
6	356	772.956489092589	7.09940055373
6	386	832.084235689485	0.720403884935
6	401	869.708038973638	37.745409603892
6	402	872.217186197593	21.376586152402
6	403	873.067023519333	7.305238102623
6	417	906.058937386884	4.835453027422
6	438	933.555949632523	1.37162733381
6	441	939.040782405726	1.111196875099
6	456	973.137617073512	1.7949672968
6	468	987.491051566223	4.418505941042
6	475	998.98733540028	7.560267670164
6	480	1016.602754939575	0.997239905731
6	494	1047.461437729863	21.650295935093
6	521	1113.621691236613	3.822719221846
6	535	1157.734940807631	8.277806883605
6	554	1201.557482907776	5.030786453194
6	555	1208.090998229455	11.521543500707
6	562	1227.096688861015	16.811544365574
6	571	1243.405832947714	29.419077139764
6	572	1246.274865932309	14.644800453322
6	573	1246.720616134271	5.41243638766
6	592	1274.768549982331	11.57875333836
6	602	1282.810099482965	1.296927263436
6	618	1298.294435649831	6.197822701225
6	619	1304.317239088538	9.424601107778
6	622	1307.090084539414	11.367050786147
6	627	1315.92484113241	19.496094776188
6	642	1343.036165414318	45.095161235633
6	645	1348.629972671147	26.481947330257
6	646	1350.785852798235	27.665354747829
6	647	1350.972115952691	12.67915570131
6	675	1392.216063043291	7.297381552236
6	681	1414.366547870212	1.846583813687
6	698	1452.606357255023	22.961556955175
6	699	1453.096060114614	20.152236316413
6	710	1464.193529024495	9.367835156253
6	713	1475.64236497073	19.405163063016
6	722	1480.905334247555	17.404060948736
6	729	1497.927375492147	21.032174789811
6	730	1501.180008506103	22.527519826393
6	731	1508.349101713036	14.40625721658
6	745	1519.518468483332	6.450083985507
6	753	1530.457083057754	0.140751573147
6	797	1631.468441287402	5.192626968331
6	806	1655.839988929356	7.749459346668
6	809	1657.286311414843	8.879477550344
6	815	1672.321663513372	12.231087387132
6	818	1675.648405974112	1.909659982014
6	823	1678.39688832282	1.694939268827
6	826	1687.498560033863	9.687999715382
6	831	1702.23295380425	19.869001526356
6	834	1707.029610587871	5.328821937635
6	835	1709.909000715347	3.240816713439
6	851	1752.243059334305	3.66103321485
6	875	1782.045710407393	2.950375793984
6	885	1803.573274782576	2.309615733899
6	894	1827.08715121635	1.213014327472
6	900	1834.504431711958	4.209471429879
6	908	1868.487279996237	23.345877820551
6	915	1885.649815574593	0.074937617309
6	951	1964.941783272595	2.067174476245
6	962	2032.313472936383	7.704847269313
6	963	2033.39842386356	2.578638928701
6	971	2060.448008835701	5.162349890607
6	984	2081.415186189532	0.063588569983
6	996	2101.074653323877	4.292480063278
6	1004	2114.985262053194	8.897360063495
6	1026	2156.387466766789	2.243172759917
6	1037	2171.219808344083	3.85514650585
6	1041	2180.00307711338	3.010726017204
6	1052	2210.363850461026	3.472444220507
6	1062	2250.998991285835	3.486911929821
6	1071	2315.238156551455	8.313943590109
6	1077	2349.981298101126	1.794932016578
6	1086	2371.99028739213	1.83354100275
6	1110	2431.229172941408	6.117905212673
6	1122	2452.257036162289	0.63083780472
6	1128	2476.303549925659	6.826941371813
7	149	355.234957148056	0.175489783006
7	158	376.604513839375	5.823663815723
7	161	386.01824043156	0
7	164	397.684376195028	0
7	167	407.278190585379	0
7	170	409.792428448882	1.876988393212
7	173	417.79778371846	0
7	176	419.657785982005	0
7	182	427.625190107073	3.349126822432
7	185	445.699346670034	0
7	188	447.543103794211	0
7	191	460.516704985146	0
7	197	474.19422053615	0
7	200	481.095683169202	0
7	203	486.127831312219	0
7	209	495.533859992509	5.048719635202
7	212	501.288951545055	0
7	258	554.048558227707	49.045601928611
7	259	555.251640066278	46.411976623259
7	260	555.663370269125	41.925099222601
7	261	556.732000108423	42.273707612576
7	262	556.946848107544	31.717348829591
7	263	559.760089562059	34.02920434466
7	264	560.072993739655	22.681120268139
7	265	560.515091853542	17.295591045643
7	268	564.281856561312	15.746191894361
7	269	564.361882743637	3.738176288005
7	272	568.939460714816	0
7	278	584.468749162211	0
7	281	599.791279867924	0
7	287	603.048833145662	0.548189072172
7	290	605.718975695784	0
7	293	616.248476632966	0
7	296	619.18447714698	0
7	305	639.624648878793	0
7	308	641.806301898067	0
7	311	644.169706261645	0
7	320	658.498016789084	0.26725073262
7	323	659.629120431463	0.006984144771
7	326	665.804613480816	0
7	329	682.178400840308	0
7	332	700.87674194091	0
7	335	702.865089494553	1.579412251544
7	338	717.967404583469	0
7	341	722.446726874082	0
7	347	739.610347347772	0
7	350	750.885863105092	0
7	356	772.956489092589	3.709469039125
7	359	786.806884617963	0
7	362	796.034432044079	0
7	365	801.770196139294	0
7	368	802.643361737249	0
7	371	803.466342464771	0
7	374	821.989938605393	0
7	377	822.971999659924	0
7	380	825.692127493628	0
7	403	873.067023519333	35.585974710122
7	404	873.192633054787	35.663921695522
7	405	874.15472005394	20.787268957089
7	406	874.197741299327	9.389822584657
7	407	874.459416030225	5.759947828057
7	410	892.215476562267	0
7	413	896.95419122637	0
7	419	908.783784786466	0
7	422	921.983408396422	0
7	425	923.077491675642	0
7	428	926.313872219769	0
7	431	928.366526091904	0
7	434	931.138786419577	0
7	443	951.775819964726	0
7	446	954.938401825785	0
7	449	960.15791517345	0
7	452	962.402657745372	0.461019986548
7	458	973.955373969978	0
7	461	974.831140310105	0.392169531049
7	464	976.208487875792	0
7	475	998.98733540028	4.711858597547
7	476	999.039885466483	0.072034610991
7	482	1021.422423220967	0
7	485	1025.61861987627	0
7	494	1047.461437729863	21.650295935093
7	495	1049.111753611876	14.37964441939
7	496	1052.435469502186	13.65286386624
7	497	1053.542675229592	10.382774939121
7	500	1064.460086608793	0
7	503	1065.573641142772	0.30823739396
7	506	1093.886914810011	0
7	509	1095.796884728062	0
7	512	1100.441881947243	0
7	515	1102.411024622887	0
7	521	1113.621691236613	3.372843257282
7	524	1115.662036455481	0
7	527	1127.991864436109	0
7	535	1157.734940807631	7.331445899392
7	536	1159.391447570831	1.693262156062
7	539	1161.564619007625	0.837946290724
7	542	1179.987550244786	0
7	545	1190.406193379886	0
7	548	1192.060187505366	0
7	573	1246.720616134271	32.178408154668
7	574	1247.415556330074	16.82794678401
7	575	1247.586825939283	8.512450431039
7	578	1257.072305290322	0
7	583	1259.364302603767	1.209869141936
7	584	1260.063236804842	1.599320703083
7	592	1274.768549982331	6.684409386692
7	593	1274.986182981345	5.42627040997
7	596	1279.343956200392	0
7	599	1281.438934440836	0
7	602	1282.810099482965	1.296927263436
7	647	1350.972115952691	57.580963807401
7	648	1351.35416377954	57.25585266519
7	649	1352.015514599185	45.638429869458
7	650	1353.576071653117	44.785816076573
7	655	1356.075453523553	43.769210368375
7	658	1357.437773442047	31.885646094903
7	659	1357.684972516562	28.208694316676
7	660	1357.842776502943	25.86504455179
7	661	1358.006908287113	22.817768080993
7	662	1359.571496155298	14.098002977979
7	663	1359.599717734458	5.762295683376
7	664	1360.168119036727	4.264236826542
7	665	1360.403146921079	3.681280889649
7	668	1362.53335386484	1.05722629794
7	671	1367.411236736202	0
7	677	1399.696189430956	0
7	683	1417.078528100198	0
7	686	1421.645896559991	1.35511449807
7	699	1453.096060114614	14.836604658789
7	700	1453.637773549409	8.845571761925
7	701	1454.702401655403	4.830786751731
7	731	1508.349101713036	53.523407844794
7	732	1508.664606563801	48.603680343316
7	733	1508.718132855814	44.125848932749
7	734	1509.481562671631	33.278850673593
7	735	1511.45705707108	33.387540622862
7	736	1511.75883689365	26.118547157088
7	737	1511.892662004683	24.848952249393
7	740	1512.413304545048	0.130104695613
7	745	1519.518468483332	6.450083985507
7	746	1520.872646226877	6.380464351123
7	749	1525.749158143837	0
7	755	1532.577202008577	0
7	758	1538.005236612714	0
7	761	1551.435827516609	0
7	764	1561.172855466474	0
7	767	1564.888583760577	2.2006008569
7	770	1576.644626109085	0
7	773	1577.971520441329	0
7	776	1578.459750556684	0.234773894306
7	779	1580.245655261544	0
7	782	1584.930820075336	0
7	785	1598.806839497624	0
7	788	1609.425566048026	0
7	791	1624.066798678646	0
7	797	1631.468441287402	3.95950313109
7	800	1644.804533826314	0
7	809	1657.286311414843	0.344545944522
7	815	1672.321663513372	4.881092485176
7	818	1675.648405974112	1.909659982014
7	835	1709.909000715347	33.207051661354
7	836	1711.386820788582	14.467857069467
7	839	1719.112607261954	0
7	842	1730.314919826024	0
7	845	1747.308895643383	0
7	848	1748.159295646718	0.111942493265
7	851	1752.243059334305	3.66103321485
7	854	1758.501417219979	0
7	859	1762.602795931968	2.982432988099
7	860	1763.265706091472	2.136495725837
7	863	1763.813737269511	0
7	866	1770.185782847709	0
7	869	1778.687776808715	0
7	875	1782.045710407393	0.782219963687
7	878	1785.43389900602	1.786387702821
7	881	1791.920343721064	0
7	887	1809.927053426328	0
7	890	1824.121326190655	0
7	896	1828.799173711548	0
7	902	1836.776512552437	0
7	908	1868.487279996237	5.48530852965
7	911	1877.221133022566	0
7	917	1886.960024108163	0
7	920	1894.963428843149	0
7	923	1898.466332015644	0
7	926	1905.001104474535	0
7	929	1918.282732109325	0
7	932	1930.581653249306	0
7	935	1935.826789934323	0
7	938	1942.879357732617	0
7	941	1951.691519557266	0
7	944	1952.02128318146	0.175438441025
7	947	1955.941756291918	0
7	953	1981.415149903608	0
7	956	1991.932271441198	0
7	965	2036.820239663622	0
7	971	2060.448008835701	5.052374799244
7	974	2066.336908056797	0
7	977	2068.572735745909	0
7	980	2073.629401755589	0
7	986	2090.373689927269	0
7	989	2091.510531786147	0
7	992	2094.509784816636	0
7	998	2103.10888607586	0
7	1004	2114.985262053194	5.440742434625
7	1007	2121.370922174609	0
7	1010	2121.865282291356	0
7	1013	2140.760935507749	0
7	1016	2148.408502014201	0
7	1019	2150.88545136286	0
7	1022	2153.152701023359	0
7	1028	2156.826185249186	0
7	1031	2158.975570204429	0.09043293312
7	1037	2171.219808344083	3.574774148244
7	1043	2180.820140528645	0
7	1046	2190.617248134383	0
7	1052	2210.363850461026	1.732845062893
7	1055	2213.327587140208	0
7	1058	2229.887447686045	0
7	1064	2260.949383513056	0
7	1067	2299.27861517504	0
7	1073	2325.819276184382	0
7	1079	2354.169776292782	0
7	1082	2363.140470416597	0
7	1088	2372.742441384221	0
7	1091	2376.357023247149	0
7	1094	2387.929246926715	0
7	1097	2389.817629398964	1.449006634061
7	1100	2399.324458944691	0
7	1103	2416.76104363929	0
7	1106	2420.683923370384	0
7	1112	2433.483901769592	0
7	1115	2436.064121627286	0
7	1118	2449.110225251561	0
7	1124	2452.839439866003	0
7	1130	2485.429838161415	0
8	150	355.538730075528	33
8	159	377.191963564209	34
8	162	388.108457592335	35
8	165	397.938310513626	36
8	170	409.792428448882	37
8	171	409.98540797764	38
8	174	417.908685002256	39
8	177	421.244784952963	40
8	183	431.154713548178	41
8	186	445.825227929012	42
8	189	447.587502346098	43
8	192	460.806027081778	44
8	198	474.228857376197	45
8	201	481.570369238643	46
8	204	486.888360241331	47
8	210	496.362720956522	48
8	213	501.316790008343	49
8	259	555.251640066278	50
8	260	555.663370269125	51
8	261	556.732000108423	52
8	262	556.946848107544	53
8	263	559.760089562059	54
8	264	560.072993739655	55
8	265	560.515091853542	56
8	268	564.281856561312	57
8	269	564.361882743637	58
8	270	567.302474793421	59
8	273	569.693463293597	60
8	279	586.182911699568	61
8	282	600.246914926306	62
8	288	604.113696488475	63
8	291	606.827810859649	64
8	294	616.30550364933	65
8	297	619.495041368541	66
8	306	640.793128601863	67
8	309	641.863208941329	68
8	312	645.18246775572	69
8	323	659.629120431463	70
8	324	660.552375036041	71
8	327	666.780170298039	72
8	330	682.307874278514	73
8	335	702.865089494553	74
8	336	703.104452909432	75
8	339	718.255600998374	76
8	342	723.154861953505	77
8	348	743.459131128423	78
8	351	751.53326899304	79
8	357	774.015727897389	80
8	360	786.891802382524	81
8	363	796.801223731234	82
8	366	802.211818424835	83
8	369	802.823118450657	84
8	372	804.787583756229	85
8	375	822.046332934845	86
8	378	824.28557509505	87
8	381	825.836898382535	88
8	404	873.192633054787	89
8	405	874.15472005394	90
8	406	874.197741299327	91
8	407	874.459416030225	92
8	408	874.843396070336	93
8	411	893.325993297204	94
8	414	898.779072075462	95
8	420	911.688970758235	96
8	423	922.919593461578	97
8	426	923.819454397348	98
8	429	926.394169994546	99
8	432	928.484178635227	100
8	435	931.447658252342	101
8	444	951.784331464541	102
8	447	955.821285836835	103
8	452	962.402657745372	104
8	453	962.954192479706	105
8	461	974.831140310105	106
8	462	975.838008578962	107
8	465	976.526570445353	108
8	476	999.039885466483	109
8	477	1000.006587670719	110
8	483	1022.304127909334	111
8	495	1049.111753611876	112
8	496	1052.435469502186	113
8	497	1053.542675229592	114
8	498	1053.548246467935	115
8	503	1065.573641142772	116
8	504	1066.739952916719	117
8	507	1095.434522464094	118
8	510	1098.079340508562	119
8	513	1102.047695630076	120
8	516	1103.986094936288	121
8	522	1113.661983075443	122
8	525	1116.754436009913	123
8	528	1128.070472862625	124
8	536	1159.391447570831	125
8	539	1161.564619007625	126
8	540	1161.741103820954	127
8	543	1181.911186622832	128
8	546	1190.700171575025	129
8	549	1193.096416058326	130
8	574	1247.415556330074	131
8	575	1247.586825939283	132
8	576	1250.216393668694	133
8	583	1259.364302603767	134
8	584	1260.063236804842	135
8	585	1260.467051965781	136
8	593	1274.986182981345	137
8	594	1275.370027471047	138
8	597	1280.463480636826	139
8	603	1285.294290029107	140
8	648	1351.35416377954	141
8	649	1352.015514599185	142
8	650	1353.576071653117	143
8	655	1356.075453523553	144
8	658	1357.437773442047	145
8	659	1357.684972516562	146
8	660	1357.842776502943	147
8	661	1358.006908287113	148
8	662	1359.571496155298	149
8	663	1359.599717734458	150
8	664	1360.168119036727	151
8	665	1360.403146921079	152
8	668	1362.53335386484	153
8	669	1365.226067680559	154
8	672	1368.260063948916	155
8	678	1400.647874635985	156
8	686	1421.645896559991	157
8	687	1421.876926697026	158
8	700	1453.637773549409	159
8	701	1454.702401655403	160
8	732	1508.664606563801	161
8	733	1508.718132855814	162
8	734	1509.481562671631	163
8	735	1511.45705707108	164
8	736	1511.75883689365	165
8	737	1511.892662004683	166
8	740	1512.413304545048	167
8	746	1520.872646226877	168
8	747	1521.824332864145	169
8	750	1525.779927191079	170
8	756	1532.900385987541	171
8	759	1539.473335915965	172
8	762	1552.289532968911	173
8	767	1564.888583760577	174
8	768	1567.32992563147	175
8	771	1576.893401745367	176
8	776	1578.459750556684	177
8	777	1578.504076070522	178
8	780	1580.273175194583	179
8	783	1585.646376154231	180
8	786	1599.327811325672	181
8	789	1610.817742000549	182
8	792	1625.411431256492	183
8	798	1632.00166565937	184
8	801	1645.427644124244	185
8	810	1657.778073543596	186
8	836	1711.386820788582	187
8	837	1711.938161663771	188
8	840	1719.850867927287	189
8	843	1732.12090095816	190
8	848	1748.159295646718	191
8	852	1754.288645179164	192
8	859	1762.602795931968	193
8	860	1763.265706091472	194
8	861	1763.502406143956	195
8	864	1764.607137665888	196
8	867	1770.40281178491	197
8	870	1778.909280817697	198
8	878	1785.43389900602	199
8	879	1786.211301690085	200
8	882	1792.48043126873	201
8	888	1810.158248051196	202
8	891	1824.121921183799	203
8	897	1829.631238426107	204
8	903	1838.086083882911	205
8	909	1868.626046539037	206
8	912	1877.869778052941	207
8	918	1887.670605863273	208
8	921	1895.062899556713	209
8	924	1899.279773537037	210
8	927	1905.253356740705	211
8	930	1918.423561458578	212
8	933	1930.963284514023	213
8	936	1938.035832667868	214
8	939	1943.069141399041	215
8	944	1952.02128318146	216
8	945	1952.983217166629	217
8	948	1957.010583648023	218
8	954	1981.998141368444	219
8	957	1992.451342658412	220
8	966	2037.04578403772	221
8	972	2061.142492266893	222
8	975	2066.481328628399	223
8	978	2069.354245455789	224
8	981	2073.819428083545	225
8	987	2090.575173978776	226
8	990	2091.955923334828	227
8	993	2094.579052810781	228
8	999	2103.148609891261	229
8	1005	2116.253078284923	230
8	1008	2121.454096598474	231
8	1011	2122.84604641848	232
8	1014	2141.694833937619	233
8	1017	2149.435301166119	234
8	1020	2150.959232734089	235
8	1023	2153.315713973195	236
8	1031	2158.975570204429	237
8	1032	2159.719963955818	238
8	1038	2171.559126366075	239
8	1044	2181.413040959561	240
8	1047	2190.884889326741	241
8	1053	2212.877210790285	242
8	1056	2213.751881412319	243
8	1059	2232.350607393683	244
8	1065	2260.957810033646	245
8	1068	2299.588282091113	246
8	1074	2326.745811187217	247
8	1080	2354.226335976426	248
8	1083	2364.377610774349	249
8	1089	2373.990826677261	250
8	1092	2376.668251576126	251
8	1097	2389.817629398964	252
8	1098	2390.060198438424	253
8	1101	2399.692320453714	254
8	1104	2416.829322450744	255
8	1107	2421.637257365359	256
8	1113	2434.811816284009	257
8	1116	2438.17750217387	258
8	1119	2449.155813630789	259
8	1125	2453.730597748553	260
8	1131	2485.924140316822	261
9	150	355.538730075528	0.479262710478
9	159	377.191963564209	6.411113540557
9	162	388.108457592335	2.090217160775
9	165	397.938310513626	0.253934318598
9	170	409.792428448882	2.514237863503
9	171	409.98540797764	2.06996792197
9	174	417.908685002256	0.110901283796
9	177	421.244784952963	1.586998970958
9	183	431.154713548178	6.878650263537
9	186	445.825227929012	0.125881258978
9	189	447.587502346098	0.044398551887
9	192	460.806027081778	0.289322096632
9	198	474.228857376197	0.034636840047
9	201	481.570369238643	0.474686069441
9	204	486.888360241331	0.760528929112
9	210	496.362720956522	5.877580599215
9	213	501.316790008343	0.027838463288
9	259	555.251640066278	50.248683767182
9	260	555.663370269125	46.823706826106
9	261	556.732000108423	42.993729061899
9	262	556.946848107544	42.488555611697
9	263	559.760089562059	34.530590284106
9	264	560.072993739655	34.342108522256
9	265	560.515091853542	23.123218382026
9	268	564.281856561312	21.062355753413
9	269	564.361882743637	15.826218076686
9	270	567.302474793421	6.678768337789
9	273	569.693463293597	0.754002578781
9	279	586.182911699568	1.714162537357
9	282	600.246914926306	0.455635058382
9	288	604.113696488475	1.613052414985
9	291	606.827810859649	1.108835163865
9	294	616.30550364933	0.057027016364
9	297	619.495041368541	0.310564221561
9	306	640.793128601863	1.16847972307
9	309	641.863208941329	0.056907043262
9	312	645.18246775572	1.012761494075
9	323	659.629120431463	1.398354374999
9	324	660.552375036041	0.930238749349
9	327	666.780170298039	0.975556817223
9	330	682.307874278514	0.129473438206
9	335	702.865089494553	1.988347553643
9	336	703.104452909432	1.818775666423
9	339	718.255600998374	0.288196414905
9	342	723.154861953505	0.708135079423
9	348	743.459131128423	3.848783780651
9	351	751.53326899304	0.647405887948
9	357	774.015727897389	4.768707843925
9	360	786.891802382524	0.084917764561
9	363	796.801223731234	0.766791687155
9	366	802.211818424835	0.441622285541
9	369	802.823118450657	0.179756713408
9	372	804.787583756229	1.321241291458
9	375	822.046332934845	0.056394329452
9	378	824.28557509505	1.313575435126
9	381	825.836898382535	0.144770888907
9	404	873.192633054787	35.711584245576
9	405	874.15472005394	36.626008694675
9	406	874.197741299327	20.830290202476
9	407	874.459416030225	9.651497315555
9	408	874.843396070336	6.143927868168
9	411	893.325993297204	1.110516734937
9	414	898.779072075462	1.824880849092
9	420	911.688970758235	2.905185971769
9	423	922.919593461578	0.936185065156
9	426	923.819454397348	0.741962721706
9	429	926.394169994546	0.080297774777
9	432	928.484178635227	0.117652543323
9	435	931.447658252342	0.308871832765
9	444	951.784331464541	0.008511499815
9	447	955.821285836835	0.88288401105
9	452	962.402657745372	2.244742571922
9	453	962.954192479706	1.012554720882
9	461	974.831140310105	0.875766340127
9	462	975.838008578962	1.399037799906
9	465	976.526570445353	0.318082569561
9	476	999.039885466483	4.76440866375
9	477	1000.006587670719	1.038736815227
9	483	1022.304127909334	0.881704688367
9	495	1049.111753611876	23.300611817106
9	496	1052.435469502186	17.7033603097
9	497	1053.542675229592	14.760069593646
9	498	1053.548246467935	10.388346177464
9	503	1065.573641142772	1.113554533979
9	504	1066.739952916719	1.474549167907
9	507	1095.434522464094	1.547607654083
9	510	1098.079340508562	2.2824557805
9	513	1102.047695630076	1.605813682833
9	516	1103.986094936288	1.575070313401
9	522	1113.661983075443	3.413135096112
9	525	1116.754436009913	1.092399554432
9	528	1128.070472862625	0.078608426516
9	536	1159.391447570831	8.987952662592
9	539	1161.564619007625	3.866433592856
9	540	1161.741103820954	1.014431104053
9	543	1181.911186622832	1.923636378046
9	546	1190.700171575025	0.293978195139
9	549	1193.096416058326	1.03622855296
9	574	1247.415556330074	32.873348350471
9	575	1247.586825939283	16.999216393219
9	576	1250.216393668694	11.14201816045
9	583	1259.364302603767	2.291997313445
9	584	1260.063236804842	1.908803343011
9	585	1260.467051965781	2.003135864022
9	593	1274.986182981345	6.902042385706
9	594	1275.370027471047	5.810114899672
9	597	1280.463480636826	1.119524436434
9	603	1285.294290029107	3.781117809578
9	648	1351.35416377954	57.96301163425
9	649	1352.015514599185	57.917203484835
9	650	1353.576071653117	47.19898692339
9	655	1356.075453523553	47.285197947009
9	658	1357.437773442047	45.131530286869
9	659	1357.684972516562	32.132845169418
9	660	1357.842776502943	28.366498303057
9	661	1358.006908287113	26.02917633596
9	662	1359.571496155298	24.382355949178
9	663	1359.599717734458	14.126224557139
9	664	1360.168119036727	6.330696985645
9	665	1360.403146921079	4.499264710894
9	668	1362.53335386484	5.81148783341
9	669	1365.226067680559	3.749940113659
9	672	1368.260063948916	0.848827212714
9	678	1400.647874635985	0.951685205029
9	686	1421.645896559991	4.567368459793
9	687	1421.876926697026	1.586144635105
9	700	1453.637773549409	15.378318093584
9	701	1454.702401655403	9.910199867919
9	732	1508.664606563801	53.838912695559
9	733	1508.718132855814	48.657206635329
9	734	1509.481562671631	44.889278748566
9	735	1511.45705707108	35.254345073042
9	736	1511.75883689365	33.689320445432
9	737	1511.892662004683	26.252372268121
9	740	1512.413304545048	25.369594789758
9	746	1520.872646226877	7.804261729052
9	747	1521.824332864145	7.332150988391
9	750	1525.779927191079	0.030769047242
9	756	1532.900385987541	0.323183978964
9	759	1539.473335915965	1.468099303251
9	762	1552.289532968911	0.853705452302
9	767	1564.888583760577	3.715728294103
9	768	1567.32992563147	4.641942727793
9	771	1576.893401745367	0.248775636282
9	776	1578.459750556684	0.488230115355
9	777	1578.504076070522	0.279099408144
9	780	1580.273175194583	0.027519933039
9	783	1585.646376154231	0.715556078895
9	786	1599.327811325672	0.520971828048
9	789	1610.817742000549	1.392175952523
9	792	1625.411431256492	1.344632577846
9	798	1632.00166565937	4.492727503058
9	801	1645.427644124244	0.62311029793
9	810	1657.778073543596	0.836308073275
9	836	1711.386820788582	34.684871734589
9	837	1711.938161663771	15.019197944656
9	840	1719.850867927287	0.738260665333
9	843	1732.12090095816	1.805981132136
9	848	1748.159295646718	0.850400003335
9	852	1754.288645179164	5.706619059709
9	859	1762.602795931968	4.101378711989
9	860	1763.265706091472	3.645343147603
9	861	1763.502406143956	2.373195778321
9	864	1764.607137665888	0.793400396377
9	867	1770.40281178491	0.217028937201
9	870	1778.909280817697	0.221504008982
9	878	1785.43389900602	4.170408562314
9	879	1786.211301690085	2.563790386886
9	882	1792.48043126873	0.560087547666
9	888	1810.158248051196	0.231194624868
9	891	1824.121921183799	0.000594993144
9	897	1829.631238426107	0.832064714559
9	903	1838.086083882911	1.309571330474
9	909	1868.626046539037	5.62407507245
9	912	1877.869778052941	0.648645030375
9	918	1887.670605863273	0.71058175511
9	921	1895.062899556713	0.099470713564
9	924	1899.279773537037	0.813441521393
9	927	1905.253356740705	0.25225226617
9	930	1918.423561458578	0.140829349253
9	933	1930.963284514023	0.381631264717
9	936	1938.035832667868	2.209042733545
9	939	1943.069141399041	0.189783666424
9	944	1952.02128318146	0.329763624194
9	945	1952.983217166629	1.137372426194
9	948	1957.010583648023	1.068827356105
9	954	1981.998141368444	0.582991464836
9	957	1992.451342658412	0.519071217214
9	966	2037.04578403772	0.225544374098
9	972	2061.142492266893	5.746858230436
9	975	2066.481328628399	0.144420571602
9	978	2069.354245455789	0.78150970988
9	981	2073.819428083545	0.190026327956
9	987	2090.575173978776	0.201484051507
9	990	2091.955923334828	0.445391548681
9	993	2094.579052810781	0.069267994145
9	999	2103.148609891261	0.039723815401
9	1005	2116.253078284923	6.708558666354
9	1008	2121.454096598474	0.083174423865
9	1011	2122.84604641848	0.980764127124
9	1014	2141.694833937619	0.93389842987
9	1017	2149.435301166119	1.026799151918
9	1020	2150.959232734089	0.073781371229
9	1023	2153.315713973195	0.163012949836
9	1031	2158.975570204429	2.149384955243
9	1032	2159.719963955818	0.834826684509
9	1038	2171.559126366075	3.914092170236
9	1044	2181.413040959561	0.592900430916
9	1047	2190.884889326741	0.267641192358
9	1053	2212.877210790285	4.246205392152
9	1056	2213.751881412319	0.424294272111
9	1059	2232.350607393683	2.463159707638
9	1065	2260.957810033646	0.00842652059
9	1068	2299.588282091113	0.309666916073
9	1074	2326.745811187217	0.926535002835
9	1080	2354.226335976426	0.056559683644
9	1083	2364.377610774349	1.237140357752
9	1089	2373.990826677261	1.24838529304
9	1092	2376.668251576126	0.311228328977
9	1097	2389.817629398964	1.888382472249
9	1098	2390.060198438424	1.691575673521
9	1101	2399.692320453714	0.367861509023
9	1104	2416.829322450744	0.068278811454
9	1107	2421.637257365359	0.953333994975
9	1113	2434.811816284009	1.327914514417
9	1116	2438.17750217387	2.113380546584
9	1119	2449.155813630789	0.045588379228
9	1125	2453.730597748553	0.89115788255
9	1131	2485.924140316822	0.494302155407
10	487	1025.81114179477	2
10	601	1281.513172219529	3
10	703	1454.825693868242	4
10	742	1513.068384497825	5
10	817	1673.738745992098	6
10	820	1676.701949053993	7
10	850	1748.582026119455	8
11	1138	2500	0.1044
12	1138	2500	0.0464

