version 2
run experiments_easy_game_mode1-777-20230308-12:04:36-22340
attr configname experiments_easy_game_mode1
attr datetime 20230308-12:04:36
attr experiment experiments_easy_game_mode1
attr inifile omnetpp.ini
attr iterationvars "$0=6, $1=1, $2=100"
attr iterationvarsf 6,1,100-
attr measurement "$0=6, $1=1, $2=100"
attr network Network
attr processid 22340
attr repetition 27
attr replication #27
attr resultdir results
attr runnumber 777
attr seedset 27
param *.boss.arrival_mean 20
param *.boss.service_mean 6
param *.minion.arrival_mean 10
param *.minion.service_mean 1
param *.player.recover_rate_x 100
param **.minion.arrival_distribution 0
param **.minion.service_distribution 0
param **.boss.arrival_distribution 0
param **.boss.service_distribution 0

vector 0 Network.player boss_jobs_number_stat:vector ETV
attr source signal_boss_jobs_number
vector 1 Network.player boss_jobs_queue_number_stat:vector ETV
attr source signal_boss_jobs_queue_number
vector 2 Network.player boss_waiting_time_stat:vector ETV
attr source signal_boss_waiting_time
vector 3 Network.player boss_defeated_stat:vector ETV
attr source signal_boss_defeated
vector 4 Network.player boss_response_time_stat:vector ETV
attr source signal_boss_response_time
vector 5 Network.player minion_jobs_number_stat:vector ETV
attr source signal_minion_jobs_number
vector 6 Network.player minion_jobs_queue_number_stat:vector ETV
attr source signal_minion_jobs_queue_number
vector 7 Network.player minion_waiting_time_stat:vector ETV
attr source signal_minion_waiting_time
vector 8 Network.player minion_defeated_stat:vector ETV
attr source signal_minion_defeated
vector 9 Network.player minion_response_time_stat:vector ETV
attr source signal_minion_response_time
vector 10 Network.player minion_recovered_stat:vector ETV
attr source signal_minion_recovered
vector 11 Network.player minion_throughput:vector ETV
attr source signal_minion_throughput
vector 12 Network.player boss_throughput:vector ETV
attr source signal_boss_throughput
0	152	368.831334544424	1
0	155	389.110670426301	1
0	158	392.470448185346	1
0	164	406.857955342912	1
0	175	426.413797271532	1
0	177	428.216150320548	2
0	179	429.56556717974	3
0	189	439.368663954059	2
0	194	453.418493226684	2
0	196	460.280800586182	3
0	202	465.421436393306	4
0	204	468.331227174635	5
0	239	532.267433263168	1
0	241	532.47057314743	2
0	255	551.950976185058	1
0	263	562.599858163725	1
0	273	566.167079330092	2
0	286	579.735833390176	1
0	293	587.83685848517	1
0	295	588.269454985046	2
0	297	589.0392234944	3
0	302	605.436577269174	1
0	308	613.330361908421	1
0	310	614.946250003507	2
0	317	625.020069418922	1
0	325	635.493773863116	1
0	329	651.93908874367	1
0	333	659.479702327961	2
0	335	660.616830717591	3
0	341	690.058304817686	2
0	356	724.440579512485	1
0	365	742.817448148488	1
0	369	750.436630718249	2
0	372	761.240283547267	2
0	375	768.129381117159	2
0	379	776.291255989424	3
0	404	836.22542674111	1
0	406	836.732694464763	2
0	430	886.875913427531	1
0	432	888.751654418823	2
0	439	906.16981819263	1
0	449	944.66435003739	1
0	470	972.102428593869	1
0	482	985.612944754038	1
0	485	992.436786322198	1
0	490	998.179883676915	1
0	493	1002.472414686305	1
0	512	1031.121101478372	1
0	524	1059.823730250331	1
0	530	1075.364437874632	2
0	557	1170.367082354032	1
0	560	1180.109766243292	1
0	573	1212.664506770435	1
0	587	1233.325160215043	1
0	602	1269.88515367764	1
0	604	1273.651998237192	2
0	607	1278.05293541854	2
0	615	1302.754338639653	3
0	617	1305.574118968634	4
0	621	1306.39506238908	5
0	626	1314.661552737215	5
0	640	1332.983630237907	2
0	665	1359.150555686224	1
0	668	1363.697256601952	1
0	692	1444.719652389594	1
0	697	1450.44504109149	1
0	699	1450.821689742854	2
0	706	1461.008519765219	1
0	725	1486.539293398296	1
0	731	1511.564798431682	1
0	737	1522.912315959582	1
0	761	1554.359213467081	1
0	769	1573.55463600345	1
0	785	1618.60610114374	1
0	797	1647.732977010864	1
0	799	1652.716300240126	2
0	815	1699.903565993872	1
0	817	1700.164731177748	2
0	820	1704.09610134274	2
0	839	1732.70694833244	1
0	842	1739.431147144398	1
0	846	1743.465202265492	2
0	851	1749.865499275879	2
0	866	1781.419902188234	1
0	872	1794.03587162119	2
0	914	1854.253817291772	1
0	935	1890.882005542659	1
0	937	1890.959832848247	2
0	944	1906.259346134547	1
0	953	1951.970516732074	1
0	960	1972.812470886184	1
0	980	2016.313752534131	1
0	989	2026.634220104932	1
0	1013	2113.398607569763	1
0	1016	2122.859661153812	1
0	1037	2162.021322230943	1
0	1040	2165.890783281384	1
0	1043	2172.746428742143	1
0	1052	2189.245132141111	1
0	1067	2233.879336630663	1
0	1073	2239.267804364735	1
0	1085	2252.616090301519	1
0	1114	2345.378507754397	1
0	1123	2358.900332232856	1
0	1127	2370.717925181556	1
0	1139	2418.046391651931	1
0	1142	2423.759721043991	1
0	1148	2453.422693129747	1
0	1151	2458.491186840242	1
0	1160	2480.169364514395	1
1	152	368.831334544424	0
1	153	375.1227981609	0
1	155	389.110670426301	0
1	156	392.381356244795	0
1	158	392.470448185346	0
1	161	397.993784783744	0
1	164	406.857955342912	0
1	165	408.49418123919	0
1	175	426.413797271532	0
1	177	428.216150320548	1
1	179	429.56556717974	2
1	180	433.888258083523	2
1	185	436.360081133576	1
1	189	439.368663954059	1
1	192	451.547977488512	1
1	194	453.418493226684	1
1	196	460.280800586182	2
1	202	465.421436393306	3
1	204	468.331227174635	4
1	207	479.622471457736	4
1	208	480.281607792823	3
1	209	481.910306620337	2
1	212	486.414428086337	1
1	213	486.922500998314	0
1	239	532.267433263168	0
1	241	532.47057314743	1
1	242	534.253638120848	1
1	247	540.898349834745	0
1	255	551.950976185058	0
1	256	558.177005693448	0
1	263	562.599858163725	0
1	273	566.167079330092	1
1	276	568.425019604697	1
1	277	569.601464196771	0
1	286	579.735833390176	0
1	287	581.659160612678	0
1	293	587.83685848517	0
1	295	588.269454985046	1
1	297	589.0392234944	2
1	298	595.48104758651	2
1	299	599.247692498882	1
1	300	602.126174259071	0
1	302	605.436577269174	0
1	303	606.192458843415	0
1	308	613.330361908421	0
1	310	614.946250003507	1
1	311	619.203134966532	1
1	312	619.664146285111	0
1	317	625.020069418922	0
1	320	626.570480311854	0
1	325	635.493773863116	0
1	326	649.355915719029	0
1	329	651.93908874367	0
1	333	659.479702327961	1
1	335	660.616830717591	2
1	336	660.705504415114	2
1	337	670.18368851737	1
1	341	690.058304817686	1
1	342	695.238966176383	1
1	345	706.25585502405	0
1	356	724.440579512485	0
1	359	728.335718759196	0
1	365	742.817448148488	0
1	369	750.436630718249	1
1	370	752.94857687453	1
1	372	761.240283547267	1
1	373	762.255318394249	1
1	375	768.129381117159	1
1	379	776.291255989424	2
1	384	790.488478229844	2
1	387	797.635714866843	1
1	390	802.801898762698	0
1	404	836.22542674111	0
1	406	836.732694464763	1
1	411	847.365206813456	1
1	412	857.449744352612	0
1	430	886.875913427531	0
1	432	888.751654418823	1
1	433	894.64809894539	1
1	434	897.930110713504	0
1	439	906.16981819263	0
1	440	908.06059576687	0
1	449	944.66435003739	0
1	450	944.831340173748	0
1	470	972.102428593869	0
1	477	981.891204977044	0
1	482	985.612944754038	0
1	483	989.24526432616	0
1	485	992.436786322198	0
1	486	995.983326147832	0
1	490	998.179883676915	0
1	491	998.847659453747	0
1	493	1002.472414686305	0
1	498	1014.719556470249	0
1	512	1031.121101478372	0
1	517	1041.317935686792	0
1	524	1059.823730250331	0
1	530	1075.364437874632	1
1	531	1076.500790552327	1
1	532	1083.679353300373	0
1	557	1170.367082354032	0
1	558	1172.507241917795	0
1	560	1180.109766243292	0
1	561	1185.108159613176	0
1	573	1212.664506770435	0
1	574	1214.306284422127	0
1	587	1233.325160215043	0
1	588	1235.248270546515	0
1	602	1269.88515367764	0
1	604	1273.651998237192	1
1	605	1274.6853271525	1
1	607	1278.05293541854	1
1	615	1302.754338639653	2
1	617	1305.574118968634	3
1	621	1306.39506238908	4
1	624	1313.594953314613	4
1	626	1314.661552737215	4
1	627	1316.139897457481	4
1	628	1317.031190237999	3
1	635	1324.878822447943	2
1	638	1330.612375934401	1
1	640	1332.983630237907	1
1	641	1333.174311656304	1
1	648	1337.156264911054	0
1	665	1359.150555686224	0
1	666	1361.256919301887	0
1	668	1363.697256601952	0
1	669	1366.812692441684	0
1	692	1444.719652389594	0
1	693	1449.329128346843	0
1	697	1450.44504109149	0
1	699	1450.821689742854	1
1	700	1458.253432588865	1
1	701	1458.620137081661	0
1	706	1461.008519765219	0
1	707	1463.347374884437	0
1	725	1486.539293398296	0
1	726	1492.757786797626	0
1	731	1511.564798431682	0
1	732	1514.635210116819	0
1	737	1522.912315959582	0
1	742	1529.570503611471	0
1	761	1554.359213467081	0
1	764	1556.664075318141	0
1	769	1573.55463600345	0
1	770	1573.600837228158	0
1	785	1618.60610114374	0
1	792	1636.256046102989	0
1	797	1647.732977010864	0
1	799	1652.716300240126	1
1	800	1659.239793547637	1
1	807	1674.298066252488	0
1	815	1699.903565993872	0
1	817	1700.164731177748	1
1	818	1700.389091065707	1
1	820	1704.09610134274	1
1	823	1710.476124660103	1
1	824	1713.061136113138	0
1	839	1732.70694833244	0
1	840	1732.914975828336	0
1	842	1739.431147144398	0
1	846	1743.465202265492	1
1	849	1749.110113364327	1
1	851	1749.865499275879	1
1	856	1766.337715854552	1
1	857	1767.337433857547	0
1	866	1781.419902188234	0
1	872	1794.03587162119	1
1	873	1799.447228643875	1
1	876	1801.736336421762	0
1	914	1854.253817291772	0
1	919	1864.111507854464	0
1	935	1890.882005542659	0
1	937	1890.959832848247	1
1	938	1892.526856298367	1
1	939	1896.46517989115	0
1	944	1906.259346134547	0
1	945	1908.944350019394	0
1	953	1951.970516732074	0
1	958	1972.394384885881	0
1	960	1972.812470886184	0
1	967	1984.184017440829	0
1	980	2016.313752534131	0
1	985	2019.550945837422	0
1	989	2026.634220104932	0
1	996	2029.048594739697	0
1	1013	2113.398607569763	0
1	1014	2115.702356995043	0
1	1016	2122.859661153812	0
1	1017	2124.968710457234	0
1	1037	2162.021322230943	0
1	1038	2162.120799233528	0
1	1040	2165.890783281384	0
1	1041	2171.708673372119	0
1	1043	2172.746428742143	0
1	1044	2172.980008509691	0
1	1052	2189.245132141111	0
1	1053	2191.523045313153	0
1	1067	2233.879336630663	0
1	1068	2234.206641786131	0
1	1073	2239.267804364735	0
1	1074	2241.099140526959	0
1	1085	2252.616090301519	0
1	1086	2253.437615802688	0
1	1114	2345.378507754397	0
1	1115	2355.460201277653	0
1	1123	2358.900332232856	0
1	1124	2359.104050791755	0
1	1127	2370.717925181556	0
1	1130	2380.868795017123	0
1	1139	2418.046391651931	0
1	1140	2419.586757229489	0
1	1142	2423.759721043991	0
1	1143	2429.155491880343	0
1	1148	2453.422693129747	0
1	1149	2458.133069490789	0
1	1151	2458.491186840242	0
1	1152	2462.775959421297	0
1	1160	2480.169364514395	0
1	1163	2481.350023540811	0
2	152	368.831334544424	0
2	155	389.110670426301	0
2	158	392.470448185346	0
2	164	406.857955342912	0
2	175	426.413797271532	0
2	180	433.888258083523	5.672107762975
2	185	436.360081133576	6.794513953836
2	192	451.547977488512	12.179313534453
2	207	479.622471457736	26.203978231052
2	208	480.281607792823	20.000807206641
2	209	481.910306620337	16.488870227031
2	212	486.414428086337	18.083200911702
2	239	532.267433263168	0
2	242	534.253638120848	1.783064973418
2	255	551.950976185058	0
2	263	562.599858163725	0
2	276	568.425019604697	2.257940274605
2	286	579.735833390176	0
2	293	587.83685848517	0
2	298	595.48104758651	7.211592601464
2	299	599.247692498882	10.208469004482
2	302	605.436577269174	0
2	308	613.330361908421	0
2	311	619.203134966532	4.256884963025
2	317	625.020069418922	0
2	325	635.493773863116	0
2	329	651.93908874367	0
2	336	660.705504415114	1.225802087153
2	337	670.18368851737	9.566857799779
2	342	695.238966176383	5.180661358697
2	356	724.440579512485	0
2	365	742.817448148488	0
2	370	752.94857687453	2.511946156281
2	373	762.255318394249	1.015034846982
2	384	790.488478229844	22.359097112685
2	387	797.635714866843	21.344458877419
2	404	836.22542674111	0
2	411	847.365206813456	10.632512348693
2	430	886.875913427531	0
2	433	894.64809894539	5.896444526567
2	439	906.16981819263	0
2	449	944.66435003739	0
2	470	972.102428593869	0
2	482	985.612944754038	0
2	485	992.436786322198	0
2	490	998.179883676915	0
2	493	1002.472414686305	0
2	512	1031.121101478372	0
2	524	1059.823730250331	0
2	531	1076.500790552327	1.136352677695
2	557	1170.367082354032	0
2	560	1180.109766243292	0
2	573	1212.664506770435	0
2	587	1233.325160215043	0
2	602	1269.88515367764	0
2	605	1274.6853271525	1.033328915308
2	624	1313.594953314613	35.542017896073
2	627	1316.139897457481	13.385558817828
2	628	1317.031190237999	11.457071269365
2	635	1324.878822447943	18.483760058863
2	638	1330.612375934401	15.950823197186
2	641	1333.174311656304	0.190681418397
2	665	1359.150555686224	0
2	668	1363.697256601952	0
2	692	1444.719652389594	0
2	697	1450.44504109149	0
2	700	1458.253432588865	7.431742846011
2	706	1461.008519765219	0
2	725	1486.539293398296	0
2	731	1511.564798431682	0
2	737	1522.912315959582	0
2	761	1554.359213467081	0
2	769	1573.55463600345	0
2	785	1618.60610114374	0
2	797	1647.732977010864	0
2	800	1659.239793547637	6.523493307511
2	815	1699.903565993872	0
2	818	1700.389091065707	0.224359887959
2	823	1710.476124660103	6.380023317363
2	839	1732.70694833244	0
2	842	1739.431147144398	0
2	849	1749.110113364327	5.644911098835
2	856	1766.337715854552	16.472216578673
2	866	1781.419902188234	0
2	873	1799.447228643875	5.411357022685
2	914	1854.253817291772	0
2	935	1890.882005542659	0
2	938	1892.526856298367	1.56702345012
2	944	1906.259346134547	0
2	953	1951.970516732074	0
2	960	1972.812470886184	0
2	980	2016.313752534131	0
2	989	2026.634220104932	0
2	1013	2113.398607569763	0
2	1016	2122.859661153812	0
2	1037	2162.021322230943	0
2	1040	2165.890783281384	0
2	1043	2172.746428742143	0
2	1052	2189.245132141111	0
2	1067	2233.879336630663	0
2	1073	2239.267804364735	0
2	1085	2252.616090301519	0
2	1114	2345.378507754397	0
2	1123	2358.900332232856	0
2	1127	2370.717925181556	0
2	1139	2418.046391651931	0
2	1142	2423.759721043991	0
2	1148	2453.422693129747	0
2	1151	2458.491186840242	0
2	1160	2480.169364514395	0
3	153	375.1227981609	14
3	156	392.381356244795	15
3	161	397.993784783744	16
3	165	408.49418123919	17
3	180	433.888258083523	18
3	185	436.360081133576	19
3	192	451.547977488512	20
3	207	479.622471457736	21
3	208	480.281607792823	22
3	209	481.910306620337	23
3	212	486.414428086337	24
3	213	486.922500998314	25
3	242	534.253638120848	26
3	247	540.898349834745	27
3	256	558.177005693448	28
3	276	568.425019604697	29
3	277	569.601464196771	30
3	287	581.659160612678	31
3	298	595.48104758651	32
3	299	599.247692498882	33
3	300	602.126174259071	34
3	303	606.192458843415	35
3	311	619.203134966532	36
3	312	619.664146285111	37
3	320	626.570480311854	38
3	326	649.355915719029	39
3	336	660.705504415114	40
3	337	670.18368851737	41
3	342	695.238966176383	42
3	345	706.25585502405	43
3	359	728.335718759196	44
3	370	752.94857687453	45
3	373	762.255318394249	46
3	384	790.488478229844	47
3	387	797.635714866843	48
3	390	802.801898762698	49
3	411	847.365206813456	50
3	412	857.449744352612	51
3	433	894.64809894539	52
3	434	897.930110713504	53
3	440	908.06059576687	54
3	450	944.831340173748	55
3	477	981.891204977044	56
3	483	989.24526432616	57
3	486	995.983326147832	58
3	491	998.847659453747	59
3	498	1014.719556470249	60
3	517	1041.317935686792	61
3	531	1076.500790552327	62
3	532	1083.679353300373	63
3	558	1172.507241917795	64
3	561	1185.108159613176	65
3	574	1214.306284422127	66
3	588	1235.248270546515	67
3	605	1274.6853271525	68
3	624	1313.594953314613	69
3	627	1316.139897457481	70
3	628	1317.031190237999	71
3	635	1324.878822447943	72
3	638	1330.612375934401	73
3	641	1333.174311656304	74
3	648	1337.156264911054	75
3	666	1361.256919301887	76
3	669	1366.812692441684	77
3	693	1449.329128346843	78
3	700	1458.253432588865	79
3	701	1458.620137081661	80
3	707	1463.347374884437	81
3	726	1492.757786797626	82
3	732	1514.635210116819	83
3	742	1529.570503611471	84
3	764	1556.664075318141	85
3	770	1573.600837228158	86
3	792	1636.256046102989	87
3	800	1659.239793547637	88
3	807	1674.298066252488	89
3	818	1700.389091065707	90
3	823	1710.476124660103	91
3	824	1713.061136113138	92
3	840	1732.914975828336	93
3	849	1749.110113364327	94
3	856	1766.337715854552	95
3	857	1767.337433857547	96
3	873	1799.447228643875	97
3	876	1801.736336421762	98
3	919	1864.111507854464	99
3	938	1892.526856298367	100
3	939	1896.46517989115	101
3	945	1908.944350019394	102
3	958	1972.394384885881	103
3	967	1984.184017440829	104
3	985	2019.550945837422	105
3	996	2029.048594739697	106
3	1014	2115.702356995043	107
3	1017	2124.968710457234	108
3	1038	2162.120799233528	109
3	1041	2171.708673372119	110
3	1044	2172.980008509691	111
3	1053	2191.523045313153	112
3	1068	2234.206641786131	113
3	1074	2241.099140526959	114
3	1086	2253.437615802688	115
3	1115	2355.460201277653	116
3	1124	2359.104050791755	117
3	1130	2380.868795017123	118
3	1140	2419.586757229489	119
3	1143	2429.155491880343	120
3	1149	2458.133069490789	121
3	1152	2462.775959421297	122
3	1163	2481.350023540811	123
4	153	375.1227981609	6.291463616476
4	156	392.381356244795	3.270685818494
4	161	397.993784783744	5.523336598398
4	165	408.49418123919	1.636225896278
4	180	433.888258083523	7.474460811991
4	185	436.360081133576	8.143930813028
4	192	451.547977488512	21.982410308772
4	207	479.622471457736	40.253807503677
4	208	480.281607792823	26.863114566139
4	209	481.910306620337	21.629506034155
4	212	486.414428086337	20.992991693031
4	213	486.922500998314	18.591273823679
4	242	534.253638120848	1.98620485768
4	247	540.898349834745	8.427776687315
4	256	558.177005693448	6.22602950839
4	276	568.425019604697	5.825161440972
4	277	569.601464196771	3.434384866679
4	287	581.659160612678	1.923327222502
4	298	595.48104758651	7.64418910134
4	299	599.247692498882	10.978237513836
4	300	602.126174259071	13.086950764671
4	303	606.192458843415	0.755881574241
4	311	619.203134966532	5.872773058111
4	312	619.664146285111	4.717896281604
4	320	626.570480311854	1.550410892932
4	326	649.355915719029	13.862141855913
4	336	660.705504415114	8.766415671444
4	337	670.18368851737	10.703986189409
4	342	695.238966176383	34.622135458792
4	345	706.25585502405	16.197550206364
4	359	728.335718759196	3.895139246711
4	370	752.94857687453	10.131128726042
4	373	762.255318394249	11.818687676
4	384	790.488478229844	29.248194682577
4	387	797.635714866843	29.506333749684
4	390	802.801898762698	26.510642773274
4	411	847.365206813456	11.139780072346
4	412	857.449744352612	20.717049887849
4	433	894.64809894539	7.772185517859
4	434	897.930110713504	9.178456294681
4	440	908.06059576687	1.89077757424
4	450	944.831340173748	0.166990136358
4	477	981.891204977044	9.788776383175
4	483	989.24526432616	3.632319572122
4	486	995.983326147832	3.546539825634
4	491	998.847659453747	0.667775776832
4	498	1014.719556470249	12.247141783944
4	517	1041.317935686792	10.19683420842
4	531	1076.500790552327	16.677060301996
4	532	1083.679353300373	8.314915425741
4	558	1172.507241917795	2.140159563763
4	561	1185.108159613176	4.998393369884
4	574	1214.306284422127	1.641777651692
4	588	1235.248270546515	1.923110331472
4	605	1274.6853271525	4.80017347486
4	624	1313.594953314613	39.942955077421
4	627	1316.139897457481	38.086962038941
4	628	1317.031190237999	14.276851598346
4	635	1324.878822447943	19.304703479309
4	638	1330.612375934401	24.217313545321
4	641	1333.174311656304	18.512758919089
4	648	1337.156264911054	4.172634673147
4	666	1361.256919301887	2.106363615663
4	669	1366.812692441684	3.115435839732
4	693	1449.329128346843	4.609475957249
4	700	1458.253432588865	7.808391497375
4	701	1458.620137081661	7.798447338807
4	707	1463.347374884437	2.338855119218
4	726	1492.757786797626	6.21849339933
4	732	1514.635210116819	3.070411685137
4	742	1529.570503611471	6.658187651889
4	764	1556.664075318141	2.30486185106
4	770	1573.600837228158	0.046201224708
4	792	1636.256046102989	17.649944959249
4	800	1659.239793547637	11.506816536773
4	807	1674.298066252488	21.581766012362
4	818	1700.389091065707	0.485525071835
4	823	1710.476124660103	10.311393482355
4	824	1713.061136113138	8.965034770398
4	840	1732.914975828336	0.208027495896
4	849	1749.110113364327	9.678966219929
4	856	1766.337715854552	22.87251358906
4	857	1767.337433857547	17.471934581668
4	873	1799.447228643875	18.027326455641
4	876	1801.736336421762	7.700464800572
4	919	1864.111507854464	9.857690562692
4	938	1892.526856298367	1.644850755708
4	939	1896.46517989115	5.505347042903
4	945	1908.944350019394	2.685003884847
4	958	1972.394384885881	20.423868153807
4	967	1984.184017440829	11.371546554645
4	985	2019.550945837422	3.237193303291
4	996	2029.048594739697	2.414374634765
4	1014	2115.702356995043	2.30374942528
4	1017	2124.968710457234	2.109049303422
4	1038	2162.120799233528	0.099477002585
4	1041	2171.708673372119	5.817890090735
4	1044	2172.980008509691	0.233579767548
4	1053	2191.523045313153	2.277913172042
4	1068	2234.206641786131	0.327305155468
4	1074	2241.099140526959	1.831336162224
4	1086	2253.437615802688	0.821525501169
4	1115	2355.460201277653	10.081693523256
4	1124	2359.104050791755	0.203718558899
4	1130	2380.868795017123	10.150869835567
4	1140	2419.586757229489	1.540365577558
4	1143	2429.155491880343	5.395770836352
4	1149	2458.133069490789	4.710376361042
4	1152	2462.775959421297	4.284772581055
4	1163	2481.350023540811	1.180659026416
5	160	397.949897162909	1
5	167	411.471568794108	1
5	170	420.230523895315	1
5	173	423.626370630007	1
5	182	433.979021401061	2
5	184	434.997459550596	3
5	187	436.463358371075	4
5	191	447.3390123704	5
5	198	460.684561441791	6
5	200	462.209260645508	7
5	206	471.80022684556	8
5	211	482.12454206374	9
5	224	501.94602011595	1
5	227	504.152873383937	1
5	230	506.764314853358	1
5	233	516.720497587459	1
5	236	525.084643806652	1
5	244	535.727868267657	1
5	246	537.018404049543	2
5	251	549.634151508763	1
5	253	551.56278072711	2
5	258	559.039735221251	3
5	265	562.877230825547	1
5	267	562.954784115561	2
5	269	565.008561718757	3
5	271	565.430729754966	4
5	275	568.095931702788	5
5	279	571.345060115002	6
5	290	582.639845148548	1
5	305	608.459123519515	1
5	314	622.936509287057	1
5	319	626.569211957683	1
5	323	631.689727490417	1
5	331	659.407904956321	1
5	339	679.657796540349	2
5	344	701.327193298871	3
5	350	713.90688556752	1
5	353	720.086850441601	1
5	358	727.457895586696	1
5	361	733.313309239065	2
5	367	749.354740548087	1
5	377	776.276508363408	2
5	381	777.28756776415	3
5	383	787.378396625648	4
5	386	790.643643360153	5
5	389	800.042271453348	6
5	398	810.570050040013	1
5	401	817.725022293353	1
5	408	839.515907787457	1
5	410	841.688057020289	2
5	416	862.791215186079	1
5	419	869.66179205242	1
5	422	876.497427822597	1
5	425	877.513300832293	1
5	428	886.270071100297	1
5	437	902.631208475954	1
5	443	920.651580677701	1
5	446	936.116745149452	1
5	452	945.211657223258	1
5	455	958.429144938276	1
5	458	965.565444506313	1
5	461	965.738090244711	1
5	463	966.252998812531	2
5	466	969.063236927235	2
5	472	973.705196395811	1
5	474	975.394861851765	2
5	476	981.092227947627	3
5	488	997.320396551664	1
5	495	1004.131180005746	2
5	497	1009.808859567802	3
5	503	1017.930388621933	1
5	506	1022.419777073105	1
5	509	1025.300882535409	1
5	514	1037.939473070161	1
5	516	1039.229428256462	2
5	521	1049.658067412039	1
5	526	1061.06979822698	1
5	528	1071.919528734719	2
5	536	1095.56391038071	1
5	539	1103.766454948256	1
5	542	1110.542400832551	1
5	545	1123.489569023027	1
5	548	1124.218693505945	1
5	551	1152.481030913731	1
5	554	1158.036682929179	1
5	563	1197.501637819124	1
5	566	1200.101138425325	1
5	569	1211.222097662782	1
5	571	1211.487149992353	2
5	578	1222.187040243271	1
5	581	1229.137359880271	1
5	584	1230.742420810067	1
5	590	1241.579059115042	1
5	593	1243.485386794217	1
5	596	1259.835760388708	1
5	599	1261.215077139916	1
5	609	1281.144771545962	1
5	611	1286.813517328929	2
5	613	1290.596789691155	3
5	619	1305.962453132044	4
5	623	1312.995428447974	5
5	630	1317.376687031108	6
5	632	1320.216093915217	7
5	634	1324.53062450491	8
5	637	1325.881155680585	9
5	643	1335.272079502913	10
5	645	1335.806599765196	11
5	647	1336.515749204007	12
5	652	1342.118909752105	11
5	671	1384.84673323077	1
5	674	1386.893093362784	1
5	677	1391.798389368981	1
5	680	1403.202839834223	1
5	682	1403.920456823309	2
5	686	1420.273671390911	1
5	689	1440.173971765543	1
5	695	1449.518260083194	1
5	703	1460.539974187747	2
5	710	1467.848024405061	1
5	712	1469.095230486552	2
5	714	1469.985964243131	3
5	719	1480.056475120775	1
5	721	1481.268096005576	2
5	728	1497.204046517625	1
5	734	1518.875082245208	1
5	739	1525.623965836859	1
5	741	1527.782095723479	2
5	744	1529.596622400465	3
5	747	1531.339929549102	3
5	752	1539.152779654656	1
5	754	1540.895297695028	2
5	758	1552.853280549139	1
5	763	1554.383510647309	1
5	767	1572.961662525789	1
5	772	1575.714470806213	2
5	776	1583.828528454689	1
5	779	1598.809142560443	1
5	782	1613.696400737282	1
5	787	1621.907817106086	1
5	789	1622.31002925285	2
5	791	1624.358444580792	3
5	802	1663.757812045068	1
5	804	1666.416554936188	2
5	806	1672.64424859245	3
5	812	1680.526224448561	1
5	822	1710.318132843612	1
5	826	1714.293339977835	2
5	830	1718.084805929546	1
5	833	1725.484517705623	1
5	836	1726.975676381114	1
5	844	1743.294389927774	1
5	848	1744.421660029402	2
5	853	1755.941372109301	3
5	855	1763.668176453331	4
5	863	1770.221910112845	1
5	868	1790.113433138279	1
5	870	1791.583001313832	2
5	875	1801.182068619676	3
5	881	1804.051889999432	1
5	884	1816.993400954675	1
5	887	1819.834835112653	1
5	890	1821.339737626092	1
5	893	1825.14610524439	1
5	896	1828.541154669257	1
5	898	1828.717307722878	2
5	901	1829.424264379244	2
5	905	1834.169884143891	1
5	908	1839.70340363286	1
5	911	1843.468980196812	1
5	916	1855.716236927823	1
5	918	1861.806249823189	2
5	923	1869.715884528952	1
5	926	1871.377560180694	1
5	929	1873.028429102896	1
5	932	1877.997101666317	1
5	941	1903.84832920382	1
5	947	1910.23864665529	1
5	950	1923.432083544034	1
5	955	1960.039365907734	1
5	957	1968.288958189991	2
5	962	1975.326106130925	3
5	964	1980.980090044125	4
5	966	1982.684070999175	5
5	974	1999.747928399395	1
5	977	2010.133410106158	1
5	982	2016.520771429637	1
5	984	2016.753743487101	2
5	991	2027.642227590007	1
5	993	2027.966526499892	2
5	995	2028.769498076468	3
5	1001	2033.860208532856	1
5	1004	2049.487973869718	1
5	1007	2060.097357441063	1
5	1010	2069.15897862647	1
5	1019	2134.481129799226	1
5	1022	2142.074008915878	1
5	1025	2146.781749050434	1
5	1027	2146.784535038275	2
5	1031	2148.086814447921	1
5	1034	2158.500431566153	1
5	1046	2177.132411439339	1
5	1049	2177.799656478916	1
5	1055	2193.954006118779	1
5	1058	2206.945878337797	1
5	1061	2208.441259711246	1
5	1064	2209.854623402569	1
5	1070	2237.548623821418	1
5	1076	2241.407922421277	1
5	1078	2241.759293760181	2
5	1081	2244.136904210264	2
5	1088	2258.445932998195	1
5	1090	2258.665064005915	2
5	1094	2297.678040884525	1
5	1096	2298.970300673345	2
5	1100	2302.107353899143	1
5	1103	2309.250515592818	1
5	1106	2319.217539614216	1
5	1109	2341.010863998471	1
5	1111	2343.787560148528	2
5	1117	2356.269138156631	2
5	1121	2357.424688540216	1
5	1129	2371.83423005954	1
5	1133	2405.260191258795	1
5	1136	2409.872830752608	1
5	1145	2435.258806490311	1
5	1154	2465.030252498576	1
5	1157	2475.340337087485	1
5	1162	2480.296612191078	1
5	1166	2486.589377076387	1
5	1169	2495.328009140238	1
6	160	397.949897162909	0
6	162	398.561391460007	0
6	167	411.471568794108	0
6	168	411.489942106296	0
6	170	420.230523895315	0
6	171	420.699232725463	0
6	173	423.626370630007	0
6	182	433.979021401061	1
6	184	434.997459550596	2
6	187	436.463358371075	3
6	191	447.3390123704	4
6	198	460.684561441791	5
6	200	462.209260645508	6
6	206	471.80022684556	7
6	211	482.12454206374	8
6	214	487.277949026024	8
6	215	487.926731571497	7
6	216	488.298951885939	6
6	217	488.517363212649	5
6	218	490.359992743751	4
6	219	490.724320003279	3
6	220	490.74697197961	2
6	221	492.615410417624	1
6	222	493.485337195006	0
6	224	501.94602011595	0
6	225	503.80133881228	0
6	227	504.152873383937	0
6	228	505.079631492563	0
6	230	506.764314853358	0
6	231	508.366763675269	0
6	233	516.720497587459	0
6	234	518.605918876121	0
6	236	525.084643806652	0
6	237	527.852488670626	0
6	244	535.727868267657	0
6	246	537.018404049543	1
6	248	541.276488513635	1
6	249	541.52126222458	0
6	251	549.634151508763	0
6	253	551.56278072711	1
6	258	559.039735221251	2
6	259	559.628733275973	2
6	260	560.641183921723	1
6	261	561.991822679771	0
6	265	562.877230825547	0
6	267	562.954784115561	1
6	269	565.008561718757	2
6	271	565.430729754966	3
6	275	568.095931702788	4
6	279	571.345060115002	5
6	280	571.854190799978	5
6	281	574.179243847878	4
6	282	574.63675747517	3
6	283	576.652339990944	2
6	284	577.594583173823	1
6	288	581.988273917701	0
6	290	582.639845148548	0
6	291	583.314376869614	0
6	305	608.459123519515	0
6	306	609.744795120701	0
6	314	622.936509287057	0
6	315	623.796640108675	0
6	319	626.569211957683	0
6	321	627.319342453196	0
6	323	631.689727490417	0
6	327	649.912772305648	0
6	331	659.407904956321	0
6	339	679.657796540349	1
6	344	701.327193298871	2
6	346	707.704503062641	2
6	347	708.348278783153	1
6	348	708.598089898456	0
6	350	713.90688556752	0
6	351	714.729845286444	0
6	353	720.086850441601	0
6	354	721.467406752465	0
6	358	727.457895586696	0
6	361	733.313309239065	1
6	362	734.203846208743	1
6	363	735.668497009858	0
6	367	749.354740548087	0
6	377	776.276508363408	1
6	381	777.28756776415	2
6	383	787.378396625648	3
6	386	790.643643360153	4
6	389	800.042271453348	5
6	391	802.93887431156	5
6	392	803.414530643015	4
6	393	803.924463707558	3
6	394	804.379363908388	2
6	395	805.419194226855	1
6	396	807.097242702673	0
6	398	810.570050040013	0
6	399	810.586829956756	0
6	401	817.725022293353	0
6	402	817.874959533384	0
6	408	839.515907787457	0
6	410	841.688057020289	1
6	413	858.908730253794	1
6	414	859.901195593603	0
6	416	862.791215186079	0
6	417	862.846926562864	0
6	419	869.66179205242	0
6	420	872.221202101831	0
6	422	876.497427822597	0
6	423	876.786826340699	0
6	425	877.513300832293	0
6	426	877.853280266967	0
6	428	886.270071100297	0
6	435	898.294041507905	0
6	437	902.631208475954	0
6	441	909.643748143475	0
6	443	920.651580677701	0
6	444	921.118707094883	0
6	446	936.116745149452	0
6	447	936.214199237507	0
6	452	945.211657223258	0
6	453	945.802921347713	0
6	455	958.429144938276	0
6	456	959.701099258572	0
6	458	965.565444506313	0
6	459	965.62239422238	0
6	461	965.738090244711	0
6	463	966.252998812531	1
6	464	968.680848910435	1
6	466	969.063236927235	1
6	467	970.868042661374	1
6	468	971.960172872699	0
6	472	973.705196395811	0
6	474	975.394861851765	1
6	476	981.092227947627	2
6	478	983.731635922286	2
6	479	983.829783044445	1
6	480	985.116835359776	0
6	488	997.320396551664	0
6	495	1004.131180005746	1
6	497	1009.808859567802	2
6	499	1015.704928472842	2
6	500	1016.285685998131	1
6	501	1016.999957271984	0
6	503	1017.930388621933	0
6	504	1019.626666682381	0
6	506	1022.419777073105	0
6	507	1022.582333121865	0
6	509	1025.300882535409	0
6	510	1026.414477635357	0
6	514	1037.939473070161	0
6	516	1039.229428256462	1
6	518	1042.032534124583	1
6	519	1042.218522478592	0
6	521	1049.658067412039	0
6	522	1050.438989930095	0
6	526	1061.06979822698	0
6	528	1071.919528734719	1
6	533	1083.988438905509	1
6	534	1083.993367907799	0
6	536	1095.56391038071	0
6	537	1097.599573239798	0
6	539	1103.766454948256	0
6	540	1104.139546877036	0
6	542	1110.542400832551	0
6	543	1110.709838361593	0
6	545	1123.489569023027	0
6	546	1123.564209938254	0
6	548	1124.218693505945	0
6	549	1126.799780015679	0
6	551	1152.481030913731	0
6	552	1152.971994092073	0
6	554	1158.036682929179	0
6	555	1160.619485688479	0
6	563	1197.501637819124	0
6	564	1198.40958005146	0
6	566	1200.101138425325	0
6	567	1200.238061851681	0
6	569	1211.222097662782	0
6	571	1211.487149992353	1
6	575	1215.285401565839	1
6	576	1215.480964670273	0
6	578	1222.187040243271	0
6	579	1223.1642380985	0
6	581	1229.137359880271	0
6	582	1229.833115118972	0
6	584	1230.742420810067	0
6	585	1231.239090315643	0
6	590	1241.579059115042	0
6	591	1242.590384458462	0
6	593	1243.485386794217	0
6	594	1245.552239207937	0
6	596	1259.835760388708	0
6	597	1260.517790757204	0
6	599	1261.215077139916	0
6	600	1263.712421333213	0
6	609	1281.144771545962	0
6	611	1286.813517328929	1
6	613	1290.596789691155	2
6	619	1305.962453132044	3
6	623	1312.995428447974	4
6	630	1317.376687031108	5
6	632	1320.216093915217	6
6	634	1324.53062450491	7
6	637	1325.881155680585	8
6	643	1335.272079502913	9
6	645	1335.806599765196	10
6	647	1336.515749204007	11
6	649	1339.068039564799	11
6	650	1339.406460231757	10
6	652	1342.118909752105	10
6	653	1342.31689645361	10
6	654	1344.065946289834	9
6	655	1344.131570702075	8
6	656	1344.306476396436	7
6	657	1347.234206258667	6
6	658	1348.840627175517	5
6	659	1349.441158408108	4
6	660	1350.843408678807	3
6	661	1351.529820523597	2
6	662	1352.10103097232	1
6	663	1352.173161022676	0
6	671	1384.84673323077	0
6	672	1386.473770919439	0
6	674	1386.893093362784	0
6	675	1386.963791825655	0
6	677	1391.798389368981	0
6	678	1396.529101647882	0
6	680	1403.202839834223	0
6	682	1403.920456823309	1
6	683	1404.15423124132	1
6	684	1404.529082853356	0
6	686	1420.273671390911	0
6	687	1420.671991179802	0
6	689	1440.173971765543	0
6	690	1440.206839564247	0
6	695	1449.518260083194	0
6	703	1460.539974187747	1
6	704	1460.927442877327	1
6	708	1464.54847293161	0
6	710	1467.848024405061	0
6	712	1469.095230486552	1
6	714	1469.985964243131	2
6	715	1472.080581788699	2
6	716	1472.247542854438	1
6	717	1472.472700603272	0
6	719	1480.056475120775	0
6	721	1481.268096005576	1
6	722	1482.009722111549	1
6	723	1483.504900719827	0
6	728	1497.204046517625	0
6	729	1497.9788711582	0
6	734	1518.875082245208	0
6	735	1519.360981568684	0
6	739	1525.623965836859	0
6	741	1527.782095723479	1
6	744	1529.596622400465	2
6	745	1529.690859095038	2
6	747	1531.339929549102	2
6	748	1532.369255410809	2
6	749	1534.132333395609	1
6	750	1535.560389632471	0
6	752	1539.152779654656	0
6	754	1540.895297695028	1
6	755	1541.046004839497	1
6	756	1541.137986368475	0
6	758	1552.853280549139	0
6	759	1553.070414140353	0
6	763	1554.383510647309	0
6	765	1557.17153763463	0
6	767	1572.961662525789	0
6	772	1575.714470806213	1
6	773	1575.973268054676	1
6	774	1577.71215217597	0
6	776	1583.828528454689	0
6	777	1584.469809026528	0
6	779	1598.809142560443	0
6	780	1600.049533379974	0
6	782	1613.696400737282	0
6	783	1613.888201636605	0
6	787	1621.907817106086	0
6	789	1622.31002925285	1
6	791	1624.358444580792	2
6	793	1638.314149777608	2
6	794	1638.6117270792	1
6	795	1638.793868585548	0
6	802	1663.757812045068	0
6	804	1666.416554936188	1
6	806	1672.64424859245	2
6	808	1674.465302816253	2
6	809	1677.354473633332	1
6	810	1678.199539466698	0
6	812	1680.526224448561	0
6	813	1680.84586713469	0
6	822	1710.318132843612	0
6	826	1714.293339977835	1
6	827	1715.07675960318	1
6	828	1718.040800120899	0
6	830	1718.084805929546	0
6	831	1719.448839973289	0
6	833	1725.484517705623	0
6	834	1726.550581021456	0
6	836	1726.975676381114	0
6	837	1727.806166908093	0
6	844	1743.294389927774	0
6	848	1744.421660029402	1
6	853	1755.941372109301	2
6	855	1763.668176453331	3
6	858	1767.522986917411	3
6	859	1768.75783378356	2
6	860	1769.118581002724	1
6	861	1769.861758851052	0
6	863	1770.221910112845	0
6	864	1770.482340995535	0
6	868	1790.113433138279	0
6	870	1791.583001313832	1
6	875	1801.182068619676	2
6	877	1802.358139999555	2
6	878	1802.581278773429	1
6	879	1802.915601698016	0
6	881	1804.051889999432	0
6	882	1804.277697310015	0
6	884	1816.993400954675	0
6	885	1818.102792055244	0
6	887	1819.834835112653	0
6	888	1820.346763881033	0
6	890	1821.339737626092	0
6	891	1821.629503415528	0
6	893	1825.14610524439	0
6	894	1825.28307465524	0
6	896	1828.541154669257	0
6	898	1828.717307722878	1
6	899	1828.98197631157	1
6	901	1829.424264379244	1
6	902	1830.462388333043	1
6	903	1832.417832183356	0
6	905	1834.169884143891	0
6	906	1834.184858238083	0
6	908	1839.70340363286	0
6	909	1840.170106415705	0
6	911	1843.468980196812	0
6	912	1845.397244937623	0
6	916	1855.716236927823	0
6	918	1861.806249823189	1
6	920	1865.139616192746	1
6	921	1865.740572933372	0
6	923	1869.715884528952	0
6	924	1869.941496179192	0
6	926	1871.377560180694	0
6	927	1871.845518395761	0
6	929	1873.028429102896	0
6	930	1873.170461253682	0
6	932	1877.997101666317	0
6	933	1878.19386249354	0
6	941	1903.84832920382	0
6	942	1903.94676957517	0
6	947	1910.23864665529	0
6	948	1910.861780370113	0
6	950	1923.432083544034	0
6	951	1923.501275960381	0
6	955	1960.039365907734	0
6	957	1968.288958189991	1
6	962	1975.326106130925	2
6	964	1980.980090044125	3
6	966	1982.684070999175	4
6	968	1984.615330091782	4
6	969	1987.437462097435	3
6	970	1988.767115268924	2
6	971	1989.04567591254	1
6	972	1990.975463286765	0
6	974	1999.747928399395	0
6	975	1999.931191589137	0
6	977	2010.133410106158	0
6	978	2010.799206620895	0
6	982	2016.520771429637	0
6	984	2016.753743487101	1
6	986	2022.219455776712	1
6	987	2022.940729674292	0
6	991	2027.642227590007	0
6	993	2027.966526499892	1
6	995	2028.769498076468	2
6	997	2029.832740573024	2
6	998	2030.496158299433	1
6	999	2030.808047960737	0
6	1001	2033.860208532856	0
6	1002	2034.721028222906	0
6	1004	2049.487973869718	0
6	1005	2049.62364103546	0
6	1007	2060.097357441063	0
6	1008	2060.698529237553	0
6	1010	2069.15897862647	0
6	1011	2070.771131152536	0
6	1019	2134.481129799226	0
6	1020	2138.42209983539	0
6	1022	2142.074008915878	0
6	1023	2143.5482338911	0
6	1025	2146.781749050434	0
6	1027	2146.784535038275	1
6	1028	2147.099304763266	1
6	1029	2147.901785234864	0
6	1031	2148.086814447921	0
6	1032	2149.483807851875	0
6	1034	2158.500431566153	0
6	1035	2158.528592061561	0
6	1046	2177.132411439339	0
6	1047	2177.666017903686	0
6	1049	2177.799656478916	0
6	1050	2178.061521190662	0
6	1055	2193.954006118779	0
6	1056	2195.324323354328	0
6	1058	2206.945878337797	0
6	1059	2207.816407740725	0
6	1061	2208.441259711246	0
6	1062	2208.839912634308	0
6	1064	2209.854623402569	0
6	1065	2210.856037259238	0
6	1070	2237.548623821418	0
6	1071	2238.375656274639	0
6	1076	2241.407922421277	0
6	1078	2241.759293760181	1
6	1079	2242.907581430813	1
6	1081	2244.136904210264	1
6	1082	2244.626270572937	1
6	1083	2245.745312576073	0
6	1088	2258.445932998195	0
6	1090	2258.665064005915	1
6	1091	2258.833464781324	1
6	1092	2259.234126771077	0
6	1094	2297.678040884525	0
6	1096	2298.970300673345	1
6	1097	2301.428856641373	1
6	1098	2301.510227840433	0
6	1100	2302.107353899143	0
6	1101	2303.088310319299	0
6	1103	2309.250515592818	0
6	1104	2309.512316098546	0
6	1106	2319.217539614216	0
6	1107	2320.892267014182	0
6	1109	2341.010863998471	0
6	1111	2343.787560148528	1
6	1112	2345.150313155018	1
6	1117	2356.269138156631	1
6	1118	2356.559325766809	1
6	1119	2357.200410592519	0
6	1121	2357.424688540216	0
6	1125	2360.651621291972	0
6	1129	2371.83423005954	0
6	1131	2382.139941040845	0
6	1133	2405.260191258795	0
6	1134	2405.398184034842	0
6	1136	2409.872830752608	0
6	1137	2411.062741672487	0
6	1145	2435.258806490311	0
6	1146	2435.443587472724	0
6	1154	2465.030252498576	0
6	1155	2465.383778065416	0
6	1157	2475.340337087485	0
6	1158	2476.812039453385	0
6	1162	2480.296612191078	0
6	1164	2483.071814739783	0
6	1166	2486.589377076387	0
6	1167	2486.963422964454	0
6	1169	2495.328009140238	0
6	1170	2496.464746969334	0
7	161	397.993784783744	0.043887620835
7	167	411.471568794108	0
7	170	420.230523895315	0
7	173	423.626370630007	0
7	213	486.922500998314	60.508703726782
7	214	487.277949026024	53.298927624963
7	215	487.926731571497	52.929272020901
7	216	488.298951885939	51.835593514864
7	217	488.517363212649	41.178350842249
7	218	490.359992743751	29.67543130196
7	219	490.724320003279	28.515059357771
7	220	490.74697197961	18.94674513405
7	221	492.615410417624	10.490868353884
7	224	501.94602011595	0
7	227	504.152873383937	0
7	230	506.764314853358	0
7	233	516.720497587459	0
7	236	525.084643806652	0
7	247	540.898349834745	5.170481567088
7	248	541.276488513635	4.258084464092
7	251	549.634151508763	0
7	256	558.177005693448	6.614224966338
7	259	559.628733275973	7.677757090915
7	260	560.641183921723	1.601448700472
7	277	569.601464196771	6.724233371224
7	280	571.854190799978	8.899406684417
7	281	574.179243847878	9.170682129121
7	282	574.63675747517	9.206027720204
7	283	576.652339990944	8.556408288156
7	284	577.594583173823	6.249523058821
7	287	581.659160612678	1.923327222502
7	290	582.639845148548	0
7	305	608.459123519515	0
7	314	622.936509287057	0
7	320	626.570480311854	0.001268354171
7	323	631.689727490417	0
7	326	649.355915719029	13.862141855913
7	345	706.25585502405	46.847950067729
7	346	707.704503062641	28.046706522292
7	347	708.348278783153	7.021085484282
7	350	713.90688556752	0
7	353	720.086850441601	0
7	359	728.335718759196	0.8778231725
7	362	734.203846208743	0.890536969678
7	390	802.801898762698	53.447158214611
7	391	802.93887431156	26.662365948152
7	392	803.414530643015	26.126962878865
7	393	803.924463707558	16.54606708191
7	394	804.379363908388	13.735720548235
7	395	805.419194226855	5.376922773507
7	398	810.570050040013	0
7	401	817.725022293353	0
7	412	857.449744352612	17.933836565155
7	413	858.908730253794	17.220673233505
7	416	862.791215186079	0
7	419	869.66179205242	0
7	422	876.497427822597	0
7	425	877.513300832293	0
7	428	886.270071100297	0
7	434	897.930110713504	11.054197285973
7	437	902.631208475954	0
7	440	908.06059576687	1.89077757424
7	443	920.651580677701	0
7	446	936.116745149452	0
7	452	945.211657223258	0
7	455	958.429144938276	0
7	458	965.565444506313	0
7	461	965.738090244711	0
7	464	968.680848910435	2.427850097904
7	467	970.868042661374	1.804805734139
7	477	981.891204977044	8.186008581233
7	478	983.731635922286	8.336774070521
7	479	983.829783044445	2.737555096818
7	488	997.320396551664	0
7	491	998.847659453747	0.667775776832
7	498	1014.719556470249	12.247141783944
7	499	1015.704928472842	11.573748467096
7	500	1016.285685998131	6.476826430329
7	503	1017.930388621933	0
7	506	1022.419777073105	0
7	509	1025.300882535409	0
7	517	1041.317935686792	3.378462616631
7	518	1042.032534124583	2.803105868121
7	521	1049.658067412039	0
7	532	1083.679353300373	22.609555073393
7	533	1083.988438905509	12.06891017079
7	536	1095.56391038071	0
7	539	1103.766454948256	0
7	542	1110.542400832551	0
7	545	1123.489569023027	0
7	548	1124.218693505945	0
7	551	1152.481030913731	0
7	554	1158.036682929179	0
7	563	1197.501637819124	0
7	566	1200.101138425325	0
7	569	1211.222097662782	0
7	574	1214.306284422127	2.819134429774
7	575	1215.285401565839	2.620894795404
7	578	1222.187040243271	0
7	581	1229.137359880271	0
7	584	1230.742420810067	0
7	590	1241.579059115042	0
7	593	1243.485386794217	0
7	596	1259.835760388708	0
7	599	1261.215077139916	0
7	648	1337.156264911054	56.011493365092
7	649	1339.068039564799	52.25452223587
7	650	1339.406460231757	48.809670540602
7	653	1342.31689645361	36.354443321566
7	654	1344.065946289834	31.07051784186
7	655	1344.131570702075	26.754883670967
7	656	1344.306476396436	24.090382481219
7	657	1347.234206258667	22.703581753757
7	658	1348.840627175517	22.959471494932
7	659	1349.441158408108	14.169078905195
7	660	1350.843408678807	15.036808913611
7	661	1351.529820523597	15.01407131959
7	662	1352.10103097232	9.982121220215
7	671	1384.84673323077	0
7	674	1386.893093362784	0
7	677	1391.798389368981	0
7	680	1403.202839834223	0
7	683	1404.15423124132	0.233774418011
7	686	1420.273671390911	0
7	689	1440.173971765543	0
7	695	1449.518260083194	0
7	701	1458.620137081661	8.175095990171
7	704	1460.927442877327	0.38746868958
7	707	1463.347374884437	2.338855119218
7	710	1467.848024405061	0
7	715	1472.080581788699	2.985351302147
7	716	1472.247542854438	2.261578611307
7	719	1480.056475120775	0
7	722	1482.009722111549	0.741626105973
7	728	1497.204046517625	0
7	734	1518.875082245208	0
7	742	1529.570503611471	3.946537774612
7	745	1529.690859095038	1.908763371559
7	748	1532.369255410809	2.772633010344
7	749	1534.132333395609	2.792403846507
7	752	1539.152779654656	0
7	755	1541.046004839497	0.150707144469
7	758	1552.853280549139	0
7	764	1556.664075318141	2.280564670832
7	767	1572.961662525789	0
7	770	1573.600837228158	0.046201224708
7	773	1575.973268054676	0.258797248463
7	776	1583.828528454689	0
7	779	1598.809142560443	0
7	782	1613.696400737282	0
7	792	1636.256046102989	14.348228996903
7	793	1638.314149777608	16.004120524758
7	794	1638.6117270792	14.253282498408
7	807	1674.298066252488	10.54025420742
7	808	1674.465302816253	8.048747880065
7	809	1677.354473633332	4.710225040882
7	812	1680.526224448561	0
7	824	1713.061136113138	2.743003269526
7	827	1715.07675960318	0.783419625345
7	830	1718.084805929546	0
7	833	1725.484517705623	0
7	836	1726.975676381114	0
7	857	1767.337433857547	24.043043929773
7	858	1767.522986917411	23.101326888009
7	859	1768.75783378356	12.816461674259
7	860	1769.118581002724	5.450404549393
7	863	1770.221910112845	0
7	876	1801.736336421762	11.622903283483
7	877	1802.358139999555	10.775138685723
7	878	1802.581278773429	1.399210153753
7	881	1804.051889999432	0
7	884	1816.993400954675	0
7	887	1819.834835112653	0
7	890	1821.339737626092	0
7	893	1825.14610524439	0
7	896	1828.541154669257	0
7	899	1828.98197631157	0.264668588692
7	902	1830.462388333043	1.038123953799
7	905	1834.169884143891	0
7	908	1839.70340363286	0
7	911	1843.468980196812	0
7	919	1864.111507854464	8.395270926641
7	920	1865.139616192746	3.333366369557
7	923	1869.715884528952	0
7	926	1871.377560180694	0
7	929	1873.028429102896	0
7	932	1877.997101666317	0
7	941	1903.84832920382	0
7	947	1910.23864665529	0
7	950	1923.432083544034	0
7	958	1972.394384885881	12.355018978147
7	967	1984.184017440829	15.895059250838
7	968	1984.615330091782	11.802859205598
7	969	1987.437462097435	12.11135596651
7	970	1988.767115268924	7.787025224799
7	971	1989.04567591254	6.361604913365
7	974	1999.747928399395	0
7	977	2010.133410106158	0
7	985	2019.550945837422	3.030174407785
7	986	2022.219455776712	5.465712289611
7	996	2029.048594739697	1.40636714969
7	997	2029.832740573024	1.866214073132
7	998	2030.496158299433	1.726660222965
7	1001	2033.860208532856	0
7	1004	2049.487973869718	0
7	1007	2060.097357441063	0
7	1010	2069.15897862647	0
7	1019	2134.481129799226	0
7	1022	2142.074008915878	0
7	1025	2146.781749050434	0
7	1028	2147.099304763266	0.314769724991
7	1031	2148.086814447921	0
7	1034	2158.500431566153	0
7	1046	2177.132411439339	0
7	1049	2177.799656478916	0
7	1055	2193.954006118779	0
7	1058	2206.945878337797	0
7	1061	2208.441259711246	0
7	1064	2209.854623402569	0
7	1070	2237.548623821418	0
7	1076	2241.407922421277	0
7	1079	2242.907581430813	1.148287670632
7	1082	2244.626270572937	0.489366362673
7	1088	2258.445932998195	0
7	1091	2258.833464781324	0.168400775409
7	1094	2297.678040884525	0
7	1097	2301.428856641373	2.458555968028
7	1100	2302.107353899143	0
7	1103	2309.250515592818	0
7	1106	2319.217539614216	0
7	1109	2341.010863998471	0
7	1112	2345.150313155018	1.36275300649
7	1115	2355.460201277653	10.081693523256
7	1118	2356.559325766809	0.290187610178
7	1121	2357.424688540216	0
7	1124	2359.104050791755	0.203718558899
7	1130	2380.868795017123	9.034564957583
7	1133	2405.260191258795	0
7	1136	2409.872830752608	0
7	1145	2435.258806490311	0
7	1154	2465.030252498576	0
7	1157	2475.340337087485	0
7	1163	2481.350023540811	1.053411349733
7	1166	2486.589377076387	0
7	1169	2495.328009140238	0
8	162	398.561391460007	38
8	168	411.489942106296	39
8	171	420.699232725463	40
8	214	487.277949026024	41
8	215	487.926731571497	42
8	216	488.298951885939	43
8	217	488.517363212649	44
8	218	490.359992743751	45
8	219	490.724320003279	46
8	220	490.74697197961	47
8	221	492.615410417624	48
8	222	493.485337195006	49
8	225	503.80133881228	50
8	228	505.079631492563	51
8	231	508.366763675269	52
8	234	518.605918876121	53
8	237	527.852488670626	54
8	248	541.276488513635	55
8	249	541.52126222458	56
8	259	559.628733275973	57
8	260	560.641183921723	58
8	261	561.991822679771	59
8	280	571.854190799978	60
8	281	574.179243847878	61
8	282	574.63675747517	62
8	283	576.652339990944	63
8	284	577.594583173823	64
8	288	581.988273917701	65
8	291	583.314376869614	66
8	306	609.744795120701	67
8	315	623.796640108675	68
8	321	627.319342453196	69
8	327	649.912772305648	70
8	346	707.704503062641	71
8	347	708.348278783153	72
8	348	708.598089898456	73
8	351	714.729845286444	74
8	354	721.467406752465	75
8	362	734.203846208743	76
8	363	735.668497009858	77
8	391	802.93887431156	78
8	392	803.414530643015	79
8	393	803.924463707558	80
8	394	804.379363908388	81
8	395	805.419194226855	82
8	396	807.097242702673	83
8	399	810.586829956756	84
8	402	817.874959533384	85
8	413	858.908730253794	86
8	414	859.901195593603	87
8	417	862.846926562864	88
8	420	872.221202101831	89
8	423	876.786826340699	90
8	426	877.853280266967	91
8	435	898.294041507905	92
8	441	909.643748143475	93
8	444	921.118707094883	94
8	447	936.214199237507	95
8	453	945.802921347713	96
8	456	959.701099258572	97
8	459	965.62239422238	98
8	464	968.680848910435	99
8	467	970.868042661374	100
8	468	971.960172872699	101
8	478	983.731635922286	102
8	479	983.829783044445	103
8	480	985.116835359776	104
8	499	1015.704928472842	105
8	500	1016.285685998131	106
8	501	1016.999957271984	107
8	504	1019.626666682381	108
8	507	1022.582333121865	109
8	510	1026.414477635357	110
8	518	1042.032534124583	111
8	519	1042.218522478592	112
8	522	1050.438989930095	113
8	533	1083.988438905509	114
8	534	1083.993367907799	115
8	537	1097.599573239798	116
8	540	1104.139546877036	117
8	543	1110.709838361593	118
8	546	1123.564209938254	119
8	549	1126.799780015679	120
8	552	1152.971994092073	121
8	555	1160.619485688479	122
8	564	1198.40958005146	123
8	567	1200.238061851681	124
8	575	1215.285401565839	125
8	576	1215.480964670273	126
8	579	1223.1642380985	127
8	582	1229.833115118972	128
8	585	1231.239090315643	129
8	591	1242.590384458462	130
8	594	1245.552239207937	131
8	597	1260.517790757204	132
8	600	1263.712421333213	133
8	649	1339.068039564799	134
8	650	1339.406460231757	135
8	653	1342.31689645361	136
8	654	1344.065946289834	137
8	655	1344.131570702075	138
8	656	1344.306476396436	139
8	657	1347.234206258667	140
8	658	1348.840627175517	141
8	659	1349.441158408108	142
8	660	1350.843408678807	143
8	661	1351.529820523597	144
8	662	1352.10103097232	145
8	663	1352.173161022676	146
8	672	1386.473770919439	147
8	675	1386.963791825655	148
8	678	1396.529101647882	149
8	683	1404.15423124132	150
8	684	1404.529082853356	151
8	687	1420.671991179802	152
8	690	1440.206839564247	153
8	704	1460.927442877327	154
8	708	1464.54847293161	155
8	715	1472.080581788699	156
8	716	1472.247542854438	157
8	717	1472.472700603272	158
8	722	1482.009722111549	159
8	723	1483.504900719827	160
8	729	1497.9788711582	161
8	735	1519.360981568684	162
8	745	1529.690859095038	163
8	748	1532.369255410809	164
8	749	1534.132333395609	165
8	750	1535.560389632471	166
8	755	1541.046004839497	167
8	756	1541.137986368475	168
8	759	1553.070414140353	169
8	765	1557.17153763463	170
8	773	1575.973268054676	171
8	774	1577.71215217597	172
8	777	1584.469809026528	173
8	780	1600.049533379974	174
8	783	1613.888201636605	175
8	793	1638.314149777608	176
8	794	1638.6117270792	177
8	795	1638.793868585548	178
8	808	1674.465302816253	179
8	809	1677.354473633332	180
8	810	1678.199539466698	181
8	813	1680.84586713469	182
8	827	1715.07675960318	183
8	828	1718.040800120899	184
8	831	1719.448839973289	185
8	834	1726.550581021456	186
8	837	1727.806166908093	187
8	858	1767.522986917411	188
8	859	1768.75783378356	189
8	860	1769.118581002724	190
8	861	1769.861758851052	191
8	864	1770.482340995535	192
8	877	1802.358139999555	193
8	878	1802.581278773429	194
8	879	1802.915601698016	195
8	882	1804.277697310015	196
8	885	1818.102792055244	197
8	888	1820.346763881033	198
8	891	1821.629503415528	199
8	894	1825.28307465524	200
8	899	1828.98197631157	201
8	902	1830.462388333043	202
8	903	1832.417832183356	203
8	906	1834.184858238083	204
8	909	1840.170106415705	205
8	912	1845.397244937623	206
8	920	1865.139616192746	207
8	921	1865.740572933372	208
8	924	1869.941496179192	209
8	927	1871.845518395761	210
8	930	1873.170461253682	211
8	933	1878.19386249354	212
8	942	1903.94676957517	213
8	948	1910.861780370113	214
8	951	1923.501275960381	215
8	968	1984.615330091782	216
8	969	1987.437462097435	217
8	970	1988.767115268924	218
8	971	1989.04567591254	219
8	972	1990.975463286765	220
8	975	1999.931191589137	221
8	978	2010.799206620895	222
8	986	2022.219455776712	223
8	987	2022.940729674292	224
8	997	2029.832740573024	225
8	998	2030.496158299433	226
8	999	2030.808047960737	227
8	1002	2034.721028222906	228
8	1005	2049.62364103546	229
8	1008	2060.698529237553	230
8	1011	2070.771131152536	231
8	1020	2138.42209983539	232
8	1023	2143.5482338911	233
8	1028	2147.099304763266	234
8	1029	2147.901785234864	235
8	1032	2149.483807851875	236
8	1035	2158.528592061561	237
8	1047	2177.666017903686	238
8	1050	2178.061521190662	239
8	1056	2195.324323354328	240
8	1059	2207.816407740725	241
8	1062	2208.839912634308	242
8	1065	2210.856037259238	243
8	1071	2238.375656274639	244
8	1079	2242.907581430813	245
8	1082	2244.626270572937	246
8	1083	2245.745312576073	247
8	1091	2258.833464781324	248
8	1092	2259.234126771077	249
8	1097	2301.428856641373	250
8	1098	2301.510227840433	251
8	1101	2303.088310319299	252
8	1104	2309.512316098546	253
8	1107	2320.892267014182	254
8	1112	2345.150313155018	255
8	1118	2356.559325766809	256
8	1119	2357.200410592519	257
8	1125	2360.651621291972	258
8	1131	2382.139941040845	259
8	1134	2405.398184034842	260
8	1137	2411.062741672487	261
8	1146	2435.443587472724	262
8	1155	2465.383778065416	263
8	1158	2476.812039453385	264
8	1164	2483.071814739783	265
8	1167	2486.963422964454	266
8	1170	2496.464746969334	267
9	162	398.561391460007	0.611494297098
9	168	411.489942106296	0.018373312188
9	171	420.699232725463	0.468708830148
9	214	487.277949026024	60.864151754492
9	215	487.926731571497	53.947710170436
9	216	488.298951885939	53.301492335343
9	217	488.517363212649	52.054004841574
9	218	490.359992743751	43.020980373351
9	219	490.724320003279	30.039758561488
9	220	490.74697197961	28.537711334102
9	221	492.615410417624	20.815183572064
9	222	493.485337195006	11.360795131266
9	225	503.80133881228	1.85531869633
9	228	505.079631492563	0.926758108626
9	231	508.366763675269	1.602448821911
9	234	518.605918876121	1.885421288662
9	237	527.852488670626	2.767844863974
9	248	541.276488513635	5.548620245978
9	249	541.52126222458	4.502858175037
9	259	559.628733275973	8.065952548863
9	260	560.641183921723	8.690207736665
9	261	561.991822679771	2.95208745852
9	280	571.854190799978	8.976959974431
9	281	574.179243847878	11.224459732317
9	282	574.63675747517	9.628195756413
9	283	576.652339990944	11.221610235978
9	284	577.594583173823	9.498651471035
9	288	581.988273917701	2.252440527525
9	291	583.314376869614	0.674531721066
9	306	609.744795120701	1.285671601186
9	315	623.796640108675	0.860130821618
9	321	627.319342453196	0.750130495513
9	327	649.912772305648	14.418998442532
9	346	707.704503062641	48.29659810632
9	347	708.348278783153	28.690482242804
9	348	708.598089898456	7.270896599585
9	351	714.729845286444	0.822959718924
9	354	721.467406752465	1.380556310864
9	362	734.203846208743	6.745950622047
9	363	735.668497009858	2.355187770793
9	391	802.93887431156	53.584133763473
9	392	803.414530643015	27.138022279607
9	393	803.924463707558	26.636895943408
9	394	804.379363908388	17.00096728274
9	395	805.419194226855	14.775550866702
9	396	807.097242702673	7.054971249325
9	399	810.586829956756	0.016779916743
9	402	817.874959533384	0.149937240031
9	413	858.908730253794	19.392822466337
9	414	859.901195593603	18.213138573314
9	417	862.846926562864	0.055711376785
9	420	872.221202101831	2.559410049411
9	423	876.786826340699	0.289398518102
9	426	877.853280266967	0.339979434674
9	435	898.294041507905	11.418128080374
9	441	909.643748143475	3.473929950845
9	444	921.118707094883	0.467126417182
9	447	936.214199237507	0.097454088055
9	453	945.802921347713	0.591264124455
9	456	959.701099258572	1.271954320296
9	459	965.62239422238	0.056949716067
9	464	968.680848910435	2.942758665724
9	467	970.868042661374	4.615043848843
9	468	971.960172872699	2.896935945464
9	478	983.731635922286	10.026439526475
9	479	983.829783044445	8.43492119268
9	480	985.116835359776	4.024607412149
9	499	1015.704928472842	13.232513786537
9	500	1016.285685998131	12.154505992385
9	501	1016.999957271984	7.191097704182
9	504	1019.626666682381	1.696278060448
9	507	1022.582333121865	0.16255604876
9	510	1026.414477635357	1.113595099948
9	518	1042.032534124583	4.093061054422
9	519	1042.218522478592	2.98909422213
9	522	1050.438989930095	0.780922518056
9	533	1083.988438905509	22.918640678529
9	534	1083.993367907799	12.07383917308
9	537	1097.599573239798	2.035662859088
9	540	1104.139546877036	0.37309192878
9	543	1110.709838361593	0.167437529042
9	546	1123.564209938254	0.074640915227
9	549	1126.799780015679	2.581086509734
9	552	1152.971994092073	0.490963178342
9	555	1160.619485688479	2.5828027593
9	564	1198.40958005146	0.907942232336
9	567	1200.238061851681	0.136923426356
9	575	1215.285401565839	3.798251573486
9	576	1215.480964670273	2.816457899838
9	579	1223.1642380985	0.977197855229
9	582	1229.833115118972	0.695755238701
9	585	1231.239090315643	0.496669505576
9	591	1242.590384458462	1.01132534342
9	594	1245.552239207937	2.06685241372
9	597	1260.517790757204	0.682030368496
9	600	1263.712421333213	2.497344193297
9	649	1339.068039564799	57.923268018837
9	650	1339.406460231757	52.592942902828
9	653	1342.31689645361	51.720106762455
9	654	1344.065946289834	38.10349315779
9	655	1344.131570702075	31.136142254101
9	656	1344.306476396436	26.929789365328
9	657	1347.234206258667	27.01811234345
9	658	1348.840627175517	24.310002670607
9	659	1349.441158408108	23.560002727523
9	660	1350.843408678807	15.571329175894
9	661	1351.529820523597	15.723220758401
9	662	1352.10103097232	15.585281768313
9	663	1352.173161022676	10.054251270571
9	672	1386.473770919439	1.627037688669
9	675	1386.963791825655	0.070698462871
9	678	1396.529101647882	4.730712278901
9	683	1404.15423124132	0.951391407097
9	684	1404.529082853356	0.608626030047
9	687	1420.671991179802	0.398319788891
9	690	1440.206839564247	0.032867798704
9	704	1460.927442877327	10.482401785837
9	708	1464.54847293161	3.539953166391
9	715	1472.080581788699	4.232557383638
9	716	1472.247542854438	3.152312367886
9	717	1472.472700603272	2.486736360141
9	722	1482.009722111549	1.953246990774
9	723	1483.504900719827	2.236804714251
9	729	1497.9788711582	0.774824640575
9	735	1519.360981568684	0.485899323476
9	745	1529.690859095038	4.066893258179
9	748	1532.369255410809	4.58715968733
9	749	1534.132333395609	4.535710995144
9	750	1535.560389632471	4.220460083369
9	755	1541.046004839497	1.893225184841
9	756	1541.137986368475	0.242688673447
9	759	1553.070414140353	0.217133591214
9	765	1557.17153763463	2.788026987321
9	773	1575.973268054676	2.418632051226
9	774	1577.71215217597	1.997681369757
9	777	1584.469809026528	0.641280571839
9	780	1600.049533379974	1.240390819531
9	783	1613.888201636605	0.191800899323
9	793	1638.314149777608	16.406332671522
9	794	1638.6117270792	16.30169782635
9	795	1638.793868585548	14.435424004756
9	808	1674.465302816253	10.707490771185
9	809	1677.354473633332	10.937918697144
9	810	1678.199539466698	5.555290874248
9	813	1680.84586713469	0.319642686129
9	827	1715.07675960318	4.758626759568
9	828	1718.040800120899	3.747460143064
9	831	1719.448839973289	1.364034043743
9	834	1726.550581021456	1.066063315833
9	837	1727.806166908093	0.830490526979
9	858	1767.522986917411	24.228596989637
9	859	1768.75783378356	24.336173754158
9	860	1769.118581002724	13.177208893423
9	861	1769.861758851052	6.193582397721
9	864	1770.482340995535	0.26043088269
9	877	1802.358139999555	12.244706861276
9	878	1802.581278773429	10.998277459597
9	879	1802.915601698016	1.73353307834
9	882	1804.277697310015	0.225807310583
9	885	1818.102792055244	1.109391100569
9	888	1820.346763881033	0.51192876838
9	891	1821.629503415528	0.289765789436
9	894	1825.28307465524	0.13696941085
9	899	1828.98197631157	0.440821642313
9	902	1830.462388333043	1.745080610165
9	903	1832.417832183356	2.993567804112
9	906	1834.184858238083	0.014974094192
9	909	1840.170106415705	0.466702782845
9	912	1845.397244937623	1.928264740811
9	920	1865.139616192746	9.423379264923
9	921	1865.740572933372	3.934323110183
9	924	1869.941496179192	0.22561165024
9	927	1871.845518395761	0.467958215067
9	930	1873.170461253682	0.142032150786
9	933	1878.19386249354	0.196760827223
9	942	1903.94676957517	0.09844037135
9	948	1910.861780370113	0.623133714823
9	951	1923.501275960381	0.069192416347
9	968	1984.615330091782	16.326371901791
9	969	1987.437462097435	14.624991211251
9	970	1988.767115268924	13.441009137999
9	971	1989.04567591254	8.065585868415
9	972	1990.975463286765	8.29139228759
9	975	1999.931191589137	0.183263189742
9	978	2010.799206620895	0.665796514737
9	986	2022.219455776712	5.698684347075
9	987	2022.940729674292	6.186986187191
9	997	2029.832740573024	2.190512983017
9	998	2030.496158299433	2.529631799541
9	999	2030.808047960737	2.038549884269
9	1002	2034.721028222906	0.86081969005
9	1005	2049.62364103546	0.135667165742
9	1008	2060.698529237553	0.60117179649
9	1011	2070.771131152536	1.612152526066
9	1020	2138.42209983539	3.940970036164
9	1023	2143.5482338911	1.474224975222
9	1028	2147.099304763266	0.317555712832
9	1029	2147.901785234864	1.117250196589
9	1032	2149.483807851875	1.396993403954
9	1035	2158.528592061561	0.028160495408
9	1047	2177.666017903686	0.533606464347
9	1050	2178.061521190662	0.261864711746
9	1056	2195.324323354328	1.370317235549
9	1059	2207.816407740725	0.870529402928
9	1062	2208.839912634308	0.398652923062
9	1065	2210.856037259238	1.001413856669
9	1071	2238.375656274639	0.827032453221
9	1079	2242.907581430813	1.499659009536
9	1082	2244.626270572937	2.866976812756
9	1083	2245.745312576073	1.608408365809
9	1091	2258.833464781324	0.387531783129
9	1092	2259.234126771077	0.569062765162
9	1097	2301.428856641373	3.750815756848
9	1098	2301.510227840433	2.539927167088
9	1101	2303.088310319299	0.980956420156
9	1104	2309.512316098546	0.261800505728
9	1107	2320.892267014182	1.674727399966
9	1112	2345.150313155018	4.139449156547
9	1118	2356.559325766809	11.180818012412
9	1119	2357.200410592519	0.931272435888
9	1125	2360.651621291972	1.751289059116
9	1131	2382.139941040845	10.305710981305
9	1134	2405.398184034842	0.137992776047
9	1137	2411.062741672487	1.189910919879
9	1146	2435.443587472724	0.184780982413
9	1155	2465.383778065416	0.35352556684
9	1158	2476.812039453385	1.4717023659
9	1164	2483.071814739783	2.775202548705
9	1167	2486.963422964454	0.374045888067
9	1170	2496.464746969334	1.136737829096
10	175	426.413797271532	3
10	255	551.950976185058	4
10	286	579.735833390176	5
10	325	635.493773863116	6
10	430	886.875913427531	7
10	439	906.16981819263	8
10	490	998.179883676915	9
10	493	1002.472414686305	10
10	573	1212.664506770435	11
10	697	1450.44504109149	12
10	706	1461.008519765219	13
10	769	1573.55463600345	14
10	960	1972.812470886184	15
10	1114	2345.378507754397	16
10	1123	2358.900332232856	17
11	1171	2500	0.1068
12	1171	2500	0.0492

