version 2
run experiments_easy_game_mode1-627-20230308-12:04:05-21552
attr configname experiments_easy_game_mode1
attr datetime 20230308-12:04:05
attr experiment experiments_easy_game_mode1
attr inifile omnetpp.ini
attr iterationvars "$0=5.5, $1=3, $2=0"
attr iterationvarsf 5.5,3,0-
attr measurement "$0=5.5, $1=3, $2=0"
attr network Network
attr processid 21552
attr repetition 27
attr replication #27
attr resultdir results
attr runnumber 627
attr seedset 27
param *.boss.arrival_mean 20
param *.boss.service_mean 5.5
param *.minion.arrival_mean 10
param *.minion.service_mean 3
param *.player.recover_rate_x 0
param **.minion.arrival_distribution 0
param **.minion.service_distribution 0
param **.boss.arrival_distribution 0
param **.boss.service_distribution 0

vector 0 Network.player boss_jobs_number_stat:vector ETV
attr source signal_boss_jobs_number
vector 1 Network.player boss_jobs_queue_number_stat:vector ETV
attr source signal_boss_jobs_queue_number
vector 2 Network.player boss_waiting_time_stat:vector ETV
attr source signal_boss_waiting_time
vector 3 Network.player boss_defeated_stat:vector ETV
attr source signal_boss_defeated
vector 4 Network.player boss_response_time_stat:vector ETV
attr source signal_boss_response_time
vector 5 Network.player minion_jobs_number_stat:vector ETV
attr source signal_minion_jobs_number
vector 6 Network.player minion_jobs_queue_number_stat:vector ETV
attr source signal_minion_jobs_queue_number
vector 7 Network.player minion_waiting_time_stat:vector ETV
attr source signal_minion_waiting_time
vector 8 Network.player minion_defeated_stat:vector ETV
attr source signal_minion_defeated
vector 9 Network.player minion_response_time_stat:vector ETV
attr source signal_minion_response_time
vector 10 Network.player minion_recovered_stat:vector ETV
attr source signal_minion_recovered
vector 11 Network.player minion_throughput:vector ETV
attr source signal_minion_throughput
vector 12 Network.player boss_throughput:vector ETV
attr source signal_boss_throughput
0	152	368.831334544424	1
0	155	389.110670426301	1
0	158	392.470448185346	1
0	164	406.857955342912	1
0	175	426.413797271532	1
0	177	428.216150320548	2
0	179	429.56556717974	3
0	189	439.368663954059	2
0	194	453.418493226684	2
0	196	460.280800586182	3
0	202	465.421436393306	4
0	204	468.331227174635	5
0	238	532.267433263168	1
0	240	532.47057314743	2
0	255	551.950976185058	1
0	261	562.599858163725	1
0	271	566.167079330092	2
0	281	579.735833390176	1
0	286	587.83685848517	1
0	288	588.269454985046	2
0	290	589.0392234944	3
0	296	605.436577269174	1
0	302	613.330361908421	1
0	304	614.946250003507	2
0	311	625.020069418922	1
0	321	635.493773863116	1
0	325	651.93908874367	1
0	329	659.479702327961	2
0	332	660.616830717591	2
0	337	690.058304817686	2
0	353	724.440579512485	1
0	363	742.817448148488	1
0	367	750.436630718249	2
0	371	761.240283547267	1
0	373	768.129381117159	2
0	377	776.291255989424	3
0	404	836.22542674111	1
0	406	836.732694464763	2
0	430	886.875913427531	1
0	432	888.751654418823	2
0	439	906.16981819263	1
0	449	944.66435003739	1
0	467	972.102428593869	1
0	476	985.612944754038	1
0	480	992.436786322198	1
0	485	998.179883676915	1
0	489	1002.472414686305	1
0	505	1031.121101478372	1
0	523	1059.823730250331	1
0	530	1075.364437874632	1
0	557	1170.367082354032	1
0	560	1180.109766243292	1
0	573	1212.664506770435	1
0	587	1233.325160215043	1
0	602	1269.88515367764	1
0	604	1273.651998237192	2
0	607	1278.05293541854	2
0	615	1302.754338639653	3
0	617	1305.574118968634	4
0	621	1306.39506238908	5
0	628	1314.661552737215	3
0	641	1332.983630237907	1
0	657	1359.150555686224	1
0	660	1363.697256601952	1
0	692	1444.719652389594	1
0	697	1450.44504109149	1
0	699	1450.821689742854	2
0	705	1461.008519765219	1
0	723	1486.539293398296	1
0	731	1511.564798431682	1
0	737	1522.912315959582	1
0	761	1554.359213467081	1
0	769	1573.55463600345	1
0	785	1618.60610114374	1
0	797	1647.732977010864	1
0	799	1652.716300240126	2
0	815	1699.903565993872	1
0	817	1700.164731177748	2
0	820	1704.09610134274	2
0	837	1732.70694833244	1
0	842	1739.431147144398	1
0	846	1743.465202265492	2
0	851	1749.865499275879	2
0	866	1781.419902188234	1
0	872	1794.03587162119	2
0	914	1854.253817291772	1
0	935	1890.882005542659	1
0	937	1890.959832848247	2
0	944	1906.259346134547	1
0	953	1951.970516732074	1
0	960	1972.812470886184	1
0	980	2016.313752534131	1
0	987	2026.634220104932	1
0	1013	2113.398607569763	1
0	1016	2122.859661153812	1
0	1037	2162.021322230943	1
0	1040	2165.890783281384	1
0	1043	2172.746428742143	1
0	1052	2189.245132141111	1
0	1067	2233.879336630663	1
0	1072	2239.267804364735	1
0	1084	2252.616090301519	1
0	1113	2345.378507754397	1
0	1121	2358.900332232856	1
0	1126	2370.717925181556	1
0	1139	2418.046391651931	1
0	1142	2423.759721043991	1
0	1148	2453.422693129747	1
0	1151	2458.491186840242	1
0	1160	2480.169364514395	1
1	152	368.831334544424	0
1	153	374.598509526193	0
1	155	389.110670426301	0
1	156	392.108799093254	0
1	158	392.470448185346	0
1	159	397.533506733878	0
1	164	406.857955342912	0
1	165	408.357829081167	0
1	175	426.413797271532	0
1	177	428.216150320548	1
1	179	429.56556717974	2
1	180	433.26538634919	2
1	185	435.531224145072	1
1	189	439.368663954059	1
1	192	449.45346247043	1
1	194	453.418493226684	1
1	196	460.280800586182	2
1	202	465.421436393306	3
1	204	468.331227174635	4
1	207	475.188415275552	4
1	208	475.792623582715	3
1	209	477.285597507937	2
1	210	481.414375518437	1
1	211	481.880109021083	0
1	238	532.267433263168	0
1	240	532.47057314743	1
1	241	534.088121049375	1
1	246	540.179106787114	0
1	255	551.950976185058	0
1	256	557.658169901083	0
1	261	562.599858163725	0
1	271	566.167079330092	1
1	272	567.939589484616	1
1	275	569.01799702735	0
1	281	579.735833390176	0
1	282	581.498883344136	0
1	286	587.83685848517	0
1	288	588.269454985046	1
1	290	589.0392234944	2
1	291	594.844031828065	2
1	292	598.296789664406	1
1	293	600.935397944579	0
1	296	605.436577269174	0
1	297	606.129468712228	0
1	302	613.330361908421	0
1	304	614.946250003507	1
1	305	618.713737211689	1
1	306	619.136330920387	0
1	311	625.020069418922	0
1	312	626.44127940411	0
1	321	635.493773863116	0
1	322	648.200737231037	0
1	325	651.93908874367	0
1	329	659.479702327961	1
1	330	659.974969775827	1
1	332	660.616830717591	1
1	333	668.663305202895	1
1	337	690.058304817686	1
1	338	691.630643056991	1
1	341	701.729457834019	0
1	353	724.440579512485	0
1	356	728.011123821971	0
1	363	742.817448148488	0
1	367	750.436630718249	1
1	368	752.10431614736	1
1	369	760.635495873769	0
1	371	761.240283547267	0
1	373	768.129381117159	1
1	377	776.291255989424	2
1	380	787.120680063229	2
1	385	793.672313647145	1
1	386	798.407982218346	0
1	404	836.22542674111	0
1	406	836.732694464763	1
1	411	846.436891807427	1
1	412	855.68105121832	0
1	430	886.875913427531	0
1	432	888.751654418823	1
1	433	894.000416818902	1
1	434	897.008927606339	0
1	439	906.16981819263	0
1	440	907.903030969017	0
1	449	944.66435003739	0
1	450	944.817424329051	0
1	467	972.102428593869	0
1	472	981.07547361178	0
1	476	985.612944754038	0
1	477	988.942571028483	0
1	480	992.436786322198	0
1	481	995.687781162363	0
1	485	998.179883676915	0
1	486	998.792011472344	0
1	489	1002.472414686305	0
1	494	1013.698961321587	0
1	505	1031.121101478372	0
1	510	1040.468199502757	0
1	523	1059.823730250331	0
1	528	1075.111035527161	0
1	530	1075.364437874632	0
1	531	1081.94478706034	0
1	557	1170.367082354032	0
1	558	1172.328895287481	0
1	560	1180.109766243292	0
1	561	1184.691626832352	0
1	573	1212.664506770435	0
1	574	1214.169469617819	0
1	587	1233.325160215043	0
1	588	1235.088011352226	0
1	602	1269.88515367764	0
1	604	1273.651998237192	1
1	605	1274.285312696261	1
1	607	1278.05293541854	1
1	615	1302.754338639653	2
1	617	1305.574118968634	3
1	621	1306.39506238908	4
1	622	1309.952470011531	4
1	623	1312.285335475827	3
1	626	1313.102353857969	2
1	628	1314.661552737215	2
1	633	1320.296016717085	2
1	636	1325.551774079671	1
1	639	1327.900215158082	0
1	641	1332.983630237907	0
1	648	1336.633754054762	0
1	657	1359.150555686224	0
1	658	1361.081389000582	0
1	660	1363.697256601952	0
1	661	1366.553072788373	0
1	692	1444.719652389594	0
1	693	1448.945005350406	0
1	697	1450.44504109149	0
1	699	1450.821689742854	1
1	700	1457.602733297417	1
1	701	1457.93887908248	0
1	705	1461.008519765219	0
1	706	1463.152470291169	0
1	723	1486.539293398296	0
1	724	1492.239579014349	0
1	731	1511.564798431682	0
1	732	1514.37934247639	0
1	737	1522.912315959582	0
1	742	1529.01565464048	0
1	761	1554.359213467081	0
1	764	1556.47200349722	0
1	769	1573.55463600345	0
1	770	1573.596987126099	0
1	785	1618.60610114374	0
1	792	1634.785217356385	0
1	797	1647.732977010864	0
1	799	1652.716300240126	1
1	800	1658.280892169573	1
1	805	1672.084308815686	0
1	815	1699.903565993872	0
1	817	1700.164731177748	1
1	818	1700.348630643054	1
1	820	1704.09610134274	1
1	821	1709.595078104584	1
1	824	1711.964671936533	0
1	837	1732.70694833244	0
1	838	1732.897640203678	0
1	842	1739.431147144398	0
1	846	1743.465202265492	1
1	849	1748.303532845999	1
1	851	1749.865499275879	1
1	856	1764.095501795372	1
1	857	1765.011909964784	0
1	866	1781.419902188234	0
1	872	1794.03587162119	1
1	873	1797.944951439238	1
1	874	1800.043300235634	0
1	914	1854.253817291772	0
1	919	1863.290033640906	0
1	935	1890.882005542659	0
1	937	1890.959832848247	1
1	938	1892.389785402058	1
1	939	1895.999915362109	0
1	944	1906.259346134547	0
1	945	1908.720599695657	0
1	953	1951.970516732074	0
1	958	1970.692395873064	0
1	960	1972.812470886184	0
1	967	1983.236388561276	0
1	980	2016.313752534131	0
1	985	2019.281179728815	0
1	987	2026.634220104932	0
1	994	2028.847396853467	0
1	1013	2113.398607569763	0
1	1014	2115.510377876269	0
1	1016	2122.859661153812	0
1	1017	2124.792956348615	0
1	1037	2162.021322230943	0
1	1038	2162.112509483312	0
1	1040	2165.890783281384	0
1	1041	2171.223849197891	0
1	1043	2172.746428742143	0
1	1044	2172.960543529062	0
1	1052	2189.245132141111	0
1	1053	2191.333219215483	0
1	1067	2233.879336630663	0
1	1068	2234.179366356509	0
1	1072	2239.267804364735	0
1	1073	2240.946529180107	0
1	1084	2252.616090301519	0
1	1085	2253.369155344257	0
1	1113	2345.378507754397	0
1	1114	2354.620060150715	0
1	1121	2358.900332232856	0
1	1122	2359.08707424518	0
1	1126	2370.717925181556	0
1	1129	2380.022889197492	0
1	1139	2418.046391651931	0
1	1140	2419.458393431359	0
1	1142	2423.759721043991	0
1	1143	2428.705844310647	0
1	1148	2453.422693129747	0
1	1149	2457.740538127368	0
1	1151	2458.491186840242	0
1	1152	2462.418895039542	0
1	1160	2480.169364514395	0
1	1163	2481.25163528861	0
2	152	368.831334544424	0
2	155	389.110670426301	0
2	158	392.470448185346	0
2	164	406.857955342912	0
2	175	426.413797271532	0
2	180	433.26538634919	5.049236028642
2	185	435.531224145072	5.965656965332
2	192	449.45346247043	10.084798516371
2	207	475.188415275552	21.769922048868
2	208	475.792623582715	15.511822996533
2	209	477.285597507937	11.864161114631
2	210	481.414375518437	13.083148343802
2	238	532.267433263168	0
2	241	534.088121049375	1.617547901945
2	255	551.950976185058	0
2	261	562.599858163725	0
2	272	567.939589484616	1.772510154524
2	281	579.735833390176	0
2	286	587.83685848517	0
2	291	594.844031828065	6.574576843019
2	292	598.296789664406	9.257566170006
2	296	605.436577269174	0
2	302	613.330361908421	0
2	305	618.713737211689	3.767487208182
2	311	625.020069418922	0
2	321	635.493773863116	0
2	325	651.93908874367	0
2	330	659.974969775827	0.495267447866
2	333	668.663305202895	8.046474485304
2	338	691.630643056991	1.572338239305
2	353	724.440579512485	0
2	363	742.817448148488	0
2	368	752.10431614736	1.667685429111
2	371	761.240283547267	0
2	380	787.120680063229	18.99129894607
2	385	793.672313647145	17.381057657721
2	404	836.22542674111	0
2	411	846.436891807427	9.704197342664
2	430	886.875913427531	0
2	433	894.000416818902	5.248762400079
2	439	906.16981819263	0
2	449	944.66435003739	0
2	467	972.102428593869	0
2	476	985.612944754038	0
2	480	992.436786322198	0
2	485	998.179883676915	0
2	489	1002.472414686305	0
2	505	1031.121101478372	0
2	523	1059.823730250331	0
2	530	1075.364437874632	0
2	557	1170.367082354032	0
2	560	1180.109766243292	0
2	573	1212.664506770435	0
2	587	1233.325160215043	0
2	602	1269.88515367764	0
2	605	1274.285312696261	0.633314459069
2	622	1309.952470011531	31.899534592991
2	623	1312.285335475827	9.530996836174
2	626	1313.102353857969	7.528234889335
2	633	1320.296016717085	13.900954328005
2	636	1325.551774079671	10.890221342456
2	641	1332.983630237907	0
2	657	1359.150555686224	0
2	660	1363.697256601952	0
2	692	1444.719652389594	0
2	697	1450.44504109149	0
2	700	1457.602733297417	6.781043554563
2	705	1461.008519765219	0
2	723	1486.539293398296	0
2	731	1511.564798431682	0
2	737	1522.912315959582	0
2	761	1554.359213467081	0
2	769	1573.55463600345	0
2	785	1618.60610114374	0
2	797	1647.732977010864	0
2	800	1658.280892169573	5.564591929447
2	815	1699.903565993872	0
2	818	1700.348630643054	0.183899465306
2	821	1709.595078104584	5.498976761844
2	837	1732.70694833244	0
2	842	1739.431147144398	0
2	849	1748.303532845999	4.838330580507
2	856	1764.095501795372	14.230002519493
2	866	1781.419902188234	0
2	873	1797.944951439238	3.909079818048
2	914	1854.253817291772	0
2	935	1890.882005542659	0
2	938	1892.389785402058	1.429952553811
2	944	1906.259346134547	0
2	953	1951.970516732074	0
2	960	1972.812470886184	0
2	980	2016.313752534131	0
2	987	2026.634220104932	0
2	1013	2113.398607569763	0
2	1016	2122.859661153812	0
2	1037	2162.021322230943	0
2	1040	2165.890783281384	0
2	1043	2172.746428742143	0
2	1052	2189.245132141111	0
2	1067	2233.879336630663	0
2	1072	2239.267804364735	0
2	1084	2252.616090301519	0
2	1113	2345.378507754397	0
2	1121	2358.900332232856	0
2	1126	2370.717925181556	0
2	1139	2418.046391651931	0
2	1142	2423.759721043991	0
2	1148	2453.422693129747	0
2	1151	2458.491186840242	0
2	1160	2480.169364514395	0
3	153	374.598509526193	14
3	156	392.108799093254	15
3	159	397.533506733878	16
3	165	408.357829081167	17
3	180	433.26538634919	18
3	185	435.531224145072	19
3	192	449.45346247043	20
3	207	475.188415275552	21
3	208	475.792623582715	22
3	209	477.285597507937	23
3	210	481.414375518437	24
3	211	481.880109021083	25
3	241	534.088121049375	26
3	246	540.179106787114	27
3	256	557.658169901083	28
3	272	567.939589484616	29
3	275	569.01799702735	30
3	282	581.498883344136	31
3	291	594.844031828065	32
3	292	598.296789664406	33
3	293	600.935397944579	34
3	297	606.129468712228	35
3	305	618.713737211689	36
3	306	619.136330920387	37
3	312	626.44127940411	38
3	322	648.200737231037	39
3	330	659.974969775827	40
3	333	668.663305202895	41
3	338	691.630643056991	42
3	341	701.729457834019	43
3	356	728.011123821971	44
3	368	752.10431614736	45
3	369	760.635495873769	46
3	380	787.120680063229	47
3	385	793.672313647145	48
3	386	798.407982218346	49
3	411	846.436891807427	50
3	412	855.68105121832	51
3	433	894.000416818902	52
3	434	897.008927606339	53
3	440	907.903030969017	54
3	450	944.817424329051	55
3	472	981.07547361178	56
3	477	988.942571028483	57
3	481	995.687781162363	58
3	486	998.792011472344	59
3	494	1013.698961321587	60
3	510	1040.468199502757	61
3	528	1075.111035527161	62
3	531	1081.94478706034	63
3	558	1172.328895287481	64
3	561	1184.691626832352	65
3	574	1214.169469617819	66
3	588	1235.088011352226	67
3	605	1274.285312696261	68
3	622	1309.952470011531	69
3	623	1312.285335475827	70
3	626	1313.102353857969	71
3	633	1320.296016717085	72
3	636	1325.551774079671	73
3	639	1327.900215158082	74
3	648	1336.633754054762	75
3	658	1361.081389000582	76
3	661	1366.553072788373	77
3	693	1448.945005350406	78
3	700	1457.602733297417	79
3	701	1457.93887908248	80
3	706	1463.152470291169	81
3	724	1492.239579014349	82
3	732	1514.37934247639	83
3	742	1529.01565464048	84
3	764	1556.47200349722	85
3	770	1573.596987126099	86
3	792	1634.785217356385	87
3	800	1658.280892169573	88
3	805	1672.084308815686	89
3	818	1700.348630643054	90
3	821	1709.595078104584	91
3	824	1711.964671936533	92
3	838	1732.897640203678	93
3	849	1748.303532845999	94
3	856	1764.095501795372	95
3	857	1765.011909964784	96
3	873	1797.944951439238	97
3	874	1800.043300235634	98
3	919	1863.290033640906	99
3	938	1892.389785402058	100
3	939	1895.999915362109	101
3	945	1908.720599695657	102
3	958	1970.692395873064	103
3	967	1983.236388561276	104
3	985	2019.281179728815	105
3	994	2028.847396853467	106
3	1014	2115.510377876269	107
3	1017	2124.792956348615	108
3	1038	2162.112509483312	109
3	1041	2171.223849197891	110
3	1044	2172.960543529062	111
3	1053	2191.333219215483	112
3	1068	2234.179366356509	113
3	1073	2240.946529180107	114
3	1085	2253.369155344257	115
3	1114	2354.620060150715	116
3	1122	2359.08707424518	117
3	1129	2380.022889197492	118
3	1140	2419.458393431359	119
3	1143	2428.705844310647	120
3	1149	2457.740538127368	121
3	1152	2462.418895039542	122
3	1163	2481.25163528861	123
4	153	374.598509526193	5.767174981769
4	156	392.108799093254	2.998128666953
4	159	397.533506733878	5.063058548532
4	165	408.357829081167	1.499873738255
4	180	433.26538634919	6.851589077658
4	185	435.531224145072	7.315073824524
4	192	449.45346247043	19.88789529069
4	207	475.188415275552	35.819751321493
4	208	475.792623582715	22.374130356031
4	209	477.285597507937	17.004796921755
4	210	481.414375518437	15.992939125131
4	211	481.880109021083	13.548881846448
4	241	534.088121049375	1.820687786207
4	246	540.179106787114	7.708533639684
4	256	557.658169901083	5.707193716025
4	272	567.939589484616	5.339731320891
4	275	569.01799702735	2.850917697258
4	282	581.498883344136	1.76304995396
4	291	594.844031828065	7.007173342895
4	292	598.296789664406	10.02733467936
4	293	600.935397944579	11.896174450179
4	297	606.129468712228	0.692891443054
4	305	618.713737211689	5.383375303268
4	306	619.136330920387	4.19008091688
4	312	626.44127940411	1.421209985188
4	322	648.200737231037	12.706963367921
4	330	659.974969775827	8.035881032157
4	333	668.663305202895	9.183602874934
4	338	691.630643056991	31.0138123394
4	341	701.729457834019	11.671153016333
4	356	728.011123821971	3.570544309486
4	368	752.10431614736	9.286867998872
4	369	760.635495873769	10.19886515552
4	380	787.120680063229	25.880396515962
4	385	793.672313647145	25.542932529986
4	386	798.407982218346	22.116726228922
4	411	846.436891807427	10.211465066317
4	412	855.68105121832	18.948356753557
4	433	894.000416818902	7.124503391371
4	434	897.008927606339	8.257273187516
4	440	907.903030969017	1.733212776387
4	450	944.817424329051	0.153074291661
4	472	981.07547361178	8.973045017911
4	477	988.942571028483	3.329626274445
4	481	995.687781162363	3.250994840165
4	486	998.792011472344	0.612127795429
4	494	1013.698961321587	11.226546635282
4	510	1040.468199502757	9.347098024385
4	528	1075.111035527161	15.28730527683
4	531	1081.94478706034	6.580349185708
4	558	1172.328895287481	1.961812933449
4	561	1184.691626832352	4.58186058906
4	574	1214.169469617819	1.504962847384
4	588	1235.088011352226	1.762851137183
4	605	1274.285312696261	4.400159018621
4	622	1309.952470011531	36.300471774339
4	623	1312.285335475827	34.232400057287
4	626	1313.102353857969	10.348015218316
4	633	1320.296016717085	14.721897748451
4	636	1325.551774079671	19.156711690591
4	639	1327.900215158082	13.238662420867
4	648	1336.633754054762	3.650123816855
4	658	1361.081389000582	1.930833314358
4	661	1366.553072788373	2.855816186421
4	693	1448.945005350406	4.225352960812
4	700	1457.602733297417	7.157692205927
4	701	1457.93887908248	7.117189339626
4	706	1463.152470291169	2.14395052595
4	724	1492.239579014349	5.700285616053
4	732	1514.37934247639	2.814544044708
4	742	1529.01565464048	6.103338680898
4	764	1556.47200349722	2.112790030139
4	770	1573.596987126099	0.042351122649
4	792	1634.785217356385	16.179116212645
4	800	1658.280892169573	10.547915158709
4	805	1672.084308815686	19.36800857556
4	818	1700.348630643054	0.445064649182
4	821	1709.595078104584	9.430346926836
4	824	1711.964671936533	7.868570593793
4	838	1732.897640203678	0.190691871238
4	849	1748.303532845999	8.872385701601
4	856	1764.095501795372	20.63029952988
4	857	1765.011909964784	15.146410688905
4	873	1797.944951439238	16.525049251004
4	874	1800.043300235634	6.007428614444
4	919	1863.290033640906	9.036216349134
4	938	1892.389785402058	1.507779859399
4	939	1895.999915362109	5.040082513862
4	945	1908.720599695657	2.46125356111
4	958	1970.692395873064	18.72187914099
4	967	1983.236388561276	10.423917675092
4	985	2019.281179728815	2.967427194684
4	994	2028.847396853467	2.213176748535
4	1014	2115.510377876269	2.111770306506
4	1017	2124.792956348615	1.933295194803
4	1038	2162.112509483312	0.091187252369
4	1041	2171.223849197891	5.333065916507
4	1044	2172.960543529062	0.214114786919
4	1053	2191.333219215483	2.088087074372
4	1068	2234.179366356509	0.300029725846
4	1073	2240.946529180107	1.678724815372
4	1085	2253.369155344257	0.753065042738
4	1114	2354.620060150715	9.241552396318
4	1122	2359.08707424518	0.186742012324
4	1129	2380.022889197492	9.304964015936
4	1140	2419.458393431359	1.412001779428
4	1143	2428.705844310647	4.946123266656
4	1149	2457.740538127368	4.317844997621
4	1152	2462.418895039542	3.9277081993
4	1163	2481.25163528861	1.082270774215
5	161	397.949897162909	1
5	167	411.471568794108	1
5	170	420.230523895315	1
5	173	423.626370630007	1
5	182	433.979021401061	2
5	184	434.997459550596	3
5	187	436.463358371075	4
5	191	447.3390123704	5
5	198	460.684561441791	6
5	200	462.209260645508	7
5	206	471.80022684556	8
5	213	482.12454206374	9
5	222	501.94602011595	3
5	225	504.152873383937	3
5	228	506.764314853358	3
5	232	516.720497587459	2
5	235	525.084643806652	2
5	243	535.727868267657	2
5	245	537.018404049543	3
5	251	549.634151508763	1
5	253	551.56278072711	2
5	258	559.039735221251	3
5	263	562.877230825547	3
5	265	562.954784115561	4
5	267	565.008561718757	5
5	269	565.430729754966	6
5	274	568.095931702788	7
5	277	571.345060115002	8
5	284	582.639845148548	7
5	299	608.459123519515	7
5	308	622.936509287057	7
5	314	626.569211957683	7
5	318	631.689727490417	6
5	327	659.407904956321	5
5	335	679.657796540349	6
5	340	701.327193298871	7
5	344	713.90688556752	7
5	349	720.086850441601	5
5	355	727.457895586696	4
5	359	733.313309239065	4
5	365	749.354740548087	3
5	375	776.276508363408	4
5	379	777.28756776415	5
5	382	787.378396625648	6
5	384	790.643643360153	7
5	388	800.042271453348	8
5	392	810.570050040013	7
5	398	817.725022293353	4
5	408	839.515907787457	1
5	410	841.688057020289	2
5	415	862.791215186079	2
5	419	869.66179205242	1
5	421	876.497427822597	2
5	424	877.513300832293	2
5	428	886.270071100297	1
5	437	902.631208475954	1
5	443	920.651580677701	1
5	446	936.116745149452	1
5	452	945.211657223258	1
5	455	958.429144938276	1
5	458	965.565444506313	1
5	461	965.738090244711	1
5	463	966.252998812531	2
5	465	969.063236927235	3
5	469	973.705196395811	4
5	471	975.394861851765	5
5	474	981.092227947627	6
5	483	997.320396551664	6
5	491	1004.131180005746	6
5	493	1009.808859567802	7
5	497	1017.930388621933	7
5	500	1022.419777073105	7
5	502	1025.300882535409	8
5	507	1037.939473070161	8
5	509	1039.229428256462	9
5	515	1049.658067412039	7
5	525	1061.06979822698	2
5	527	1071.919528734719	3
5	536	1095.56391038071	1
5	539	1103.766454948256	1
5	542	1110.542400832551	1
5	545	1123.489569023027	1
5	548	1124.218693505945	1
5	551	1152.481030913731	1
5	554	1158.036682929179	1
5	563	1197.501637819124	1
5	565	1200.101138425325	2
5	569	1211.222097662782	1
5	571	1211.487149992353	2
5	578	1222.187040243271	1
5	581	1229.137359880271	1
5	583	1230.742420810067	2
5	590	1241.579059115042	1
5	592	1243.485386794217	2
5	596	1259.835760388708	1
5	598	1261.215077139916	2
5	609	1281.144771545962	1
5	611	1286.813517328929	2
5	613	1290.596789691155	3
5	619	1305.962453132044	4
5	625	1312.995428447974	5
5	630	1317.376687031108	6
5	632	1320.216093915217	7
5	635	1324.53062450491	8
5	638	1325.881155680585	9
5	643	1335.272079502913	10
5	645	1335.806599765196	11
5	647	1336.515749204007	12
5	651	1342.118909752105	12
5	671	1384.84673323077	1
5	673	1386.893093362784	2
5	677	1391.798389368981	1
5	679	1403.202839834223	2
5	681	1403.920456823309	3
5	686	1420.273671390911	1
5	689	1440.173971765543	1
5	695	1449.518260083194	1
5	703	1460.539974187747	2
5	709	1467.848024405061	2
5	711	1469.095230486552	3
5	713	1469.985964243131	4
5	716	1480.056475120775	4
5	718	1481.268096005576	5
5	727	1497.204046517625	2
5	734	1518.875082245208	1
5	739	1525.623965836859	1
5	741	1527.782095723479	2
5	745	1529.596622400465	2
5	747	1531.339929549102	3
5	750	1539.152779654656	3
5	752	1540.895297695028	4
5	757	1552.853280549139	2
5	763	1554.383510647309	1
5	767	1572.961662525789	1
5	772	1575.714470806213	2
5	775	1583.828528454689	2
5	779	1598.809142560443	1
5	782	1613.696400737282	1
5	787	1621.907817106086	1
5	789	1622.31002925285	2
5	791	1624.358444580792	3
5	802	1663.757812045068	1
5	804	1666.416554936188	2
5	808	1672.64424859245	2
5	810	1680.526224448561	3
5	823	1710.318132843612	1
5	826	1714.293339977835	2
5	829	1718.084805929546	2
5	831	1725.484517705623	3
5	834	1726.975676381114	3
5	844	1743.294389927774	1
5	848	1744.421660029402	2
5	853	1755.941372109301	3
5	855	1763.668176453331	4
5	861	1770.221910112845	3
5	868	1790.113433138279	1
5	870	1791.583001313832	2
5	876	1801.182068619676	3
5	881	1804.051889999432	1
5	884	1816.993400954675	1
5	886	1819.834835112653	2
5	889	1821.339737626092	2
5	893	1825.14610524439	1
5	896	1828.541154669257	1
5	898	1828.717307722878	2
5	900	1829.424264379244	3
5	903	1834.169884143891	3
5	906	1839.70340363286	3
5	911	1843.468980196812	1
5	916	1855.716236927823	1
5	918	1861.806249823189	2
5	923	1869.715884528952	1
5	926	1871.377560180694	1
5	929	1873.028429102896	1
5	932	1877.997101666317	1
5	941	1903.84832920382	1
5	947	1910.23864665529	1
5	950	1923.432083544034	1
5	955	1960.039365907734	1
5	957	1968.288958189991	2
5	962	1975.326106130925	3
5	964	1980.980090044125	4
5	966	1982.684070999175	5
5	973	1999.747928399395	2
5	977	2010.133410106158	1
5	982	2016.520771429637	1
5	984	2016.753743487101	2
5	989	2027.642227590007	3
5	991	2027.966526499892	4
5	993	2028.769498076468	5
5	998	2033.860208532856	4
5	1004	2049.487973869718	1
5	1007	2060.097357441063	1
5	1010	2069.15897862647	1
5	1019	2134.481129799226	1
5	1021	2142.074008915878	2
5	1024	2146.781749050434	2
5	1026	2146.784535038275	3
5	1028	2148.086814447921	4
5	1034	2158.500431566153	1
5	1046	2177.132411439339	1
5	1048	2177.799656478916	2
5	1055	2193.954006118779	1
5	1058	2206.945878337797	1
5	1060	2208.441259711246	2
5	1063	2209.854623402569	2
5	1070	2237.548623821418	1
5	1075	2241.407922421277	2
5	1078	2241.759293760181	2
5	1080	2244.136904210264	3
5	1088	2258.445932998195	1
5	1090	2258.665064005915	2
5	1094	2297.678040884525	1
5	1096	2298.970300673345	2
5	1098	2302.107353899143	3
5	1102	2309.250515592818	2
5	1106	2319.217539614216	1
5	1109	2341.010863998471	1
5	1111	2343.787560148528	2
5	1116	2356.269138156631	3
5	1118	2357.424688540216	4
5	1128	2371.83423005954	2
5	1133	2405.260191258795	1
5	1136	2409.872830752608	1
5	1145	2435.258806490311	1
5	1154	2465.030252498576	1
5	1157	2475.340337087485	1
5	1162	2480.296612191078	1
5	1166	2486.589377076387	1
5	1169	2495.328009140238	1
6	161	397.949897162909	0
6	162	399.652717191698	0
6	167	411.471568794108	0
6	168	411.526688730672	0
6	170	420.230523895315	0
6	171	421.636650385759	0
6	173	423.626370630007	0
6	182	433.979021401061	1
6	184	434.997459550596	2
6	187	436.463358371075	3
6	191	447.3390123704	4
6	198	460.684561441791	5
6	200	462.209260645508	6
6	206	471.80022684556	7
6	213	482.12454206374	8
6	214	488.005114410166	8
6	215	489.951462046584	7
6	216	491.068122989911	6
6	217	491.723356970042	5
6	218	497.251245563349	4
6	219	498.344227341934	3
6	220	498.412183270928	2
6	222	501.94602011595	2
6	223	504.01749858497	2
6	225	504.152873383937	2
6	226	506.627278917116	2
6	228	506.764314853358	2
6	229	512.193235006107	2
6	230	514.973509331986	1
6	232	516.720497587459	1
6	233	519.780855797719	1
6	235	525.084643806652	1
6	236	525.437119663705	1
6	243	535.727868267657	1
6	245	537.018404049543	2
6	247	541.652327779574	2
6	248	542.786743816245	1
6	249	543.521064949079	0
6	251	549.634151508763	0
6	253	551.56278072711	1
6	258	559.039735221251	2
6	259	562.013352648659	2
6	263	562.877230825547	2
6	265	562.954784115561	3
6	267	565.008561718757	4
6	269	565.430729754966	5
6	274	568.095931702788	6
6	277	571.345060115002	7
6	278	573.069913301495	7
6	279	578.799713796106	6
6	284	582.639845148548	6
6	294	602.307938826456	6
6	299	608.459123519515	6
6	300	608.956198260866	6
6	308	622.936509287057	6
6	309	624.958391135937	6
6	314	626.569211957683	6
6	315	627.078463406776	6
6	316	629.99657251138	5
6	318	631.689727490417	5
6	319	633.853587314938	5
6	323	650.781129695891	4
6	327	659.407904956321	4
6	335	679.657796540349	5
6	340	701.327193298871	6
6	342	703.976044258045	6
6	344	713.90688556752	6
6	345	716.253995788916	6
6	346	717.176007723185	5
6	347	717.97996555562	4
6	349	720.086850441601	4
6	350	722.325909671393	4
6	351	724.25723683293	3
6	355	727.457895586696	3
6	357	730.480002978742	3
6	359	733.313309239065	3
6	360	734.621671911333	3
6	361	735.187762577687	2
6	365	749.354740548087	2
6	375	776.276508363408	3
6	379	777.28756776415	4
6	382	787.378396625648	5
6	384	790.643643360153	6
6	388	800.042271453348	7
6	389	808.382678996186	7
6	390	808.793605642771	6
6	392	810.570050040013	6
6	393	812.582770372617	6
6	394	814.009739366983	5
6	395	815.539538560612	4
6	396	816.904239163103	3
6	398	817.725022293353	3
6	399	820.023730118504	3
6	400	825.057875545958	2
6	401	825.108215296187	1
6	402	825.558027016281	0
6	408	839.515907787457	0
6	410	841.688057020289	1
6	413	860.058008921865	1
6	415	862.791215186079	1
6	416	863.035404941291	1
6	417	863.202539071646	0
6	419	869.66179205242	0
6	421	876.497427822597	1
6	422	877.340022200654	1
6	424	877.513300832293	1
6	425	878.208217754961	1
6	426	879.228156058982	0
6	428	886.270071100297	0
6	435	898.846718802775	0
6	437	902.631208475954	0
6	441	917.617346556587	0
6	443	920.651580677701	0
6	444	922.052959929247	0
6	446	936.116745149452	0
6	447	936.409107413616	0
6	452	945.211657223258	0
6	453	946.985449596623	0
6	455	958.429144938276	0
6	456	962.245007899164	0
6	458	965.565444506313	0
6	459	965.736293654515	0
6	461	965.738090244711	0
6	463	966.252998812531	1
6	465	969.063236927235	2
6	469	973.705196395811	3
6	471	975.394861851765	4
6	474	981.092227947627	5
6	478	992.218961662458	5
6	483	997.320396551664	5
6	487	999.086452838822	5
6	491	1004.131180005746	5
6	493	1009.808859567802	6
6	495	1015.723071432146	6
6	497	1017.930388621933	6
6	498	1017.96918442042	6
6	500	1022.419777073105	6
6	502	1025.300882535409	7
6	503	1030.934295572839	7
6	507	1037.939473070161	7
6	509	1039.229428256462	8
6	511	1040.943394601266	8
6	512	1042.685667177134	7
6	513	1044.828480998693	6
6	515	1049.658067412039	6
6	516	1049.917315180036	6
6	517	1050.404983326316	5
6	518	1053.745768626159	4
6	519	1056.588153041799	3
6	520	1058.731948355171	2
6	521	1059.289913417199	1
6	525	1061.06979822698	1
6	527	1071.919528734719	2
6	532	1082.872043875748	2
6	533	1082.886830882617	1
6	534	1084.442379256183	0
6	536	1095.56391038071	0
6	537	1101.670898957973	0
6	539	1103.766454948256	0
6	540	1104.885730734597	0
6	542	1110.542400832551	0
6	543	1111.044713419677	0
6	545	1123.489569023027	0
6	546	1123.713491768707	0
6	548	1124.218693505945	0
6	549	1131.961953035146	0
6	551	1152.481030913731	0
6	552	1153.953920448756	0
6	554	1158.036682929179	0
6	555	1165.785091207078	0
6	563	1197.501637819124	0
6	565	1200.101138425325	1
6	566	1200.225464516131	1
6	567	1200.6362347952	0
6	569	1211.222097662782	0
6	571	1211.487149992353	1
6	575	1217.106821048956	1
6	576	1220.294915505894	0
6	578	1222.187040243271	0
6	579	1225.118633808958	0
6	581	1229.137359880271	0
6	583	1230.742420810067	1
6	584	1231.224625596375	1
6	585	1232.714634113103	0
6	590	1241.579059115042	0
6	592	1243.485386794217	1
6	593	1244.613035145301	1
6	594	1250.813592386461	0
6	596	1259.835760388708	0
6	598	1261.215077139916	1
6	599	1261.881851494197	1
6	600	1269.373884074087	0
6	609	1281.144771545962	0
6	611	1286.813517328929	1
6	613	1290.596789691155	2
6	619	1305.962453132044	3
6	625	1312.995428447974	4
6	630	1317.376687031108	5
6	632	1320.216093915217	6
6	635	1324.53062450491	7
6	638	1325.881155680585	8
6	643	1335.272079502913	9
6	645	1335.806599765196	10
6	647	1336.515749204007	11
6	649	1337.649016055635	11
6	651	1342.118909752105	11
6	652	1346.380324721195	11
6	653	1351.627474229867	10
6	654	1351.82434746659	9
6	655	1352.349064549673	8
6	662	1368.354666486145	7
6	663	1369.006575367555	6
6	664	1373.213326179653	5
6	665	1375.272561714024	4
6	666	1376.986193060192	3
6	667	1377.20258321126	2
6	668	1379.184281661401	1
6	669	1381.38767681058	0
6	671	1384.84673323077	0
6	673	1386.893093362784	1
6	674	1389.727846296777	1
6	675	1389.939941685389	0
6	677	1391.798389368981	0
6	679	1403.202839834223	1
6	681	1403.920456823309	2
6	682	1405.990526205684	2
6	683	1408.844700426976	1
6	684	1409.969255263084	0
6	686	1420.273671390911	0
6	687	1421.468630757585	0
6	689	1440.173971765543	0
6	690	1440.272575161654	0
6	695	1449.518260083194	0
6	703	1460.539974187747	1
6	707	1466.772108924996	1
6	709	1467.848024405061	1
6	711	1469.095230486552	2
6	713	1469.985964243131	3
6	714	1470.676076343025	3
6	716	1480.056475120775	3
6	718	1481.268096005576	4
6	719	1483.373748493938	4
6	720	1483.874631691156	3
6	721	1484.550104937659	2
6	725	1496.725114839184	1
6	727	1497.204046517625	1
6	728	1500.595667350869	1
6	729	1502.920141272593	0
6	734	1518.875082245208	0
6	735	1520.332780215637	0
6	739	1525.623965836859	0
6	741	1527.782095723479	1
6	743	1529.37672109118	1
6	745	1529.596622400465	1
6	747	1531.339929549102	2
6	748	1537.411910038494	2
6	750	1539.152779654656	2
6	752	1540.895297695028	3
6	753	1542.701143992895	3
6	754	1546.985312703481	2
6	755	1552.664988258005	1
6	757	1552.853280549139	1
6	758	1552.940932844939	1
6	759	1553.59233361858	0
6	763	1554.383510647309	0
6	765	1557.994390446687	0
6	767	1572.961662525789	0
6	772	1575.714470806213	1
6	773	1580.541167267482	1
6	775	1583.828528454689	1
6	776	1585.757819631365	1
6	777	1587.681661346883	0
6	779	1598.809142560443	0
6	780	1602.530315019035	0
6	782	1613.696400737282	0
6	783	1614.271803435251	0
6	787	1621.907817106086	0
6	789	1622.31002925285	1
6	791	1624.358444580792	2
6	793	1640.959528380243	2
6	794	1641.85226028502	1
6	795	1642.398684804063	0
6	802	1663.757812045068	0
6	804	1666.416554936188	1
6	806	1672.586018506982	1
6	808	1672.64424859245	1
6	810	1680.526224448561	2
6	811	1681.25353095822	2
6	812	1683.788728458319	1
6	813	1684.747656516705	0
6	823	1710.318132843612	0
6	826	1714.293339977835	1
6	827	1718.01154240666	1
6	829	1718.084805929546	1
6	831	1725.484517705623	2
6	832	1726.903663959817	2
6	834	1726.975676381114	2
6	835	1730.995766091046	2
6	839	1735.389111784616	1
6	840	1736.876119490721	0
6	844	1743.294389927774	0
6	848	1744.421660029402	1
6	853	1755.941372109301	2
6	855	1763.668176453331	3
6	858	1765.568569144376	3
6	859	1769.273109742822	2
6	861	1770.221910112845	2
6	862	1770.355351400315	2
6	863	1772.5848849453	1
6	864	1773.36617759337	0
6	868	1790.113433138279	0
6	870	1791.583001313832	1
6	876	1801.182068619676	2
6	877	1801.908710969013	2
6	878	1802.578127290634	1
6	879	1803.581096064394	0
6	881	1804.051889999432	0
6	882	1804.72931193118	0
6	884	1816.993400954675	0
6	886	1819.834835112653	1
6	887	1820.321574256382	1
6	889	1821.339737626092	1
6	890	1821.857360561521	1
6	891	1822.72665792983	0
6	893	1825.14610524439	0
6	894	1825.55701347694	0
6	896	1828.541154669257	0
6	898	1828.717307722878	1
6	900	1829.424264379244	2
6	901	1829.863619596195	2
6	903	1834.169884143891	2
6	904	1834.304855660614	2
6	906	1839.70340363286	2
6	907	1840.171187211553	2
6	908	1840.216109494128	1
6	909	1841.616217842664	0
6	911	1843.468980196812	0
6	912	1849.253774419244	0
6	916	1855.716236927823	0
6	918	1861.806249823189	1
6	920	1866.374358655753	1
6	921	1868.177228877631	0
6	923	1869.715884528952	0
6	924	1870.392719479671	0
6	926	1871.377560180694	0
6	927	1872.781434825896	0
6	929	1873.028429102896	0
6	930	1873.454525555254	0
6	932	1877.997101666317	0
6	933	1878.587384147986	0
6	941	1903.84832920382	0
6	942	1904.143650317871	0
6	947	1910.23864665529	0
6	948	1912.108047799759	0
6	950	1923.432083544034	0
6	951	1923.639660793074	0
6	955	1960.039365907734	0
6	957	1968.288958189991	1
6	962	1975.326106130925	2
6	964	1980.980090044125	3
6	966	1982.684070999175	4
6	968	1984.530326514136	4
6	969	1991.058551831308	3
6	970	1995.047511345776	2
6	971	1995.883193276624	1
6	973	1999.747928399395	1
6	974	2001.6725553993	1
6	975	2002.222344968527	0
6	977	2010.133410106158	0
6	978	2012.13079965037	0
6	982	2016.520771429637	0
6	984	2016.753743487101	1
6	989	2027.642227590007	2
6	991	2027.966526499892	3
6	993	2028.769498076468	4
6	995	2031.011218546207	4
6	996	2031.663707987959	3
6	998	2033.860208532856	3
6	999	2034.016145487939	3
6	1000	2036.006398667166	2
6	1001	2036.942067651078	1
6	1002	2039.524526721228	0
6	1004	2049.487973869718	0
6	1005	2049.894975366944	0
6	1007	2060.097357441063	0
6	1008	2061.900872830533	0
6	1010	2069.15897862647	0
6	1011	2073.995436204668	0
6	1019	2134.481129799226	0
6	1021	2142.074008915878	1
6	1022	2146.304039907718	1
6	1024	2146.781749050434	1
6	1026	2146.784535038275	2
6	1028	2148.086814447921	3
6	1029	2150.726714833383	3
6	1030	2151.679381971879	2
6	1031	2154.086823386672	1
6	1032	2158.277803598535	0
6	1034	2158.500431566153	0
6	1035	2158.584913052378	0
6	1046	2177.132411439339	0
6	1048	2177.799656478916	1
6	1049	2178.733230832379	1
6	1050	2179.518824967618	0
6	1055	2193.954006118779	0
6	1056	2198.064957825427	0
6	1058	2206.945878337797	0
6	1060	2208.441259711246	1
6	1061	2209.557466546582	1
6	1063	2209.854623402569	1
6	1064	2210.753425315769	1
6	1065	2213.757666885775	0
6	1070	2237.548623821418	0
6	1075	2241.407922421277	1
6	1076	2241.708445996454	1
6	1078	2241.759293760181	1
6	1080	2244.136904210264	2
6	1081	2246.207423025062	2
6	1082	2251.363490451435	1
6	1086	2255.473681503582	0
6	1088	2258.445932998195	0
6	1090	2258.665064005915	1
6	1091	2259.608528347582	1
6	1092	2260.810514316841	0
6	1094	2297.678040884525	0
6	1096	2298.970300673345	1
6	1098	2302.107353899143	2
6	1099	2308.93048815507	2
6	1100	2309.174601752251	1
6	1102	2309.250515592818	1
6	1103	2312.11747101272	1
6	1104	2312.902872529903	0
6	1106	2319.217539614216	0
6	1107	2324.241721814115	0
6	1109	2341.010863998471	0
6	1111	2343.787560148528	1
6	1116	2356.269138156631	2
6	1118	2357.424688540216	3
6	1119	2358.053914361951	3
6	1123	2361.010328722309	2
6	1124	2368.330325416774	1
6	1128	2371.83423005954	1
6	1130	2384.839575275521	1
6	1131	2388.653013346686	0
6	1133	2405.260191258795	0
6	1134	2405.674169586937	0
6	1136	2409.872830752608	0
6	1137	2413.442563512245	0
6	1145	2435.258806490311	0
6	1146	2435.813149437551	0
6	1154	2465.030252498576	0
6	1155	2466.090829199096	0
6	1157	2475.340337087485	0
6	1158	2479.755444185186	0
6	1162	2480.296612191078	0
6	1164	2486.417008885526	0
6	1166	2486.589377076387	0
6	1167	2487.711514740588	0
6	1169	2495.328009140238	0
6	1170	2498.738222627525	0
7	161	397.949897162909	0
7	167	411.471568794108	0
7	170	420.230523895315	0
7	173	423.626370630007	0
7	211	481.880109021083	55.466311749551
7	214	488.005114410166	54.026093009105
7	215	489.951462046584	54.954002495988
7	216	491.068122989911	54.604764618836
7	217	491.723356970042	44.384344599642
7	218	497.251245563349	36.566684121558
7	219	498.344227341934	36.134966696426
7	220	498.412183270928	26.611956425368
7	223	504.01749858497	21.89295652123
7	226	506.627278917116	4.681258801166
7	229	512.193235006107	8.04036162217
7	230	514.973509331986	8.209194478628
7	233	519.780855797719	3.06035821026
7	236	525.437119663705	0.352475857053
7	246	540.179106787114	7.911673523946
7	247	541.652327779574	5.924459511917
7	248	542.786743816245	5.768339766702
7	251	549.634151508763	0
7	256	557.658169901083	6.095389173973
7	259	562.013352648659	10.062376463601
7	275	569.01799702735	9.978261806099
7	278	573.069913301495	10.47005513777
7	279	578.799713796106	15.922482970559
7	282	581.498883344136	18.544099228575
7	293	600.935397944579	35.926836225822
7	294	602.307938826456	36.87720907149
7	297	606.129468712228	38.03353700944
7	300	608.956198260866	37.611138145864
7	306	619.136330920387	39.400497530211
7	309	624.958391135937	42.318545987389
7	312	626.44127940411	38.60442091894
7	315	627.078463406776	21.641886137602
7	316	629.99657251138	21.537448991865
7	319	633.853587314938	20.523225406517
7	322	648.200737231037	25.26422794398
7	323	650.781129695891	25.761060276969
7	341	701.729457834019	75.160245876336
7	342	703.976044258045	72.286316767628
7	345	716.253995788916	80.7602219258
7	346	717.176007723185	65.236918979515
7	347	717.97996555562	58.572060599299
7	350	722.325909671393	42.668113131044
7	351	724.25723683293	22.930043534059
7	356	728.011123821971	14.104238254451
7	357	730.480002978742	10.393152537141
7	360	734.621671911333	10.181092398848
7	361	735.187762577687	7.729866990991
7	369	760.635495873769	27.322186634704
7	386	798.407982218346	55.590534069858
7	389	808.382678996186	59.027938448099
7	390	808.793605642771	47.553322095504
7	393	812.582770372617	36.306262009209
7	394	814.009739366983	36.722171602833
7	395	815.539538560612	28.161141934964
7	396	816.904239163103	26.26059580295
7	399	820.023730118504	19.981458665156
7	400	825.057875545958	14.487825505945
7	401	825.108215296187	7.383193002834
7	412	855.68105121832	16.165143430863
7	413	860.058008921865	18.369951901576
7	416	863.035404941291	0.244189755212
7	419	869.66179205242	0
7	422	877.340022200654	0.842594378057
7	425	878.208217754961	0.694916922668
7	428	886.270071100297	0
7	434	897.008927606339	10.133014178808
7	437	902.631208475954	0
7	440	907.903030969017	1.733212776387
7	443	920.651580677701	0
7	446	936.116745149452	0
7	452	945.211657223258	0
7	455	958.429144938276	0
7	458	965.565444506313	0
7	461	965.738090244711	0
7	472	981.07547361178	14.822474799249
7	477	988.942571028483	19.879334101248
7	478	992.218961662458	20.116533068589
7	481	995.687781162363	21.982584766552
7	486	998.792011472344	23.397149620579
7	487	999.086452838822	17.994224891195
7	494	1013.698961321587	28.086016567549
7	495	1015.723071432146	23.286285109948
7	498	1017.96918442042	20.648787868756
7	503	1030.934295572839	32.754411895924
7	510	1040.468199502757	37.995784816452
7	511	1040.943394601266	36.81221459552
7	512	1042.685667177134	32.876807609332
7	513	1044.828480998693	26.89809237676
7	516	1049.917315180036	27.497538106931
7	517	1050.404983326316	25.104100790907
7	518	1053.745768626159	22.624667147787
7	519	1056.588153041799	18.648679971638
7	520	1058.731948355171	19.502520098709
7	521	1059.289913417199	9.63184600516
7	528	1075.111035527161	15.28730527683
7	531	1081.94478706034	20.87498883336
7	532	1082.872043875748	10.952515141029
7	533	1082.886830882617	7.522393007985
7	536	1095.56391038071	0
7	539	1103.766454948256	0
7	542	1110.542400832551	0
7	545	1123.489569023027	0
7	548	1124.218693505945	0
7	551	1152.481030913731	0
7	554	1158.036682929179	0
7	563	1197.501637819124	0
7	566	1200.225464516131	0.124326090806
7	569	1211.222097662782	0
7	574	1214.169469617819	2.682319625466
7	575	1217.106821048956	4.442314278521
7	578	1222.187040243271	0
7	581	1229.137359880271	0
7	584	1231.224625596375	0.482204786308
7	590	1241.579059115042	0
7	593	1244.613035145301	1.127648351084
7	596	1259.835760388708	0
7	599	1261.881851494197	0.666774354281
7	639	1327.900215158082	46.75544361212
7	648	1336.633754054762	49.820236725833
7	649	1337.649016055635	47.05222636448
7	652	1346.380324721195	40.417871589151
7	653	1351.627474229867	38.632045781893
7	654	1351.82434746659	34.447660435482
7	655	1352.349064549673	32.132970634456
7	658	1361.081389000582	36.550764495672
7	661	1366.553072788373	40.671917107788
7	662	1368.354666486145	35.371036248238
7	663	1369.006575367555	33.734495864642
7	664	1373.213326179653	37.406726414457
7	665	1375.272561714024	38.756812510017
7	666	1376.986193060192	34.867283308087
7	667	1377.20258321126	18.052027525036
7	668	1379.184281661401	15.487025059449
7	671	1384.84673323077	0
7	674	1389.727846296777	2.834752933993
7	677	1391.798389368981	0
7	682	1405.990526205684	2.787686371461
7	683	1408.844700426976	4.924243603667
7	686	1420.273671390911	0
7	689	1440.173971765543	0
7	695	1449.518260083194	0
7	701	1457.93887908248	7.49383799099
7	706	1463.152470291169	2.612496103422
7	707	1466.772108924996	5.763589159777
7	714	1470.676076343025	2.828051937964
7	719	1483.373748493938	14.278518007386
7	720	1483.874631691156	13.888667448025
7	721	1484.550104937659	4.493629816884
7	724	1492.239579014349	10.971483008773
7	725	1496.725114839184	10.185821440888
7	728	1500.595667350869	3.391620833244
7	734	1518.875082245208	0
7	742	1529.01565464048	3.391688803621
7	743	1529.37672109118	1.594625367701
7	748	1537.411910038494	7.815287638029
7	753	1542.701143992895	11.361214443793
7	754	1546.985312703481	7.832533048825
7	755	1552.664988258005	11.769690562977
7	758	1552.940932844939	0.0876522958
7	764	1556.47200349722	2.088492849911
7	767	1572.961662525789	0
7	770	1573.596987126099	0.042351122649
7	773	1580.541167267482	4.826696461269
7	776	1585.757819631365	1.929291176676
7	779	1598.809142560443	0
7	782	1613.696400737282	0
7	792	1634.785217356385	12.877400250299
7	793	1640.959528380243	18.649499127393
7	794	1641.85226028502	17.493815704228
7	805	1672.084308815686	8.326496770618
7	806	1672.586018506982	6.169463570794
7	811	1681.25353095822	8.60928236577
7	812	1683.788728458319	3.262504009758
7	824	1711.964671936533	1.646539092921
7	827	1718.01154240666	3.718202428825
7	832	1726.903663959817	8.818858030271
7	835	1730.995766091046	5.511248385423
7	838	1732.897640203678	5.921963822564
7	839	1735.389111784616	2.682163452176
7	857	1765.011909964784	21.71752003701
7	858	1765.568569144376	21.146909114974
7	859	1769.273109742822	13.331737633521
7	862	1770.355351400315	6.687174946984
7	863	1772.5848849453	2.362974832455
7	874	1800.043300235634	9.929867097355
7	877	1801.908710969013	10.325709655181
7	878	1802.578127290634	1.396058670958
7	881	1804.051889999432	0
7	884	1816.993400954675	0
7	887	1820.321574256382	0.486739143729
7	890	1821.857360561521	0.517622935429
7	893	1825.14610524439	0
7	896	1828.541154669257	0
7	901	1829.863619596195	1.146311873317
7	904	1834.304855660614	4.88059128137
7	907	1840.171187211553	6.001303067662
7	908	1840.216109494128	0.512705861268
7	911	1843.468980196812	0
7	919	1863.290033640906	7.573796713083
7	920	1866.374358655753	4.568108832564
7	923	1869.715884528952	0
7	926	1871.377560180694	0
7	929	1873.028429102896	0
7	932	1877.997101666317	0
7	941	1903.84832920382	0
7	947	1910.23864665529	0
7	950	1923.432083544034	0
7	958	1970.692395873064	10.65302996533
7	967	1983.236388561276	14.947430371285
7	968	1984.530326514136	11.717855627952
7	969	1991.058551831308	15.732445700383
7	970	1995.047511345776	14.067421301651
7	971	1995.883193276624	13.199122277449
7	974	2001.6725553993	1.924626999905
7	977	2010.133410106158	0
7	985	2019.281179728815	2.760408299178
7	994	2028.847396853467	12.093653366366
7	995	2031.011218546207	4.376998441275
7	996	2031.663707987959	4.021480397952
7	999	2034.016145487939	6.049618988047
7	1000	2036.006398667166	7.236900590698
7	1001	2036.942067651078	3.081859118222
7	1004	2049.487973869718	0
7	1007	2060.097357441063	0
7	1010	2069.15897862647	0
7	1019	2134.481129799226	0
7	1022	2146.304039907718	4.23003099184
7	1029	2150.726714833383	3.944965782949
7	1030	2151.679381971879	4.894846933604
7	1031	2154.086823386672	6.000008938751
7	1034	2158.500431566153	0
7	1046	2177.132411439339	0
7	1049	2178.733230832379	0.933574353463
7	1055	2193.954006118779	0
7	1058	2206.945878337797	0
7	1061	2209.557466546582	1.116206835336
7	1064	2210.753425315769	0.8988019132
7	1070	2237.548623821418	0
7	1073	2240.946529180107	1.678724815372
7	1076	2241.708445996454	0.300523575177
7	1081	2246.207423025062	4.448129264881
7	1082	2251.363490451435	7.226586241171
7	1085	2253.369155344257	0.753065042738
7	1088	2258.445932998195	0
7	1091	2259.608528347582	0.943464341667
7	1094	2297.678040884525	0
7	1099	2308.93048815507	9.960187481725
7	1100	2309.174601752251	7.067247853108
7	1103	2312.11747101272	2.866955419902
7	1106	2319.217539614216	0
7	1109	2341.010863998471	0
7	1114	2354.620060150715	10.832500002187
7	1119	2358.053914361951	12.675406607554
7	1122	2359.08707424518	2.817936088549
7	1123	2361.010328722309	3.585640182093
7	1124	2368.330325416774	9.429993183918
7	1129	2380.022889197492	9.304964015936
7	1130	2384.839575275521	13.005345215981
7	1133	2405.260191258795	0
7	1136	2409.872830752608	0
7	1145	2435.258806490311	0
7	1154	2465.030252498576	0
7	1157	2475.340337087485	0
7	1163	2481.25163528861	0.955023097532
7	1166	2486.589377076387	0
7	1169	2495.328009140238	0
8	162	399.652717191698	38
8	168	411.526688730672	39
8	171	421.636650385759	40
8	214	488.005114410166	41
8	215	489.951462046584	42
8	216	491.068122989911	43
8	217	491.723356970042	44
8	218	497.251245563349	45
8	219	498.344227341934	46
8	220	498.412183270928	47
8	223	504.01749858497	48
8	226	506.627278917116	49
8	229	512.193235006107	50
8	230	514.973509331986	51
8	233	519.780855797719	52
8	236	525.437119663705	53
8	247	541.652327779574	54
8	248	542.786743816245	55
8	249	543.521064949079	56
8	259	562.013352648659	57
8	278	573.069913301495	58
8	279	578.799713796106	59
8	294	602.307938826456	60
8	300	608.956198260866	61
8	309	624.958391135937	62
8	315	627.078463406776	63
8	316	629.99657251138	64
8	319	633.853587314938	65
8	323	650.781129695891	66
8	342	703.976044258045	67
8	345	716.253995788916	68
8	346	717.176007723185	69
8	347	717.97996555562	70
8	350	722.325909671393	71
8	351	724.25723683293	72
8	357	730.480002978742	73
8	360	734.621671911333	74
8	361	735.187762577687	75
8	389	808.382678996186	76
8	390	808.793605642771	77
8	393	812.582770372617	78
8	394	814.009739366983	79
8	395	815.539538560612	80
8	396	816.904239163103	81
8	399	820.023730118504	82
8	400	825.057875545958	83
8	401	825.108215296187	84
8	402	825.558027016281	85
8	413	860.058008921865	86
8	416	863.035404941291	87
8	417	863.202539071646	88
8	422	877.340022200654	89
8	425	878.208217754961	90
8	426	879.228156058982	91
8	435	898.846718802775	92
8	441	917.617346556587	93
8	444	922.052959929247	94
8	447	936.409107413616	95
8	453	946.985449596623	96
8	456	962.245007899164	97
8	459	965.736293654515	98
8	478	992.218961662458	99
8	487	999.086452838822	100
8	495	1015.723071432146	101
8	498	1017.96918442042	102
8	503	1030.934295572839	103
8	511	1040.943394601266	104
8	512	1042.685667177134	105
8	513	1044.828480998693	106
8	516	1049.917315180036	107
8	517	1050.404983326316	108
8	518	1053.745768626159	109
8	519	1056.588153041799	110
8	520	1058.731948355171	111
8	521	1059.289913417199	112
8	532	1082.872043875748	113
8	533	1082.886830882617	114
8	534	1084.442379256183	115
8	537	1101.670898957973	116
8	540	1104.885730734597	117
8	543	1111.044713419677	118
8	546	1123.713491768707	119
8	549	1131.961953035146	120
8	552	1153.953920448756	121
8	555	1165.785091207078	122
8	566	1200.225464516131	123
8	567	1200.6362347952	124
8	575	1217.106821048956	125
8	576	1220.294915505894	126
8	579	1225.118633808958	127
8	584	1231.224625596375	128
8	585	1232.714634113103	129
8	593	1244.613035145301	130
8	594	1250.813592386461	131
8	599	1261.881851494197	132
8	600	1269.373884074087	133
8	649	1337.649016055635	134
8	652	1346.380324721195	135
8	653	1351.627474229867	136
8	654	1351.82434746659	137
8	655	1352.349064549673	138
8	662	1368.354666486145	139
8	663	1369.006575367555	140
8	664	1373.213326179653	141
8	665	1375.272561714024	142
8	666	1376.986193060192	143
8	667	1377.20258321126	144
8	668	1379.184281661401	145
8	669	1381.38767681058	146
8	674	1389.727846296777	147
8	675	1389.939941685389	148
8	682	1405.990526205684	149
8	683	1408.844700426976	150
8	684	1409.969255263084	151
8	687	1421.468630757585	152
8	690	1440.272575161654	153
8	707	1466.772108924996	154
8	714	1470.676076343025	155
8	719	1483.373748493938	156
8	720	1483.874631691156	157
8	721	1484.550104937659	158
8	725	1496.725114839184	159
8	728	1500.595667350869	160
8	729	1502.920141272593	161
8	735	1520.332780215637	162
8	743	1529.37672109118	163
8	748	1537.411910038494	164
8	753	1542.701143992895	165
8	754	1546.985312703481	166
8	755	1552.664988258005	167
8	758	1552.940932844939	168
8	759	1553.59233361858	169
8	765	1557.994390446687	170
8	773	1580.541167267482	171
8	776	1585.757819631365	172
8	777	1587.681661346883	173
8	780	1602.530315019035	174
8	783	1614.271803435251	175
8	793	1640.959528380243	176
8	794	1641.85226028502	177
8	795	1642.398684804063	178
8	806	1672.586018506982	179
8	811	1681.25353095822	180
8	812	1683.788728458319	181
8	813	1684.747656516705	182
8	827	1718.01154240666	183
8	832	1726.903663959817	184
8	835	1730.995766091046	185
8	839	1735.389111784616	186
8	840	1736.876119490721	187
8	858	1765.568569144376	188
8	859	1769.273109742822	189
8	862	1770.355351400315	190
8	863	1772.5848849453	191
8	864	1773.36617759337	192
8	877	1801.908710969013	193
8	878	1802.578127290634	194
8	879	1803.581096064394	195
8	882	1804.72931193118	196
8	887	1820.321574256382	197
8	890	1821.857360561521	198
8	891	1822.72665792983	199
8	894	1825.55701347694	200
8	901	1829.863619596195	201
8	904	1834.304855660614	202
8	907	1840.171187211553	203
8	908	1840.216109494128	204
8	909	1841.616217842664	205
8	912	1849.253774419244	206
8	920	1866.374358655753	207
8	921	1868.177228877631	208
8	924	1870.392719479671	209
8	927	1872.781434825896	210
8	930	1873.454525555254	211
8	933	1878.587384147986	212
8	942	1904.143650317871	213
8	948	1912.108047799759	214
8	951	1923.639660793074	215
8	968	1984.530326514136	216
8	969	1991.058551831308	217
8	970	1995.047511345776	218
8	971	1995.883193276624	219
8	974	2001.6725553993	220
8	975	2002.222344968527	221
8	978	2012.13079965037	222
8	995	2031.011218546207	223
8	996	2031.663707987959	224
8	999	2034.016145487939	225
8	1000	2036.006398667166	226
8	1001	2036.942067651078	227
8	1002	2039.524526721228	228
8	1005	2049.894975366944	229
8	1008	2061.900872830533	230
8	1011	2073.995436204668	231
8	1022	2146.304039907718	232
8	1029	2150.726714833383	233
8	1030	2151.679381971879	234
8	1031	2154.086823386672	235
8	1032	2158.277803598535	236
8	1035	2158.584913052378	237
8	1049	2178.733230832379	238
8	1050	2179.518824967618	239
8	1056	2198.064957825427	240
8	1061	2209.557466546582	241
8	1064	2210.753425315769	242
8	1065	2213.757666885775	243
8	1076	2241.708445996454	244
8	1081	2246.207423025062	245
8	1082	2251.363490451435	246
8	1086	2255.473681503582	247
8	1091	2259.608528347582	248
8	1092	2260.810514316841	249
8	1099	2308.93048815507	250
8	1100	2309.174601752251	251
8	1103	2312.11747101272	252
8	1104	2312.902872529903	253
8	1107	2324.241721814115	254
8	1119	2358.053914361951	255
8	1123	2361.010328722309	256
8	1124	2368.330325416774	257
8	1130	2384.839575275521	258
8	1131	2388.653013346686	259
8	1134	2405.674169586937	260
8	1137	2413.442563512245	261
8	1146	2435.813149437551	262
8	1155	2466.090829199096	263
8	1158	2479.755444185186	264
8	1164	2486.417008885526	265
8	1167	2487.711514740588	266
8	1170	2498.738222627525	267
9	162	399.652717191698	1.702820028789
9	168	411.526688730672	0.055119936564
9	171	421.636650385759	1.406126490444
9	214	488.005114410166	61.591317138634
9	215	489.951462046584	55.972440645523
9	216	491.068122989911	56.070663439315
9	217	491.723356970042	55.259998598967
9	218	497.251245563349	49.912233192949
9	219	498.344227341934	37.659665900143
9	220	498.412183270928	36.20292262542
9	223	504.01749858497	32.21727173941
9	226	506.627278917116	24.502736853376
9	229	512.193235006107	10.247214890157
9	230	514.973509331986	10.820635948049
9	233	519.780855797719	13.016540944361
9	236	525.437119663705	8.716622076246
9	247	541.652327779574	9.384894516406
9	248	542.786743816245	7.058875548588
9	249	543.521064949079	6.502660899536
9	259	562.013352648659	10.450571921549
9	278	573.069913301495	14.030178080244
9	279	578.799713796106	16.199855632381
9	294	602.307938826456	37.299377107699
9	300	608.956198260866	40.860266558078
9	309	624.958391135937	45.222557745761
9	315	627.078463406776	39.241604921606
9	316	629.99657251138	24.559995242206
9	319	633.853587314938	25.394463795423
9	323	650.781129695891	27.844620408834
9	342	703.976044258045	77.406832300362
9	345	716.253995788916	84.564268298499
9	346	717.176007723185	81.682233860069
9	347	717.97996555562	66.04087681195
9	350	722.325909671393	62.918004715072
9	351	724.25723683293	44.599440292581
9	357	730.480002978742	16.573117411222
9	360	734.621671911333	14.534821469732
9	361	735.187762577687	10.747183065202
9	389	808.382678996186	65.565230847698
9	390	808.793605642771	59.438865094684
9	393	812.582770372617	51.34248682535
9	394	814.009739366983	37.733231003575
9	395	815.539538560612	38.251970796462
9	396	816.904239163103	29.525842537455
9	399	820.023730118504	29.380086758351
9	400	825.057875545958	25.01560409261
9	401	825.108215296187	14.538165256174
9	402	825.558027016281	7.833004722928
9	413	860.058008921865	20.542101134408
9	416	863.035404941291	21.347347921002
9	417	863.202539071646	0.411323885567
9	422	877.340022200654	7.678230148234
9	425	878.208217754961	1.710789932364
9	426	879.228156058982	1.714855226689
9	435	898.846718802775	11.970805375244
9	441	917.617346556587	11.447528363957
9	444	922.052959929247	1.401379251546
9	447	936.409107413616	0.292362264164
9	453	946.985449596623	1.773792373365
9	456	962.245007899164	3.815862960888
9	459	965.736293654515	0.170849148202
9	478	992.218961662458	23.155724735223
9	487	999.086452838822	23.691590987057
9	495	1015.723071432146	30.110126678108
9	498	1017.96918442042	25.532398098222
9	503	1030.934295572839	33.613899021175
9	511	1040.943394601266	38.470979914961
9	512	1042.685667177134	38.554487171388
9	513	1044.828480998693	35.019621430891
9	516	1049.917315180036	31.986926558103
9	517	1050.404983326316	27.985206253211
9	518	1053.745768626159	28.44488609075
9	519	1056.588153041799	25.467051563427
9	520	1058.731948355171	20.79247528501
9	521	1059.289913417199	20.060485160737
9	532	1082.872043875748	21.802245648768
9	533	1082.886830882617	10.967302147898
9	534	1084.442379256183	9.077941381551
9	537	1101.670898957973	6.106988577263
9	540	1104.885730734597	1.119275786341
9	543	1111.044713419677	0.502312587126
9	546	1123.713491768707	0.22392274568
9	549	1131.961953035146	7.743259529201
9	552	1153.953920448756	1.472889535025
9	555	1165.785091207078	7.748408277899
9	566	1200.225464516131	2.723826697007
9	567	1200.6362347952	0.535096369875
9	575	1217.106821048956	5.619671056603
9	576	1220.294915505894	7.630408735459
9	579	1225.118633808958	2.931593565687
9	584	1231.224625596375	2.087265716104
9	585	1232.714634113103	1.972213303036
9	593	1244.613035145301	3.033976030259
9	594	1250.813592386461	7.328205592244
9	599	1261.881851494197	2.046091105489
9	600	1269.373884074087	8.158806934171
9	649	1337.649016055635	50.835498726706
9	652	1346.380324721195	55.78353503004
9	653	1351.627474229867	45.665021097823
9	654	1351.82434746659	38.828919018616
9	655	1352.349064549673	34.972377518565
9	662	1368.354666486145	42.47351080556
9	663	1369.006575367555	36.022945129648
9	664	1373.213326179653	37.94124667674
9	665	1375.272561714024	39.465961948828
9	666	1376.986193060192	40.470443856185
9	667	1377.20258321126	35.083673459155
9	668	1379.184281661401	20.033725975177
9	669	1381.38767681058	17.690420208628
9	674	1389.727846296777	4.881113066007
9	675	1389.939941685389	3.046848322605
9	682	1405.990526205684	14.192136836703
9	683	1408.844700426976	5.641860592753
9	684	1409.969255263084	6.048798439775
9	687	1421.468630757585	1.194959366674
9	690	1440.272575161654	0.098603396111
9	707	1466.772108924996	6.232134737249
9	714	1470.676076343025	9.667556577806
9	719	1483.373748493938	15.525724088877
9	720	1483.874631691156	14.779401204604
9	721	1484.550104937659	14.564140694528
9	725	1496.725114839184	15.457018833608
9	728	1500.595667350869	14.056373952573
9	729	1502.920141272593	5.716094754968
9	735	1520.332780215637	1.457697970429
9	743	1529.37672109118	3.752755254321
9	748	1537.411910038494	9.629814315015
9	753	1542.701143992895	13.10452159243
9	754	1546.985312703481	15.645383154379
9	755	1552.664988258005	13.512208603349
9	758	1552.940932844939	12.045635149911
9	759	1553.59233361858	0.739053069441
9	765	1557.994390446687	3.610879799378
9	773	1580.541167267482	6.986531264032
9	776	1585.757819631365	10.043348825152
9	777	1587.681661346883	3.853132892194
9	780	1602.530315019035	3.721172458592
9	783	1614.271803435251	0.575402697969
9	793	1640.959528380243	19.051711274157
9	794	1641.85226028502	19.54223103217
9	795	1642.398684804063	18.040240223271
9	806	1672.586018506982	8.828206461914
9	811	1681.25353095822	14.836976022032
9	812	1683.788728458319	11.144479865869
9	813	1684.747656516705	4.221432068144
9	827	1718.01154240666	7.693409563048
9	832	1726.903663959817	12.610323981982
9	835	1730.995766091046	12.9109601615
9	839	1735.389111784616	8.413435403502
9	840	1736.876119490721	4.169171158281
9	858	1765.568569144376	22.274179216602
9	859	1769.273109742822	24.85144971342
9	862	1770.355351400315	14.413979291014
9	863	1772.5848849453	8.916708491969
9	864	1773.36617759337	3.144267480525
9	877	1801.908710969013	11.795277830734
9	878	1802.578127290634	10.995125976802
9	879	1803.581096064394	2.399027444718
9	882	1804.72931193118	0.677421931748
9	887	1820.321574256382	3.328173301707
9	890	1821.857360561521	2.022525448868
9	891	1822.72665792983	1.386920303738
9	894	1825.55701347694	0.41090823255
9	901	1829.863619596195	1.322464926938
9	904	1834.304855660614	5.587547937736
9	907	1840.171187211553	10.746922832309
9	908	1840.216109494128	6.046225350237
9	909	1841.616217842664	1.912814209804
9	912	1849.253774419244	5.784794222432
9	920	1866.374358655753	10.65812172793
9	921	1868.177228877631	6.370979054442
9	924	1870.392719479671	0.676834950719
9	927	1872.781434825896	1.403874645202
9	930	1873.454525555254	0.426096452358
9	933	1878.587384147986	0.590282481669
9	942	1904.143650317871	0.295321114051
9	948	1912.108047799759	1.869401144469
9	951	1923.639660793074	0.20757724904
9	968	1984.530326514136	16.241368324145
9	969	1991.058551831308	18.246080945124
9	970	1995.047511345776	19.721405214851
9	971	1995.883193276624	14.903103232499
9	974	2001.6725553993	18.988484400125
9	975	2002.222344968527	2.474416569132
9	978	2012.13079965037	1.997389544212
9	995	2031.011218546207	14.257475059106
9	996	2031.663707987959	5.029487883027
9	999	2034.016145487939	6.373917897932
9	1000	2036.006398667166	8.039872167274
9	1001	2036.942067651078	8.17256957461
9	1002	2039.524526721228	5.664318188372
9	1005	2049.894975366944	0.407001497226
9	1008	2061.900872830533	1.80351538947
9	1011	2073.995436204668	4.836457578198
9	1022	2146.304039907718	11.822910108492
9	1029	2150.726714833383	8.652705917505
9	1030	2151.679381971879	4.897632921445
9	1031	2154.086823386672	7.302288348397
9	1032	2158.277803598535	10.190989150614
9	1035	2158.584913052378	0.084481486225
9	1049	2178.733230832379	1.60081939304
9	1050	2179.518824967618	1.719168488702
9	1056	2198.064957825427	4.110951706648
9	1061	2209.557466546582	2.611588208785
9	1064	2210.753425315769	2.312165604523
9	1065	2213.757666885775	3.903043483206
9	1076	2241.708445996454	2.440641631719
9	1081	2246.207423025062	4.799500603785
9	1082	2251.363490451435	9.604196691254
9	1086	2255.473681503582	2.857591202063
9	1091	2259.608528347582	1.162595349387
9	1092	2260.810514316841	2.145450310926
9	1099	2308.93048815507	11.252447270545
9	1100	2309.174601752251	10.204301078906
9	1103	2312.11747101272	10.010117113577
9	1104	2312.902872529903	3.652356937085
9	1107	2324.241721814115	5.024182199899
9	1119	2358.053914361951	14.266354213423
9	1123	2361.010328722309	4.741190565678
9	1124	2368.330325416774	10.905636876558
9	1130	2384.839575275521	14.121650093965
9	1131	2388.653013346686	16.818783287146
9	1134	2405.674169586937	0.413978328142
9	1137	2413.442563512245	3.569732759637
9	1146	2435.813149437551	0.55434294724
9	1155	2466.090829199096	1.06057670052
9	1158	2479.755444185186	4.415107097701
9	1164	2486.417008885526	6.120396694448
9	1167	2487.711514740588	1.122137664201
9	1170	2498.738222627525	3.410213487287
10	175	426.413797271532	5
10	238	532.267433263168	6
10	255	551.950976185058	7
10	261	562.599858163725	8
10	281	579.735833390176	9
10	286	587.83685848517	10
10	296	605.436577269174	11
10	302	613.330361908421	12
10	311	625.020069418922	13
10	321	635.493773863116	14
10	325	651.93908874367	15
10	353	724.440579512485	16
10	363	742.817448148488	17
10	371	761.240283547267	18
10	430	886.875913427531	19
10	439	906.16981819263	20
10	467	972.102428593869	21
10	476	985.612944754038	22
10	480	992.436786322198	23
10	485	998.179883676915	24
10	489	1002.472414686305	25
10	505	1031.121101478372	26
10	523	1059.823730250331	27
10	530	1075.364437874632	28
10	573	1212.664506770435	29
10	641	1332.983630237907	30
10	657	1359.150555686224	31
10	660	1363.697256601952	32
10	697	1450.44504109149	33
10	705	1461.008519765219	34
10	723	1486.539293398296	35
10	769	1573.55463600345	36
10	837	1732.70694833244	37
10	960	1972.812470886184	38
10	987	2026.634220104932	39
10	1072	2239.267804364735	40
10	1084	2252.616090301519	41
10	1113	2345.378507754397	42
10	1121	2358.900332232856	43
10	1126	2370.717925181556	44
11	1171	2500	0.1068
12	1171	2500	0.0492

