version 2
run experiments_easy_game_mode1-2141-20230308-12:09:14-29495
attr configname experiments_easy_game_mode1
attr datetime 20230308-12:09:14
attr experiment experiments_easy_game_mode1
attr inifile omnetpp.ini
attr iterationvars "$0=7.5, $1=3.5, $2=100"
attr iterationvarsf 7.5,3.5,100-
attr measurement "$0=7.5, $1=3.5, $2=100"
attr network Network
attr processid 29495
attr repetition 11
attr replication #11
attr resultdir results
attr runnumber 2141
attr seedset 11
param *.boss.arrival_mean 20
param *.boss.service_mean 7.5
param *.minion.arrival_mean 10
param *.minion.service_mean 3.5
param *.player.recover_rate_x 100
param **.minion.arrival_distribution 0
param **.minion.service_distribution 0
param **.boss.arrival_distribution 0
param **.boss.service_distribution 0

vector 0 Network.player minion_jobs_number_stat:vector ETV
attr source signal_minion_jobs_number
vector 1 Network.player minion_jobs_queue_number_stat:vector ETV
attr source signal_minion_jobs_queue_number
vector 2 Network.player boss_jobs_number_stat:vector ETV
attr source signal_boss_jobs_number
vector 3 Network.player boss_jobs_queue_number_stat:vector ETV
attr source signal_boss_jobs_queue_number
vector 4 Network.player boss_defeated_stat:vector ETV
attr source signal_boss_defeated
vector 5 Network.player boss_response_time_stat:vector ETV
attr source signal_boss_response_time
vector 6 Network.player boss_waiting_time_stat:vector ETV
attr source signal_boss_waiting_time
vector 7 Network.player minion_waiting_time_stat:vector ETV
attr source signal_minion_waiting_time
vector 8 Network.player minion_defeated_stat:vector ETV
attr source signal_minion_defeated
vector 9 Network.player minion_response_time_stat:vector ETV
attr source signal_minion_response_time
vector 10 Network.player minion_recovered_stat:vector ETV
attr source signal_minion_recovered
vector 11 Network.player minion_throughput:vector ETV
attr source signal_minion_throughput
vector 12 Network.player boss_throughput:vector ETV
attr source signal_boss_throughput
0	149	350.303694308731	2
0	153	352.709450616181	3
0	155	359.137739579226	4
0	160	369.266637427107	5
0	162	369.375412817191	6
0	164	370.873719345442	7
0	172	387.024720403828	8
0	177	393.162611874545	6
0	180	394.679426205505	6
0	188	415.383307801732	1
0	191	418.87213829018	1
0	196	421.862269267216	1
0	208	441.130071532625	1
0	212	452.061875109923	1
0	224	468.155898046976	1
0	227	488.009898807156	1
0	231	492.900364237022	2
0	234	494.512010483134	3
0	244	512.775260977005	2
0	247	521.052336852026	2
0	249	525.543254130801	3
0	252	527.276736677588	3
0	262	551.162666912064	2
0	264	553.060902280298	3
0	268	555.656423412936	2
0	270	556.754828330883	3
0	273	563.370178863217	3
0	277	565.638401836711	2
0	281	576.375778673491	1
0	285	582.448947497491	2
0	288	584.883224644294	3
0	292	600.709963063835	2
0	302	640.85141684619	1
0	309	687.76161823421	1
0	313	688.727931328968	2
0	317	705.076370722239	3
0	321	715.9480092005	3
0	326	720.686766845378	1
0	330	723.799091568504	2
0	332	731.050371694015	3
0	334	738.21519073483	4
0	336	738.822238024502	5
0	341	744.068287236785	6
0	350	756.484884622359	6
0	352	761.473385222325	7
0	354	762.226094275914	8
0	373	799.724576325184	1
0	384	821.147247013063	2
0	386	823.801422505266	3
0	390	836.749804546185	4
0	393	853.078903192315	5
0	404	870.998470699558	4
0	412	880.830733923947	2
0	418	893.217435194636	3
0	422	906.668866996905	4
0	427	918.623290573403	2
0	429	919.248349479899	3
0	434	945.855647726051	1
0	437	946.688111488124	1
0	440	968.031123308084	1
0	442	970.152406719344	2
0	444	971.150300432477	3
0	451	988.393433997575	1
0	453	994.490623682818	2
0	458	1027.125225611619	1
0	461	1033.912215976126	1
0	464	1043.308456436593	1
0	467	1044.462267627308	1
0	469	1045.632848180084	2
0	474	1047.302069123249	3
0	476	1047.837859487353	4
0	485	1089.368639708313	1
0	490	1100.071111898213	1
0	496	1103.239614144073	1
0	504	1121.983322707557	2
0	515	1144.728342827038	3
0	525	1167.137292667847	4
0	528	1168.93136648433	5
0	542	1208.632144335726	4
0	544	1210.051908615118	5
0	548	1219.258910902078	4
0	551	1223.076690675915	4
0	557	1234.450591372613	1
0	559	1238.123943579705	2
0	563	1242.928870294732	1
0	566	1248.411639262905	1
0	569	1251.379423845751	1
0	573	1255.399082031035	2
0	575	1263.372586817724	3
0	580	1271.767628511126	4
0	588	1293.504490813738	3
0	590	1294.505840097558	4
0	596	1310.016883361914	4
0	602	1326.010644670228	1
0	604	1326.130165290046	2
0	607	1329.258883718323	2
0	613	1339.996337954665	1
0	622	1364.234255218975	2
0	629	1385.251721740677	3
0	637	1408.453509734647	1
0	639	1410.541351761165	2
0	641	1410.701200519422	3
0	649	1437.916239710075	2
0	656	1457.135986058949	1
0	659	1463.863081362695	1
0	662	1475.121051293377	1
0	664	1485.698678768333	2
0	666	1486.082764281978	3
0	668	1488.654620302366	4
0	671	1492.350019974408	4
0	674	1494.481659191787	4
0	677	1502.788513431867	4
0	683	1521.305385869116	1
0	688	1530.321319216425	2
0	692	1541.740056958835	1
0	694	1553.159850998384	2
0	704	1568.578782640119	1
0	708	1578.587247343035	2
0	713	1589.573930396353	1
0	719	1617.49409152528	1
0	722	1622.843226805875	1
0	725	1636.203787737193	1
0	727	1636.223604907962	2
0	737	1649.882857743454	1
0	740	1652.748665399068	1
0	743	1653.901490038131	1
0	746	1656.281657010804	1
0	749	1663.086637639268	1
0	754	1676.909461828521	1
0	758	1697.064821415371	1
0	764	1713.323205912301	1
0	766	1713.507443854502	2
0	769	1714.315219406149	2
0	771	1716.335202817096	3
0	781	1734.695155229784	2
0	783	1735.890649832329	3
0	785	1738.477290119343	4
0	800	1757.670786796485	3
0	803	1759.030456891294	4
0	805	1759.527130891979	5
0	809	1773.983693338513	4
0	815	1780.903749549798	1
0	822	1790.216823658163	2
0	824	1797.21028462533	3
0	826	1799.390672298627	4
0	832	1813.860765463794	5
0	839	1823.203980516358	6
0	842	1827.473098799169	7
0	851	1841.446792750422	4
0	857	1868.244179735752	1
0	867	1887.669891032764	1
0	869	1891.225302871141	2
0	872	1893.784441518926	3
0	874	1901.79464966945	4
0	876	1903.376461398091	5
0	878	1903.969241316446	6
0	881	1905.924883769131	7
0	886	1914.971144170305	5
0	891	1921.532423523295	6
0	895	1931.833855161237	5
0	907	1961.983118157343	4
0	911	1975.499884752887	5
0	913	1976.122818012844	6
0	915	1977.164348844541	7
0	917	1979.50393054575	8
0	919	1983.731705496404	9
0	931	1999.351922660245	10
0	933	2011.039717619805	11
0	935	2026.168821835072	12
0	938	2028.179732084205	13
0	946	2033.048172808381	14
0	948	2033.073617590761	15
0	956	2050.459045601385	16
0	960	2053.572704547533	17
0	962	2053.957049572369	18
0	965	2065.96774147428	19
0	967	2066.468224913352	20
0	969	2071.897140969689	21
0	973	2095.309211991189	22
0	975	2099.152242455596	23
0	980	2111.494773923332	24
0	982	2113.8798162556	25
0	984	2116.269377278582	26
0	988	2120.023954379216	26
0	991	2123.122902361805	26
0	994	2127.750241830486	26
0	996	2130.078567183926	27
0	998	2131.495155404478	28
0	1001	2132.624774988384	28
0	1005	2143.935080643314	27
0	1010	2150.616198935546	25
0	1015	2157.745754046788	23
0	1023	2176.601181932338	21
0	1029	2196.080128418496	20
0	1031	2196.648671677225	21
0	1033	2196.652310126947	22
0	1035	2197.452306147215	23
0	1042	2212.554795247171	20
0	1046	2220.065471877854	19
0	1050	2235.781844994769	18
0	1059	2247.258262670889	19
0	1061	2247.921152751817	20
0	1067	2262.60975715086	19
0	1071	2268.231280023979	18
0	1083	2284.362463945471	13
0	1086	2288.616964143479	14
0	1088	2288.768008539858	15
0	1095	2307.199077728286	16
0	1099	2320.835344432854	17
0	1106	2327.454243526653	18
0	1108	2334.651959635471	19
0	1110	2337.646540715213	20
0	1125	2382.030018921152	20
0	1127	2383.273477274161	21
0	1129	2384.450095936471	22
0	1137	2394.024967628115	18
0	1141	2397.913866535143	17
0	1143	2402.248345995042	18
0	1152	2423.668402161838	12
0	1155	2430.87271779238	12
0	1157	2431.065062749537	13
0	1161	2435.567579352682	12
0	1168	2447.658637715971	11
0	1182	2487.122538059349	4
1	149	350.303694308731	1
1	153	352.709450616181	2
1	155	359.137739579226	3
1	160	369.266637427107	4
1	162	369.375412817191	5
1	164	370.873719345442	6
1	172	387.024720403828	7
1	173	388.741737755407	7
1	174	388.759774410948	6
1	175	389.956949563184	5
1	177	393.162611874545	5
1	178	393.523011697465	5
1	180	394.679426205505	5
1	181	396.017591825301	5
1	182	398.852459860068	4
1	183	399.270019300937	3
1	184	408.224947239515	2
1	185	409.125909358152	1
1	186	409.838633113776	0
1	188	415.383307801732	0
1	189	417.66231988894	0
1	191	418.87213829018	0
1	192	419.091892645781	0
1	196	421.862269267216	0
1	201	433.352536177795	0
1	208	441.130071532625	0
1	210	448.194546411559	0
1	212	452.061875109923	0
1	213	453.78035562792	0
1	224	468.155898046976	0
1	225	468.215745667765	0
1	227	488.009898807156	0
1	231	492.900364237022	1
1	234	494.512010483134	2
1	235	499.154259813312	2
1	239	502.197288167882	1
1	244	512.775260977005	1
1	245	520.042615950235	1
1	247	521.052336852026	1
1	249	525.543254130801	2
1	250	526.197813629943	2
1	252	527.276736677588	2
1	253	535.178442047463	2
1	260	549.741893165008	1
1	262	551.162666912064	1
1	264	553.060902280298	2
1	265	554.348404520247	2
1	266	554.972883288525	1
1	268	555.656423412936	1
1	270	556.754828330883	2
1	271	559.261922796951	2
1	273	563.370178863217	2
1	274	564.692206938824	2
1	275	565.102299719003	1
1	277	565.638401836711	1
1	278	566.90942618525	1
1	279	570.125240842781	0
1	281	576.375778673491	0
1	285	582.448947497491	1
1	288	584.883224644294	2
1	289	598.00308786624	2
1	290	599.830826712737	1
1	292	600.709963063835	1
1	293	600.743623330056	1
1	294	607.088980831324	0
1	302	640.85141684619	0
1	303	643.728662903575	0
1	309	687.76161823421	0
1	313	688.727931328968	1
1	317	705.076370722239	2
1	319	706.440898281149	2
1	321	715.9480092005	2
1	322	717.3800772799	2
1	323	719.522098211844	1
1	324	720.451137464381	0
1	326	720.686766845378	0
1	330	723.799091568504	1
1	332	731.050371694015	2
1	334	738.21519073483	3
1	336	738.822238024502	4
1	341	744.068287236785	5
1	343	751.953312510197	5
1	350	756.484884622359	5
1	352	761.473385222325	6
1	354	762.226094275914	7
1	356	765.258745699213	7
1	357	765.264564140017	6
1	358	771.00821937465	5
1	359	771.834812545982	4
1	360	772.779820191789	3
1	364	781.002718655166	2
1	365	782.301816619706	1
1	366	785.011056938723	0
1	373	799.724576325184	0
1	384	821.147247013063	1
1	386	823.801422505266	2
1	390	836.749804546185	3
1	393	853.078903192315	4
1	398	866.693575294294	4
1	402	870.858961952886	3
1	404	870.998470699558	3
1	405	872.962012759428	3
1	406	873.03326473097	2
1	410	880.50634711924	1
1	412	880.830733923947	1
1	418	893.217435194636	2
1	422	906.668866996905	3
1	423	906.800146744983	3
1	424	909.994419581917	2
1	425	917.632006342098	1
1	427	918.623290573403	1
1	429	919.248349479899	2
1	430	923.757283045762	2
1	431	928.495734082759	1
1	432	933.949582942607	0
1	434	945.855647726051	0
1	435	946.310758138111	0
1	437	946.688111488124	0
1	438	960.164540300361	0
1	440	968.031123308084	0
1	442	970.152406719344	1
1	444	971.150300432477	2
1	445	974.810739444205	2
1	446	975.897136819971	1
1	447	976.139630529589	0
1	451	988.393433997575	0
1	453	994.490623682818	1
1	455	999.119393780281	1
1	456	999.830881081092	0
1	458	1027.125225611619	0
1	459	1030.357585945567	0
1	461	1033.912215976126	0
1	462	1034.573518647789	0
1	464	1043.308456436593	0
1	465	1043.509640503543	0
1	467	1044.462267627308	0
1	469	1045.632848180084	1
1	474	1047.302069123249	2
1	476	1047.837859487353	3
1	477	1051.315629670649	3
1	481	1065.776330620023	2
1	482	1067.450806466142	1
1	483	1073.776943077015	0
1	485	1089.368639708313	0
1	486	1090.399205084116	0
1	490	1100.071111898213	0
1	492	1100.918426789199	0
1	496	1103.239614144073	0
1	504	1121.983322707557	1
1	515	1144.728342827038	2
1	525	1167.137292667847	3
1	528	1168.93136648433	4
1	539	1199.495468407603	4
1	540	1201.687099677902	3
1	542	1208.632144335726	3
1	544	1210.051908615118	4
1	545	1216.168190795339	4
1	546	1216.268866800252	3
1	548	1219.258910902078	3
1	549	1220.2437359294	3
1	551	1223.076690675915	3
1	552	1229.074671109712	3
1	553	1230.876420703235	2
1	554	1233.632329845099	1
1	555	1233.864463469662	0
1	557	1234.450591372613	0
1	559	1238.123943579705	1
1	560	1239.520861499089	1
1	561	1241.574523640006	0
1	563	1242.928870294732	0
1	564	1247.395556555635	0
1	566	1248.411639262905	0
1	567	1249.223805902672	0
1	569	1251.379423845751	0
1	573	1255.399082031035	1
1	575	1263.372586817724	2
1	580	1271.767628511126	3
1	582	1278.5810401213	3
1	583	1279.944214878771	2
1	588	1293.504490813738	2
1	590	1294.505840097558	3
1	594	1308.436104137371	3
1	596	1310.016883361914	3
1	597	1311.83090839754	3
1	598	1316.336805716232	2
1	599	1316.946573924735	1
1	600	1319.116499669707	0
1	602	1326.010644670228	0
1	604	1326.130165290046	1
1	605	1328.221724106883	1
1	607	1329.258883718323	1
1	608	1332.950180893054	1
1	609	1333.677977355786	0
1	613	1339.996337954665	0
1	622	1364.234255218975	1
1	629	1385.251721740677	2
1	631	1385.990895940974	2
1	632	1387.221241866765	1
1	633	1395.143399077752	0
1	637	1408.453509734647	0
1	639	1410.541351761165	1
1	641	1410.701200519422	2
1	643	1427.868538482998	2
1	647	1433.670727358824	1
1	649	1437.916239710075	1
1	650	1443.807739979113	1
1	651	1444.592457953089	0
1	656	1457.135986058949	0
1	657	1459.504813047685	0
1	659	1463.863081362695	0
1	660	1467.546924472713	0
1	662	1475.121051293377	0
1	664	1485.698678768333	1
1	666	1486.082764281978	2
1	668	1488.654620302366	3
1	669	1491.52289106027	3
1	671	1492.350019974408	3
1	672	1493.93587925468	3
1	674	1494.481659191787	3
1	675	1501.35136695496	3
1	677	1502.788513431867	3
1	678	1504.476642484311	3
1	679	1505.092211804996	2
1	680	1512.873795531151	1
1	681	1514.146810932469	0
1	683	1521.305385869116	0
1	688	1530.321319216425	1
1	689	1533.317073497058	1
1	690	1536.566302690756	0
1	692	1541.740056958835	0
1	694	1553.159850998384	1
1	695	1553.949035832999	1
1	696	1563.813788837527	0
1	704	1568.578782640119	0
1	708	1578.587247343035	1
1	710	1581.585458417955	1
1	711	1586.208798387804	0
1	713	1589.573930396353	0
1	714	1594.028996611781	0
1	719	1617.49409152528	0
1	720	1617.63485384884	0
1	722	1622.843226805875	0
1	723	1624.52541019582	0
1	725	1636.203787737193	0
1	727	1636.223604907962	1
1	728	1636.81386807689	1
1	729	1636.993128887401	0
1	737	1649.882857743454	0
1	738	1650.115215331328	0
1	740	1652.748665399068	0
1	741	1653.176938536046	0
1	743	1653.901490038131	0
1	744	1655.959411363523	0
1	746	1656.281657010804	0
1	747	1660.009361637825	0
1	749	1663.086637639268	0
1	750	1669.495699467142	0
1	754	1676.909461828521	0
1	756	1685.602243380723	0
1	758	1697.064821415371	0
1	759	1699.918703063131	0
1	764	1713.323205912301	0
1	766	1713.507443854502	1
1	767	1713.908916914057	1
1	769	1714.315219406149	1
1	771	1716.335202817096	2
1	778	1728.971894466886	2
1	779	1734.013717241175	1
1	781	1734.695155229784	1
1	783	1735.890649832329	2
1	785	1738.477290119343	3
1	786	1740.363768190636	3
1	796	1752.769411870372	2
1	800	1757.670786796485	2
1	803	1759.030456891294	3
1	805	1759.527130891979	4
1	806	1766.365046251537	4
1	807	1772.064491032631	3
1	809	1773.983693338513	3
1	810	1776.605259006496	3
1	811	1779.492835745313	2
1	812	1780.512028444695	1
1	813	1780.636065952171	0
1	815	1780.903749549798	0
1	822	1790.216823658163	1
1	824	1797.21028462533	2
1	826	1799.390672298627	3
1	832	1813.860765463794	4
1	839	1823.203980516358	5
1	842	1827.473098799169	6
1	843	1827.65791058858	6
1	844	1827.737605100742	5
1	848	1838.865758102166	4
1	849	1839.254937356961	3
1	851	1841.446792750422	3
1	852	1841.828701072149	3
1	853	1845.073000755974	2
1	854	1846.576953546943	1
1	855	1851.161276138998	0
1	857	1868.244179735752	0
1	858	1872.922258340971	0
1	867	1887.669891032764	0
1	869	1891.225302871141	1
1	872	1893.784441518926	2
1	874	1901.79464966945	3
1	876	1903.376461398091	4
1	878	1903.969241316446	5
1	881	1905.924883769131	6
1	882	1906.273543642901	6
1	883	1907.221300573062	5
1	884	1908.70340692919	4
1	886	1914.971144170305	4
1	891	1921.532423523295	5
1	892	1924.484700122578	5
1	893	1930.916112097876	4
1	895	1931.833855161237	4
1	896	1934.669355734216	4
1	897	1936.655860463874	3
1	907	1961.983118157343	3
1	911	1975.499884752887	4
1	913	1976.122818012844	5
1	915	1977.164348844541	6
1	917	1979.50393054575	7
1	919	1983.731705496404	8
1	931	1999.351922660245	9
1	933	2011.039717619805	10
1	935	2026.168821835072	11
1	938	2028.179732084205	12
1	946	2033.048172808381	13
1	948	2033.073617590761	14
1	956	2050.459045601385	15
1	960	2053.572704547533	16
1	962	2053.957049572369	17
1	965	2065.96774147428	18
1	967	2066.468224913352	19
1	969	2071.897140969689	20
1	973	2095.309211991189	21
1	975	2099.152242455596	22
1	980	2111.494773923332	23
1	982	2113.8798162556	24
1	984	2116.269377278582	25
1	986	2117.838007394447	25
1	988	2120.023954379216	25
1	989	2122.327997844953	25
1	991	2123.122902361805	25
1	992	2125.976330633571	25
1	994	2127.750241830486	25
1	996	2130.078567183926	26
1	998	2131.495155404478	27
1	999	2131.899810107036	27
1	1001	2132.624774988384	27
1	1002	2135.765692267412	27
1	1003	2141.994540104365	26
1	1005	2143.935080643314	26
1	1006	2144.590879616158	26
1	1007	2146.918267571862	25
1	1008	2148.156068191678	24
1	1010	2150.616198935546	24
1	1011	2152.429018310056	24
1	1012	2155.390945979634	23
1	1013	2156.625652453923	22
1	1015	2157.745754046788	22
1	1016	2159.612158675079	22
1	1017	2164.574923393649	21
1	1018	2164.733957961075	20
1	1023	2176.601181932338	20
1	1024	2177.433663844415	20
1	1025	2178.379095389144	19
1	1029	2196.080128418496	19
1	1031	2196.648671677225	20
1	1033	2196.652310126947	21
1	1035	2197.452306147215	22
1	1037	2198.508784335459	22
1	1038	2199.408665275013	21
1	1039	2205.150205677054	20
1	1040	2207.393790328419	19
1	1042	2212.554795247171	19
1	1043	2218.399737646554	19
1	1044	2218.687216010944	18
1	1046	2220.065471877854	18
1	1047	2220.296382684805	18
1	1048	2232.277238962866	17
1	1050	2235.781844994769	17
1	1059	2247.258262670889	18
1	1061	2247.921152751817	19
1	1064	2262.235346745743	19
1	1065	2262.34366231856	18
1	1067	2262.60975715086	18
1	1068	2266.153585106338	18
1	1069	2266.42552997011	17
1	1071	2268.231280023979	17
1	1072	2268.832285810228	17
1	1073	2269.103082109303	16
1	1074	2271.517371280566	15
1	1075	2273.357668139661	14
1	1076	2280.339419778253	13
1	1077	2281.974929940408	12
1	1083	2284.362463945471	12
1	1086	2288.616964143479	13
1	1088	2288.768008539858	14
1	1095	2307.199077728286	15
1	1099	2320.835344432854	16
1	1106	2327.454243526653	17
1	1108	2334.651959635471	18
1	1110	2337.646540715213	19
1	1121	2378.281569950486	19
1	1125	2382.030018921152	19
1	1127	2383.273477274161	20
1	1129	2384.450095936471	21
1	1131	2387.188446871051	21
1	1132	2390.958857907784	20
1	1133	2391.90243503935	19
1	1134	2392.371795575839	18
1	1135	2393.882934981908	17
1	1137	2394.024967628115	17
1	1138	2395.689972722079	17
1	1139	2397.520203936073	16
1	1141	2397.913866535143	16
1	1143	2402.248345995042	17
1	1144	2403.562328388372	17
1	1145	2403.817717991401	16
1	1146	2412.590365679821	15
1	1147	2419.994786658053	14
1	1148	2421.478561833694	13
1	1149	2422.796729610511	12
1	1150	2423.355894491882	11
1	1152	2423.668402161838	11
1	1153	2429.645481146379	11
1	1155	2430.87271779238	11
1	1157	2431.065062749537	12
1	1158	2431.322616226299	12
1	1159	2433.933660967605	11
1	1161	2435.567579352682	11
1	1165	2442.189749487678	11
1	1166	2442.492288054691	10
1	1168	2447.658637715971	10
1	1169	2449.75012808867	10
1	1170	2455.326671338395	9
1	1171	2464.605393896393	8
1	1172	2466.13901116775	7
1	1173	2466.560719498458	6
1	1174	2470.052378568438	5
1	1175	2472.729474588436	4
1	1176	2473.78291844266	3
1	1182	2487.122538059349	3
2	151	350.810908640399	3
2	157	362.43827406384	4
2	166	372.457831806101	4
2	194	421.231036863725	1
2	198	422.258155636236	2
2	203	434.397689262197	1
2	206	439.610663971992	1
2	215	453.793526523054	1
2	218	457.822166656212	1
2	220	459.596779139852	2
2	229	490.031856445978	1
2	237	501.146565597212	1
2	241	507.998940490456	1
2	255	535.385086866618	1
2	257	536.647697750317	2
2	283	577.008063714078	1
2	296	625.155745667831	1
2	299	632.977105340681	1
2	305	682.961103942653	1
2	307	685.159062044213	2
2	311	688.41788609212	3
2	328	720.818567622802	1
2	339	742.34700746987	1
2	345	752.391989375619	1
2	348	755.897324484502	1
2	362	775.662088383508	1
2	368	790.080534832881	1
2	370	790.813576755962	2
2	375	807.051325263327	2
2	377	814.182191414584	3
2	380	819.651339178744	3
2	382	820.627860029246	4
2	395	860.996806993361	2
2	400	870.307832749627	1
2	408	874.759940419569	1
2	414	880.847424649465	1
2	416	893.070156380368	2
2	449	986.254666555407	1
2	471	1045.839946687533	1
2	479	1055.895288500736	1
2	488	1094.128034977528	1
2	494	1101.478109745127	1
2	498	1103.51526631821	2
2	500	1108.512747814944	3
2	502	1112.452693155669	4
2	507	1126.078054653729	4
2	509	1137.278937592869	5
2	512	1138.471287941422	5
2	519	1150.749150558914	3
2	521	1157.590509079489	4
2	523	1163.830009180747	5
2	530	1169.18630106408	5
2	533	1188.666672010308	5
2	571	1254.837442024195	1
2	577	1264.436041734011	2
2	585	1283.561317743566	1
2	592	1294.924141858317	1
2	611	1334.618986807489	1
2	615	1351.449230121806	2
2	617	1353.337317539997	3
2	620	1364.007868382867	3
2	624	1367.234470496	4
2	635	1407.623308105574	1
2	645	1429.953231197204	1
2	653	1445.290017857441	1
2	685	1522.546985036706	1
2	698	1564.732089783015	1
2	700	1565.20203831387	2
2	702	1567.158129871605	3
2	716	1614.815752662296	1
2	731	1641.723510214391	1
2	733	1642.919599835408	2
2	752	1672.309207478826	1
2	761	1700.493543879694	1
2	773	1725.771804747797	1
2	775	1727.107486985558	2
2	788	1741.765106934903	1
2	791	1747.672227176383	1
2	793	1750.165771003638	2
2	798	1753.882913231852	1
2	817	1785.856777205899	1
2	820	1790.198200156219	1
2	828	1801.790227424367	2
2	830	1804.043678835036	3
2	835	1816.226235181707	3
2	846	1830.93854574318	1
2	860	1884.186922687865	1
2	862	1884.312240102275	2
2	864	1884.679389480801	3
2	888	1915.950055390832	1
2	899	1947.126132806161	1
2	901	1950.112634598494	2
2	903	1951.560215154763	3
2	905	1953.826841268356	4
2	909	1975.34125048369	5
2	921	1986.569639472766	6
2	923	1989.237686142385	7
2	927	1994.180594181578	6
2	929	1996.175709749868	7
2	940	2032.315413499591	7
2	942	2032.713617515447	8
2	944	2032.831458324909	9
2	954	2050.075995185237	6
2	958	2053.286951205201	7
2	1020	2166.547424019246	1
2	1027	2190.516773128762	1
2	1052	2238.342644924639	1
2	1055	2241.536865042855	1
2	1057	2242.466596596854	2
2	1079	2283.392076793466	1
2	1081	2283.943439539722	2
2	1090	2298.37380560479	2
2	1093	2304.187980098955	2
2	1097	2315.248738444814	3
2	1101	2320.865879407701	4
2	1103	2321.248891173496	5
2	1112	2341.447019352221	5
2	1117	2355.084277993321	3
2	1123	2379.095213703034	1
2	1163	2437.703142205419	1
2	1178	2475.022752058164	1
2	1180	2483.50970015636	2
2	1184	2493.644976029564	3
3	151	350.810908640399	2
3	157	362.43827406384	3
3	158	368.393030503189	3
3	166	372.457831806101	3
3	167	376.172191245153	3
3	168	379.948206751657	2
3	169	383.964151043836	1
3	170	386.709053379076	0
3	194	421.231036863725	0
3	198	422.258155636236	1
3	199	430.41314445729	1
3	200	432.37928207229	0
3	203	434.397689262197	0
3	204	436.52187322389	0
3	206	439.610663971992	0
3	209	447.157219148443	0
3	215	453.793526523054	0
3	216	456.011307072538	0
3	218	457.822166656212	0
3	220	459.596779139852	1
3	221	463.233899445139	1
3	222	463.416181902912	0
3	229	490.031856445978	0
3	232	493.857971938583	0
3	237	501.146565597212	0
3	238	501.92615992487	0
3	241	507.998940490456	0
3	242	511.281195018023	0
3	255	535.385086866618	0
3	257	536.647697750317	1
3	258	538.064826459195	1
3	259	548.850239549268	0
3	283	577.008063714078	0
3	286	584.688296005219	0
3	296	625.155745667831	0
3	297	625.553209140293	0
3	299	632.977105340681	0
3	300	635.893965899552	0
3	305	682.961103942653	0
3	307	685.159062044213	1
3	311	688.41788609212	2
3	314	692.876920426129	2
3	315	694.415722782643	1
3	318	705.43386905372	0
3	328	720.818567622802	0
3	337	739.502937298963	0
3	339	742.34700746987	0
3	342	744.895344158838	0
3	345	752.391989375619	0
3	346	754.761786262916	0
3	348	755.897324484502	0
3	355	764.849928208871	0
3	362	775.662088383508	0
3	363	778.058958747431	0
3	368	790.080534832881	0
3	370	790.813576755962	1
3	371	795.421519941793	1
3	375	807.051325263327	1
3	377	814.182191414584	2
3	378	818.582462649431	2
3	380	819.651339178744	2
3	382	820.627860029246	3
3	387	830.878521685171	3
3	388	831.898153919684	2
3	391	851.151393782339	1
3	395	860.996806993361	1
3	396	861.466992563375	1
3	397	864.873799713528	0
3	400	870.307832749627	0
3	401	870.347220661234	0
3	408	874.759940419569	0
3	409	880.160304451875	0
3	414	880.847424649465	0
3	416	893.070156380368	1
3	419	895.423280475422	1
3	420	906.104624211632	0
3	449	986.254666555407	0
3	454	995.184042990994	0
3	471	1045.839946687533	0
3	472	1046.875012066064	0
3	479	1055.895288500736	0
3	480	1061.934694899474	0
3	488	1094.128034977528	0
3	491	1100.082937838483	0
3	494	1101.478109745127	0
3	498	1103.51526631821	1
3	500	1108.512747814944	2
3	502	1112.452693155669	3
3	505	1122.005626597044	3
3	507	1126.078054653729	3
3	509	1137.278937592869	4
3	510	1137.781731923654	4
3	512	1138.471287941422	4
3	513	1143.172120066934	4
3	516	1148.098514156792	3
3	517	1149.565087031018	2
3	519	1150.749150558914	2
3	521	1157.590509079489	3
3	523	1163.830009180747	4
3	526	1167.595896876376	4
3	530	1169.18630106408	4
3	531	1173.368934795788	4
3	533	1188.666672010308	4
3	534	1191.062466632355	4
3	535	1193.667780709837	3
3	536	1193.885062669294	2
3	537	1193.965002563939	1
3	538	1198.482433238837	0
3	571	1254.837442024195	0
3	577	1264.436041734011	1
3	578	1270.980806911744	1
3	581	1274.175356750639	0
3	585	1283.561317743566	0
3	586	1291.573628300029	0
3	592	1294.924141858317	0
3	593	1308.045273452758	0
3	611	1334.618986807489	0
3	615	1351.449230121806	1
3	617	1353.337317539997	2
3	618	1356.007001958274	2
3	620	1364.007868382867	2
3	624	1367.234470496	3
3	625	1369.900496765513	3
3	626	1380.147576112653	2
3	627	1383.389620486534	1
3	630	1385.721345844316	0
3	635	1407.623308105574	0
3	642	1427.339877659879	0
3	645	1429.953231197204	0
3	646	1433.322246878285	0
3	653	1445.290017857441	0
3	654	1448.070104942151	0
3	685	1522.546985036706	0
3	686	1528.152488071848	0
3	698	1564.732089783015	0
3	700	1565.20203831387	1
3	702	1567.158129871605	2
3	705	1570.426028838351	2
3	706	1576.363098277249	1
3	709	1578.965658699617	0
3	716	1614.815752662296	0
3	717	1617.060576552435	0
3	731	1641.723510214391	0
3	733	1642.919599835408	1
3	734	1643.267952080219	1
3	735	1644.707436020443	0
3	752	1672.309207478826	0
3	755	1682.843739866573	0
3	761	1700.493543879694	0
3	762	1703.849025092428	0
3	773	1725.771804747797	0
3	775	1727.107486985558	1
3	776	1727.713869897604	1
3	777	1728.846631284498	0
3	788	1741.765106934903	0
3	789	1743.000647281146	0
3	791	1747.672227176383	0
3	793	1750.165771003638	1
3	794	1751.368130184625	1
3	795	1752.223211750958	0
3	798	1753.882913231852	0
3	801	1758.671269779061	0
3	817	1785.856777205899	0
3	818	1786.471983982686	0
3	820	1790.198200156219	0
3	828	1801.790227424367	1
3	830	1804.043678835036	2
3	833	1816.209704671637	2
3	835	1816.226235181707	2
3	836	1820.473339084582	2
3	837	1821.653221929485	1
3	840	1824.851084081561	0
3	846	1830.93854574318	0
3	847	1836.354077625689	0
3	860	1884.186922687865	0
3	862	1884.312240102275	1
3	864	1884.679389480801	2
3	865	1887.636002634518	2
3	870	1893.261294484353	1
3	879	1905.192464036658	0
3	888	1915.950055390832	0
3	889	1918.681498660802	0
3	899	1947.126132806161	0
3	901	1950.112634598494	1
3	903	1951.560215154763	2
3	905	1953.826841268356	3
3	909	1975.34125048369	4
3	921	1986.569639472766	5
3	923	1989.237686142385	6
3	924	1990.884558549833	6
3	925	1992.189305503359	5
3	927	1994.180594181578	5
3	929	1996.175709749868	6
3	936	2026.303446077013	6
3	940	2032.315413499591	6
3	942	2032.713617515447	7
3	944	2032.831458324909	8
3	949	2033.117940033021	8
3	950	2046.296235881305	7
3	951	2047.117577742288	6
3	952	2049.823111130947	5
3	954	2050.075995185237	5
3	958	2053.286951205201	6
3	963	2056.117494966578	6
3	970	2086.27018870173	5
3	971	2089.932134718383	4
3	976	2100.067486483958	3
3	977	2100.731442642589	2
3	978	2111.10983115589	1
3	985	2117.301339793718	0
3	1020	2166.547424019246	0
3	1021	2175.320393570881	0
3	1027	2190.516773128762	0
3	1036	2198.349231371773	0
3	1052	2238.342644924639	0
3	1053	2240.769650340048	0
3	1055	2241.536865042855	0
3	1057	2242.466596596854	1
3	1062	2249.670719917743	1
3	1063	2251.338333394137	0
3	1079	2283.392076793466	0
3	1081	2283.943439539722	1
3	1084	2284.965476743911	1
3	1090	2298.37380560479	1
3	1091	2302.545062690931	1
3	1093	2304.187980098955	1
3	1097	2315.248738444814	2
3	1101	2320.865879407701	3
3	1103	2321.248891173496	4
3	1104	2325.656200474155	4
3	1112	2341.447019352221	4
3	1113	2344.318516923168	4
3	1114	2344.774802918969	3
3	1115	2348.820923935502	2
3	1117	2355.084277993321	2
3	1118	2364.735801349216	2
3	1119	2366.082455522881	1
3	1120	2377.567639595982	0
3	1123	2379.095213703034	0
3	1130	2386.705511204695	0
3	1163	2437.703142205419	0
3	1164	2439.885572900756	0
3	1178	2475.022752058164	0
3	1180	2483.50970015636	1
3	1184	2493.644976029564	2
4	158	368.393030503189	12
4	167	376.172191245153	13
4	168	379.948206751657	14
4	169	383.964151043836	15
4	170	386.709053379076	16
4	199	430.41314445729	17
4	200	432.37928207229	18
4	204	436.52187322389	19
4	209	447.157219148443	20
4	216	456.011307072538	21
4	221	463.233899445139	22
4	222	463.416181902912	23
4	232	493.857971938583	24
4	238	501.92615992487	25
4	242	511.281195018023	26
4	258	538.064826459195	27
4	259	548.850239549268	28
4	286	584.688296005219	29
4	297	625.553209140293	30
4	300	635.893965899552	31
4	314	692.876920426129	32
4	315	694.415722782643	33
4	318	705.43386905372	34
4	337	739.502937298963	35
4	342	744.895344158838	36
4	346	754.761786262916	37
4	355	764.849928208871	38
4	363	778.058958747431	39
4	371	795.421519941793	40
4	378	818.582462649431	41
4	387	830.878521685171	42
4	388	831.898153919684	43
4	391	851.151393782339	44
4	396	861.466992563375	45
4	397	864.873799713528	46
4	401	870.347220661234	47
4	409	880.160304451875	48
4	419	895.423280475422	49
4	420	906.104624211632	50
4	454	995.184042990994	51
4	472	1046.875012066064	52
4	480	1061.934694899474	53
4	491	1100.082937838483	54
4	505	1122.005626597044	55
4	510	1137.781731923654	56
4	513	1143.172120066934	57
4	516	1148.098514156792	58
4	517	1149.565087031018	59
4	526	1167.595896876376	60
4	531	1173.368934795788	61
4	534	1191.062466632355	62
4	535	1193.667780709837	63
4	536	1193.885062669294	64
4	537	1193.965002563939	65
4	538	1198.482433238837	66
4	578	1270.980806911744	67
4	581	1274.175356750639	68
4	586	1291.573628300029	69
4	593	1308.045273452758	70
4	618	1356.007001958274	71
4	625	1369.900496765513	72
4	626	1380.147576112653	73
4	627	1383.389620486534	74
4	630	1385.721345844316	75
4	642	1427.339877659879	76
4	646	1433.322246878285	77
4	654	1448.070104942151	78
4	686	1528.152488071848	79
4	705	1570.426028838351	80
4	706	1576.363098277249	81
4	709	1578.965658699617	82
4	717	1617.060576552435	83
4	734	1643.267952080219	84
4	735	1644.707436020443	85
4	755	1682.843739866573	86
4	762	1703.849025092428	87
4	776	1727.713869897604	88
4	777	1728.846631284498	89
4	789	1743.000647281146	90
4	794	1751.368130184625	91
4	795	1752.223211750958	92
4	801	1758.671269779061	93
4	818	1786.471983982686	94
4	833	1816.209704671637	95
4	836	1820.473339084582	96
4	837	1821.653221929485	97
4	840	1824.851084081561	98
4	847	1836.354077625689	99
4	865	1887.636002634518	100
4	870	1893.261294484353	101
4	879	1905.192464036658	102
4	889	1918.681498660802	103
4	924	1990.884558549833	104
4	925	1992.189305503359	105
4	936	2026.303446077013	106
4	949	2033.117940033021	107
4	950	2046.296235881305	108
4	951	2047.117577742288	109
4	952	2049.823111130947	110
4	963	2056.117494966578	111
4	970	2086.27018870173	112
4	971	2089.932134718383	113
4	976	2100.067486483958	114
4	977	2100.731442642589	115
4	978	2111.10983115589	116
4	985	2117.301339793718	117
4	1021	2175.320393570881	118
4	1036	2198.349231371773	119
4	1053	2240.769650340048	120
4	1062	2249.670719917743	121
4	1063	2251.338333394137	122
4	1084	2284.965476743911	123
4	1091	2302.545062690931	124
4	1104	2325.656200474155	125
4	1113	2344.318516923168	126
4	1114	2344.774802918969	127
4	1115	2348.820923935502	128
4	1118	2364.735801349216	129
4	1119	2366.082455522881	130
4	1120	2377.567639595982	131
4	1130	2386.705511204695	132
4	1164	2439.885572900756	133
5	158	368.393030503189	20.290616870456
5	167	376.172191245153	27.193551570952
5	168	379.948206751657	29.137298111258
5	169	383.964151043836	21.525876979996
5	170	386.709053379076	14.251221572975
5	199	430.41314445729	9.182107593565
5	200	432.37928207229	10.121126436054
5	204	436.52187322389	2.124183961693
5	209	447.157219148443	7.546555176451
5	216	456.011307072538	2.217780549484
5	221	463.233899445139	5.411732788927
5	222	463.416181902912	3.81940276306
5	232	493.857971938583	3.826115492605
5	238	501.92615992487	0.779594327658
5	242	511.281195018023	3.282254527567
5	258	538.064826459195	2.679739592577
5	259	548.850239549268	12.202541798951
5	286	584.688296005219	7.680232291141
5	297	625.553209140293	0.397463472462
5	300	635.893965899552	2.916860558871
5	314	692.876920426129	9.915816483476
5	315	694.415722782643	9.25666073843
5	318	705.43386905372	17.0159829616
5	337	739.502937298963	18.684369676161
5	342	744.895344158838	2.548336688968
5	346	754.761786262916	2.369796887297
5	355	764.849928208871	8.952603724369
5	363	778.058958747431	2.396870363923
5	371	795.421519941793	5.340985108912
5	378	818.582462649431	27.768885893469
5	387	830.878521685171	23.827196421844
5	388	831.898153919684	17.7159625051
5	391	851.151393782339	31.500054603595
5	396	861.466992563375	40.839132534129
5	397	864.873799713528	3.876992720167
5	401	870.347220661234	0.039387911607
5	409	880.160304451875	5.400364032306
5	419	895.423280475422	14.575855825957
5	420	906.104624211632	13.034467831264
5	454	995.184042990994	8.929376435587
5	472	1046.875012066064	1.035065378531
5	480	1061.934694899474	6.039406398738
5	491	1100.082937838483	5.954902860955
5	505	1122.005626597044	20.527516851917
5	510	1137.781731923654	34.266465605444
5	513	1143.172120066934	34.65937225199
5	516	1148.098514156792	35.645821001123
5	517	1149.565087031018	23.487032377289
5	526	1167.595896876376	30.316959283507
5	531	1173.368934795788	34.897646854366
5	534	1191.062466632355	40.313316073441
5	535	1193.667780709837	36.077271630348
5	536	1193.885062669294	30.055053488547
5	537	1193.965002563939	24.778701499859
5	538	1198.482433238837	9.815761228529
5	578	1270.980806911744	16.143364887549
5	581	1274.175356750639	9.739315016628
5	586	1291.573628300029	8.012310556463
5	593	1308.045273452758	13.121131594441
5	618	1356.007001958274	21.388015150785
5	625	1369.900496765513	18.451266643707
5	626	1380.147576112653	26.810258572656
5	627	1383.389620486534	19.381752103667
5	630	1385.721345844316	18.486875348316
5	642	1427.339877659879	19.716569554305
5	646	1433.322246878285	3.369015681081
5	654	1448.070104942151	2.78008708471
5	686	1528.152488071848	5.605503035142
5	705	1570.426028838351	5.693939055336
5	706	1576.363098277249	11.161059963379
5	709	1578.965658699617	11.807528828012
5	717	1617.060576552435	2.244823890139
5	734	1643.267952080219	1.544441865828
5	735	1644.707436020443	1.787836185035
5	755	1682.843739866573	10.534532387747
5	762	1703.849025092428	3.355481212734
5	776	1727.713869897604	1.942065149807
5	777	1728.846631284498	1.73914429894
5	789	1743.000647281146	1.235540346243
5	794	1751.368130184625	3.695903008242
5	795	1752.223211750958	2.05744074732
5	801	1758.671269779061	4.788356547209
5	818	1786.471983982686	0.615206776787
5	833	1816.209704671637	26.011504515418
5	836	1820.473339084582	18.683111660215
5	837	1821.653221929485	17.609543094449
5	840	1824.851084081561	8.624848899854
5	847	1836.354077625689	5.415531882509
5	865	1887.636002634518	3.449079946653
5	870	1893.261294484353	8.949054382078
5	879	1905.192464036658	20.513074555857
5	889	1918.681498660802	2.73144326997
5	924	1990.884558549833	43.758425743672
5	925	1992.189305503359	42.076670904865
5	936	2026.303446077013	74.74323092225
5	949	2033.117940033021	79.291098764665
5	950	2046.296235881305	70.954985397615
5	951	2047.117577742288	60.547938269522
5	952	2049.823111130947	60.585424988562
5	963	2056.117494966578	61.936900785
5	970	2086.27018870173	90.094478951862
5	971	2089.932134718383	57.616721218792
5	976	2100.067486483958	67.353868968511
5	977	2100.731442642589	67.89998431768
5	978	2111.10983115589	61.033835970653
5	985	2117.301339793718	64.014388588517
5	1021	2175.320393570881	8.772969551635
5	1036	2198.349231371773	7.832458243011
5	1053	2240.769650340048	2.427005415409
5	1062	2249.670719917743	8.133854874888
5	1063	2251.338333394137	8.871736797283
5	1084	2284.965476743911	1.573399950445
5	1091	2302.545062690931	18.601623151209
5	1104	2325.656200474155	27.282394869365
5	1113	2344.318516923168	40.130536824213
5	1114	2344.774802918969	29.526064474155
5	1115	2348.820923935502	27.955044527801
5	1118	2364.735801349216	43.48691017572
5	1119	2366.082455522881	24.63543617066
5	1120	2377.567639595982	22.483361602661
5	1130	2386.705511204695	7.610297501661
5	1164	2439.885572900756	2.182430695337
6	158	368.393030503189	19.414390828988
6	167	376.172191245153	25.361282604754
6	168	379.948206751657	17.509932687817
6	169	383.964151043836	11.506319237735
6	194	421.231036863725	0
6	199	430.41314445729	8.154988821054
6	203	434.397689262197	0
6	206	439.610663971992	0
6	215	453.793526523054	0
6	218	457.822166656212	0
6	221	463.233899445139	3.637120305287
6	229	490.031856445978	0
6	237	501.146565597212	0
6	241	507.998940490456	0
6	255	535.385086866618	0
6	258	538.064826459195	1.417128708878
6	283	577.008063714078	0
6	296	625.155745667831	0
6	299	632.977105340681	0
6	305	682.961103942653	0
6	314	692.876920426129	7.717858381916
6	315	694.415722782643	5.997836690523
6	328	720.818567622802	0
6	339	742.34700746987	0
6	345	752.391989375619	0
6	348	755.897324484502	0
6	362	775.662088383508	0
6	368	790.080534832881	0
6	371	795.421519941793	4.607943185831
6	378	818.582462649431	11.531137386104
6	387	830.878521685171	16.696330270587
6	388	831.898153919684	12.24681474094
6	391	851.151393782339	30.523533753093
6	396	861.466992563375	0.470185570014
6	400	870.307832749627	0
6	408	874.759940419569	0
6	414	880.847424649465	0
6	419	895.423280475422	2.353124095054
6	449	986.254666555407	0
6	471	1045.839946687533	0
6	479	1055.895288500736	0
6	488	1094.128034977528	0
6	494	1101.478109745127	0
6	505	1122.005626597044	18.490360278834
6	510	1137.781731923654	29.26898410871
6	513	1143.172120066934	30.719426911265
6	516	1148.098514156792	22.020459503063
6	517	1149.565087031018	12.286149438149
6	526	1167.595896876376	29.124608934954
6	531	1173.368934795788	22.619784236874
6	534	1191.062466632355	33.471957552866
6	535	1193.667780709837	29.83777152909
6	536	1193.885062669294	24.698761605214
6	537	1193.965002563939	5.298330553631
6	571	1254.837442024195	0
6	578	1270.980806911744	6.544765177733
6	585	1283.561317743566	0
6	592	1294.924141858317	0
6	611	1334.618986807489	0
6	618	1356.007001958274	4.557771836468
6	625	1369.900496765513	16.563179225516
6	626	1380.147576112653	16.139707729786
6	627	1383.389620486534	16.155149990534
6	635	1407.623308105574	0
6	645	1429.953231197204	0
6	653	1445.290017857441	0
6	685	1522.546985036706	0
6	698	1564.732089783015	0
6	705	1570.426028838351	5.223990524481
6	706	1576.363098277249	9.204968405644
6	716	1614.815752662296	0
6	731	1641.723510214391	0
6	734	1643.267952080219	0.348352244811
6	752	1672.309207478826	0
6	761	1700.493543879694	0
6	773	1725.771804747797	0
6	776	1727.713869897604	0.606382912046
6	788	1741.765106934903	0
6	791	1747.672227176383	0
6	794	1751.368130184625	1.202359180987
6	798	1753.882913231852	0
6	817	1785.856777205899	0
6	820	1790.198200156219	0
6	833	1816.209704671637	14.41947724727
6	836	1820.473339084582	16.429660249546
6	837	1821.653221929485	5.426986747778
6	846	1830.93854574318	0
6	860	1884.186922687865	0
6	865	1887.636002634518	3.323762532243
6	870	1893.261294484353	8.581905003552
6	888	1915.950055390832	0
6	899	1947.126132806161	0
6	924	1990.884558549833	40.771923951339
6	925	1992.189305503359	40.629090348596
6	936	2026.303446077013	72.476604808657
6	949	2033.117940033021	57.776689549331
6	950	2046.296235881305	59.726596408539
6	951	2047.117577742288	57.879891599903
6	952	2049.823111130947	55.642516949369
6	963	2056.117494966578	59.94178521671
6	970	2086.27018870173	53.954775202139
6	971	2089.932134718383	57.218517202936
6	976	2100.067486483958	67.236028159049
6	977	2100.731442642589	50.655447457352
6	978	2111.10983115589	57.822879950689
6	1020	2166.547424019246	0
6	1027	2190.516773128762	0
6	1052	2238.342644924639	0
6	1055	2241.536865042855	0
6	1062	2249.670719917743	7.204123320889
6	1079	2283.392076793466	0
6	1084	2284.965476743911	1.022037204189
6	1091	2302.545062690931	4.171257086141
6	1104	2325.656200474155	21.4682203752
6	1113	2344.318516923168	29.069778478354
6	1114	2344.774802918969	23.908923511268
6	1115	2348.820923935502	27.572032762006
6	1118	2364.735801349216	23.288781996995
6	1119	2366.082455522881	10.99817752956
6	1123	2379.095213703034	0
6	1163	2437.703142205419	0
6	1178	2475.022752058164	0
7	170	386.709053379076	36.823851979109
7	173	388.741737755407	38.438043446676
7	174	388.759774410948	36.050323794767
7	175	389.956949563184	30.819209983958
7	178	393.523011697465	24.256374270358
7	181	396.017591825301	26.64217900811
7	182	398.852459860068	27.978740514626
7	183	399.270019300937	12.245298897109
7	184	408.224947239515	15.06233536497
7	185	409.125909358152	14.446483152647
7	188	415.383307801732	0
7	191	418.87213829018	0
7	200	432.37928207229	10.517012805074
7	209	447.157219148443	6.027147615818
7	212	452.061875109923	0
7	224	468.155898046976	0
7	227	488.009898807156	0
7	232	493.857971938583	3.826115492605
7	235	499.154259813312	6.25389557629
7	238	501.92615992487	7.414149441736
7	239	502.197288167882	1.05072257067
7	242	511.281195018023	3.282254527567
7	245	520.042615950235	7.26735497323
7	250	526.197813629943	5.145476777917
7	253	535.178442047463	9.635187916662
7	259	548.850239549268	21.57350287168
7	260	549.741893165008	14.35680629839
7	265	554.348404520247	3.185737608183
7	266	554.972883288525	1.911981008227
7	271	559.261922796951	3.605499384015
7	274	564.692206938824	7.937378607941
7	275	565.102299719003	1.732120855786
7	278	566.90942618525	1.271024348539
7	281	576.375778673491	0
7	286	584.688296005219	7.680232291141
7	289	598.00308786624	15.554140368749
7	290	599.830826712737	14.947602068443
7	293	600.743623330056	0.033660266221
7	302	640.85141684619	0
7	318	705.43386905372	17.67225081951
7	319	706.440898281149	17.712966952181
7	322	717.3800772799	12.303706557661
7	323	719.522098211844	3.574089011344
7	326	720.686766845378	0
7	337	739.502937298963	18.684369676161
7	342	744.895344158838	21.096252590334
7	343	751.953312510197	20.902940816182
7	346	754.761786262916	16.546595528086
7	355	764.849928208871	26.027690184369
7	356	765.258745699213	22.911738229343
7	357	765.264564140017	21.196276903232
7	358	771.00821937465	18.616229999031
7	359	771.834812545982	15.93748806148
7	360	772.779820191789	16.29493556943
7	363	778.058958747431	16.585573525106
7	364	781.002718655166	18.776624379252
7	365	782.301816619706	6.639728236198
7	397	864.873799713528	65.149223388344
7	398	866.693575294294	45.546328281231
7	401	870.347220661234	46.545798155968
7	402	870.858961952886	34.109157406701
7	405	872.962012759428	19.883109567113
7	406	873.03326473097	2.725431981343
7	409	880.160304451875	9.161833752317
7	410	880.50634711924	5.746406699671
7	420	906.104624211632	25.273890287685
7	423	906.800146744983	25.952722095518
7	424	909.994419581917	16.776984387281
7	425	917.632006342098	10.963139345193
7	430	923.757283045762	5.133992472359
7	431	928.495734082759	9.24738460286
7	434	945.855647726051	0
7	437	946.688111488124	0
7	440	968.031123308084	0
7	445	974.810739444205	4.658332724861
7	446	975.897136819971	4.746836387494
7	454	995.184042990994	6.790608993419
7	455	999.119393780281	4.628770097463
7	458	1027.125225611619	0
7	461	1033.912215976126	0
7	464	1043.308456436593	0
7	467	1044.462267627308	0
7	472	1046.875012066064	1.24216388598
7	477	1051.315629670649	5.475682983116
7	480	1061.934694899474	14.632625776225
7	481	1065.776330620023	17.93847113267
7	482	1067.450806466142	11.555517965406
7	485	1089.368639708313	0
7	491	1100.082937838483	0.01182594027
7	538	1198.482433238837	95.242819094764
7	539	1199.495468407603	77.512145700046
7	540	1201.687099677902	56.958756850864
7	545	1216.168190795339	49.030898127492
7	546	1216.268866800252	47.337500315922
7	549	1220.2437359294	11.611591593674
7	552	1229.074671109712	19.022762494594
7	553	1230.876420703235	11.617509801157
7	554	1233.632329845099	10.555639169184
7	557	1234.450591372613	0
7	560	1239.520861499089	1.396917919384
7	563	1242.928870294732	0
7	566	1248.411639262905	0
7	569	1251.379423845751	0
7	581	1274.175356750639	19.337914726444
7	582	1278.5810401213	23.181958090265
7	583	1279.944214878771	16.571628061047
7	586	1291.573628300029	19.805999788903
7	593	1308.045273452758	24.483955709192
7	594	1308.436104137371	14.931613323633
7	597	1311.83090839754	17.325068299982
7	598	1316.336805716232	21.412663857915
7	599	1316.946573924735	6.929690562821
7	602	1326.010644670228	0
7	605	1328.221724106883	2.091558816837
7	608	1332.950180893054	3.691297174731
7	630	1385.721345844316	45.725007889651
7	631	1385.990895940974	21.756640721999
7	632	1387.221241866765	1.969520126088
7	642	1427.339877659879	18.886367925232
7	643	1427.868538482998	17.327186721833
7	646	1433.322246878285	22.621046358863
7	647	1433.670727358824	3.71749616162
7	650	1443.807739979113	5.891500269038
7	656	1457.135986058949	0
7	659	1463.863081362695	0
7	662	1475.121051293377	0
7	669	1491.52289106027	5.824212291937
7	672	1493.93587925468	7.853114972702
7	675	1501.35136695496	12.696746652594
7	678	1504.476642484311	12.126622509903
7	679	1505.092211804996	10.610552613209
7	680	1512.873795531151	10.085282099284
7	683	1521.305385869116	0
7	686	1528.152488071848	5.605503035142
7	689	1533.317073497058	2.995754280633
7	692	1541.740056958835	0
7	695	1553.949035832999	0.789184834615
7	709	1578.965658699617	10.386876059498
7	710	1581.585458417955	2.99821107492
7	713	1589.573930396353	0
7	719	1617.49409152528	0
7	722	1622.843226805875	0
7	725	1636.203787737193	0
7	728	1636.81386807689	0.590263168928
7	737	1649.882857743454	0
7	740	1652.748665399068	0
7	743	1653.901490038131	0
7	746	1656.281657010804	0
7	749	1663.086637639268	0
7	755	1682.843739866573	5.934278038052
7	758	1697.064821415371	0
7	764	1713.323205912301	0
7	767	1713.908916914057	0.401473059555
7	777	1728.846631284498	14.531411878349
7	778	1728.971894466886	12.63669164979
7	779	1734.013717241175	8.241912493378
7	786	1740.363768190636	5.668612960852
7	789	1743.000647281146	7.109997448817
7	795	1752.223211750958	13.745921631615
7	796	1752.769411870372	11.004304935469
7	801	1758.671269779061	10.999042602678
7	806	1766.365046251537	12.482133019685
7	807	1772.064491032631	14.393704236146
7	810	1776.605259006496	17.574802115202
7	811	1779.492835745313	19.965704853334
7	812	1780.512028444695	6.528335106182
7	815	1780.903749549798	0
7	818	1786.471983982686	0.615206776787
7	840	1824.851084081561	34.652883925342
7	843	1827.65791058858	37.441086930417
7	844	1827.737605100742	30.527320475412
7	847	1836.354077625689	36.963405327062
7	848	1838.865758102166	25.004992638372
7	849	1839.254937356961	16.050956840603
7	852	1841.828701072149	14.35560227298
7	853	1845.073000755974	14.134455012794
7	854	1846.576953546943	5.130160796521
7	857	1868.244179735752	0
7	879	1905.192464036658	17.522573003894
7	882	1906.273543642901	15.04824077176
7	883	1907.221300573062	13.436859054136
7	884	1908.70340692919	6.90875725974
7	889	1918.681498660802	15.305037262711
7	892	1924.484700122578	20.515458806132
7	893	1930.916112097876	24.991228328745
7	896	1934.669355734216	19.698211563911
7	897	1936.655860463874	20.705805073042
7	985	2117.301339793718	195.76891627042
7	986	2117.838007394447	186.00415223321
7	989	2122.327997844953	175.20186503879
7	992	2125.976330633571	163.99321247623
7	999	2131.899810107036	156.39992535415
7	1002	2135.765692267412	159.64287425457
7	1003	2141.994540104365	164.83019125982
7	1006	2144.590879616158	165.08694907041
7	1007	2146.918267571862	163.18656207546
7	1008	2148.156068191678	148.80414553143
7	1011	2152.429018310056	141.38930069025
7	1012	2155.390945979634	129.22212414456
7	1013	2156.625652453923	128.44592036972
7	1016	2159.612158675079	126.5639858667
7	1017	2164.574923393649	131.50130580289
7	1018	2164.733957961075	114.27491235969
7	1021	2175.320393570881	121.74768902335
7	1024	2177.433663844415	123.47661427205
7	1025	2178.379095389144	112.41135391486
7	1036	2198.349231371773	131.88100645842
7	1037	2198.508784335459	126.61164336577
7	1038	2199.408665275013	104.09945328382
7	1039	2205.150205677054	105.99796322146
7	1040	2207.393790328419	95.899016405087
7	1043	2218.399737646554	104.51992139095
7	1044	2218.687216010944	102.41783873236
7	1047	2220.296382684805	100.27242830559
7	1048	2232.277238962866	109.15433660106
7	1053	2240.769650340048	113.01940850956
7	1063	2251.338333394137	121.25976621021
7	1064	2262.235346745743	130.74019134126
7	1065	2262.34366231856	129.71888733018
7	1068	2266.153585106338	122.21850446302
7	1069	2266.42552997011	115.80933103456
7	1072	2268.832285810228	111.08653176344
7	1073	2269.103082109303	102.55565809006
7	1074	2271.517371280566	94.916189348228
7	1075	2273.357668139661	82.840895010899
7	1076	2280.339419778253	84.259291359757
7	1077	2281.974929940408	85.326258263183
7	1120	2377.567639595982	180.91532946903
7	1121	2378.281569950486	180.82926380327
7	1130	2386.705511204695	174.15071595752
7	1131	2387.188446871051	167.1229749932
7	1132	2390.958857907784	155.17701291302
7	1133	2391.90243503935	153.55979011471
7	1134	2392.371795575839	150.83493053298
7	1135	2393.882934981908	146.62467231102
7	1138	2395.689972722079	147.76881997026
7	1139	2397.520203936073	134.91044678521
7	1144	2403.562328388372	135.33104836439
7	1145	2403.817717991401	120.42564119793
7	1146	2412.590365679821	128.22790173435
7	1147	2419.994786658053	131.37782251457
7	1148	2421.478561833694	132.71055329384
7	1149	2422.796729610511	115.59765188222
7	1150	2423.355894491882	102.52055005903
7	1153	2429.645481146379	102.19123761973
7	1158	2431.322616226299	96.670656590828
7	1159	2433.933660967605	96.287120252392
7	1164	2439.885572900756	60.790359197722
7	1165	2442.189749487678	60.159730566526
7	1166	2442.492288054691	59.21881078053
7	1169	2449.75012808867	65.300032152199
7	1170	2455.326671338395	61.30170371028
7	1171	2464.605393896393	66.69152736125
7	1172	2466.13901116775	63.890665172708
7	1173	2466.560719498458	42.89231733662
7	1174	2470.052378568438	39.179660776058
7	1175	2472.729474588436	41.664411838899
7	1176	2473.78291844266	38.215339089978
8	173	388.741737755407	37
8	174	388.759774410948	38
8	175	389.956949563184	39
8	178	393.523011697465	40
8	181	396.017591825301	41
8	182	398.852459860068	42
8	183	399.270019300937	43
8	184	408.224947239515	44
8	185	409.125909358152	45
8	186	409.838633113776	46
8	189	417.66231988894	47
8	192	419.091892645781	48
8	201	433.352536177795	49
8	210	448.194546411559	50
8	213	453.78035562792	51
8	225	468.215745667765	52
8	235	499.154259813312	53
8	239	502.197288167882	54
8	245	520.042615950235	55
8	250	526.197813629943	56
8	253	535.178442047463	57
8	260	549.741893165008	58
8	265	554.348404520247	59
8	266	554.972883288525	60
8	271	559.261922796951	61
8	274	564.692206938824	62
8	275	565.102299719003	63
8	278	566.90942618525	64
8	279	570.125240842781	65
8	289	598.00308786624	66
8	290	599.830826712737	67
8	293	600.743623330056	68
8	294	607.088980831324	69
8	303	643.728662903575	70
8	319	706.440898281149	71
8	322	717.3800772799	72
8	323	719.522098211844	73
8	324	720.451137464381	74
8	343	751.953312510197	75
8	356	765.258745699213	76
8	357	765.264564140017	77
8	358	771.00821937465	78
8	359	771.834812545982	79
8	360	772.779820191789	80
8	364	781.002718655166	81
8	365	782.301816619706	82
8	366	785.011056938723	83
8	398	866.693575294294	84
8	402	870.858961952886	85
8	405	872.962012759428	86
8	406	873.03326473097	87
8	410	880.50634711924	88
8	423	906.800146744983	89
8	424	909.994419581917	90
8	425	917.632006342098	91
8	430	923.757283045762	92
8	431	928.495734082759	93
8	432	933.949582942607	94
8	435	946.310758138111	95
8	438	960.164540300361	96
8	445	974.810739444205	97
8	446	975.897136819971	98
8	447	976.139630529589	99
8	455	999.119393780281	100
8	456	999.830881081092	101
8	459	1030.357585945567	102
8	462	1034.573518647789	103
8	465	1043.509640503543	104
8	477	1051.315629670649	105
8	481	1065.776330620023	106
8	482	1067.450806466142	107
8	483	1073.776943077015	108
8	486	1090.399205084116	109
8	492	1100.918426789199	110
8	539	1199.495468407603	111
8	540	1201.687099677902	112
8	545	1216.168190795339	113
8	546	1216.268866800252	114
8	549	1220.2437359294	115
8	552	1229.074671109712	116
8	553	1230.876420703235	117
8	554	1233.632329845099	118
8	555	1233.864463469662	119
8	560	1239.520861499089	120
8	561	1241.574523640006	121
8	564	1247.395556555635	122
8	567	1249.223805902672	123
8	582	1278.5810401213	124
8	583	1279.944214878771	125
8	594	1308.436104137371	126
8	597	1311.83090839754	127
8	598	1316.336805716232	128
8	599	1316.946573924735	129
8	600	1319.116499669707	130
8	605	1328.221724106883	131
8	608	1332.950180893054	132
8	609	1333.677977355786	133
8	631	1385.990895940974	134
8	632	1387.221241866765	135
8	633	1395.143399077752	136
8	643	1427.868538482998	137
8	647	1433.670727358824	138
8	650	1443.807739979113	139
8	651	1444.592457953089	140
8	657	1459.504813047685	141
8	660	1467.546924472713	142
8	669	1491.52289106027	143
8	672	1493.93587925468	144
8	675	1501.35136695496	145
8	678	1504.476642484311	146
8	679	1505.092211804996	147
8	680	1512.873795531151	148
8	681	1514.146810932469	149
8	689	1533.317073497058	150
8	690	1536.566302690756	151
8	695	1553.949035832999	152
8	696	1563.813788837527	153
8	710	1581.585458417955	154
8	711	1586.208798387804	155
8	714	1594.028996611781	156
8	720	1617.63485384884	157
8	723	1624.52541019582	158
8	728	1636.81386807689	159
8	729	1636.993128887401	160
8	738	1650.115215331328	161
8	741	1653.176938536046	162
8	744	1655.959411363523	163
8	747	1660.009361637825	164
8	750	1669.495699467142	165
8	756	1685.602243380723	166
8	759	1699.918703063131	167
8	767	1713.908916914057	168
8	778	1728.971894466886	169
8	779	1734.013717241175	170
8	786	1740.363768190636	171
8	796	1752.769411870372	172
8	806	1766.365046251537	173
8	807	1772.064491032631	174
8	810	1776.605259006496	175
8	811	1779.492835745313	176
8	812	1780.512028444695	177
8	813	1780.636065952171	178
8	843	1827.65791058858	179
8	844	1827.737605100742	180
8	848	1838.865758102166	181
8	849	1839.254937356961	182
8	852	1841.828701072149	183
8	853	1845.073000755974	184
8	854	1846.576953546943	185
8	855	1851.161276138998	186
8	858	1872.922258340971	187
8	882	1906.273543642901	188
8	883	1907.221300573062	189
8	884	1908.70340692919	190
8	892	1924.484700122578	191
8	893	1930.916112097876	192
8	896	1934.669355734216	193
8	897	1936.655860463874	194
8	986	2117.838007394447	195
8	989	2122.327997844953	196
8	992	2125.976330633571	197
8	999	2131.899810107036	198
8	1002	2135.765692267412	199
8	1003	2141.994540104365	200
8	1006	2144.590879616158	201
8	1007	2146.918267571862	202
8	1008	2148.156068191678	203
8	1011	2152.429018310056	204
8	1012	2155.390945979634	205
8	1013	2156.625652453923	206
8	1016	2159.612158675079	207
8	1017	2164.574923393649	208
8	1018	2164.733957961075	209
8	1024	2177.433663844415	210
8	1025	2178.379095389144	211
8	1037	2198.508784335459	212
8	1038	2199.408665275013	213
8	1039	2205.150205677054	214
8	1040	2207.393790328419	215
8	1043	2218.399737646554	216
8	1044	2218.687216010944	217
8	1047	2220.296382684805	218
8	1048	2232.277238962866	219
8	1064	2262.235346745743	220
8	1065	2262.34366231856	221
8	1068	2266.153585106338	222
8	1069	2266.42552997011	223
8	1072	2268.832285810228	224
8	1073	2269.103082109303	225
8	1074	2271.517371280566	226
8	1075	2273.357668139661	227
8	1076	2280.339419778253	228
8	1077	2281.974929940408	229
8	1121	2378.281569950486	230
8	1131	2387.188446871051	231
8	1132	2390.958857907784	232
8	1133	2391.90243503935	233
8	1134	2392.371795575839	234
8	1135	2393.882934981908	235
8	1138	2395.689972722079	236
8	1139	2397.520203936073	237
8	1144	2403.562328388372	238
8	1145	2403.817717991401	239
8	1146	2412.590365679821	240
8	1147	2419.994786658053	241
8	1148	2421.478561833694	242
8	1149	2422.796729610511	243
8	1150	2423.355894491882	244
8	1153	2429.645481146379	245
8	1158	2431.322616226299	246
8	1159	2433.933660967605	247
8	1165	2442.189749487678	248
8	1166	2442.492288054691	249
8	1169	2449.75012808867	250
8	1170	2455.326671338395	251
8	1171	2464.605393896393	252
8	1172	2466.13901116775	253
8	1173	2466.560719498458	254
8	1174	2470.052378568438	255
8	1175	2472.729474588436	256
8	1176	2473.78291844266	257
9	173	388.741737755407	38.85653635544
9	174	388.759774410948	38.456080102217
9	175	389.956949563184	37.247498947003
9	178	393.523011697465	34.385272118239
9	181	396.017591825301	26.750954398194
9	182	398.852459860068	29.477047042877
9	183	399.270019300937	28.396299955495
9	184	408.224947239515	21.200226835687
9	185	409.125909358152	15.963297483607
9	186	409.838633113776	15.159206908271
9	189	417.66231988894	2.279012087208
9	192	419.091892645781	0.219754355601
9	201	433.352536177795	11.490266910579
9	210	448.194546411559	7.064474878934
9	213	453.78035562792	1.718480517997
9	225	468.215745667765	0.059847620789
9	235	499.154259813312	9.122403367334
9	239	502.197288167882	7.685277684748
9	245	520.042615950235	12.043675459779
9	250	526.197813629943	13.422552652938
9	253	535.178442047463	14.126105195437
9	260	549.741893165008	22.46515648742
9	265	554.348404520247	18.963317653629
9	266	554.972883288525	3.810216376461
9	271	559.261922796951	6.201020516653
9	274	564.692206938824	9.035783525888
9	275	565.102299719003	8.34747138812
9	278	566.90942618525	3.539247322033
9	279	570.125240842781	4.48683900607
9	289	598.00308786624	20.995024152162
9	290	599.830826712737	17.381879215246
9	293	600.743623330056	15.860398685762
9	294	607.088980831324	6.379017767489
9	303	643.728662903575	2.877246057385
9	319	706.440898281149	18.679280046939
9	322	717.3800772799	28.652145950932
9	323	719.522098211844	14.445727489605
9	324	720.451137464381	4.503128263881
9	343	751.953312510197	28.154220941693
9	356	765.258745699213	26.436507674711
9	357	765.264564140017	22.917556670147
9	358	771.00821937465	26.939932137865
9	359	771.834812545982	19.442823170363
9	360	772.779820191789	16.882495707287
9	364	781.002718655166	19.529333432841
9	365	782.301816619706	20.075722343792
9	366	785.011056938723	9.348968555215
9	398	866.693575294294	66.96899896911
9	402	870.858961952886	47.05753944762
9	405	872.962012759428	36.212208213243
9	406	873.03326473097	19.954361538655
9	410	880.50634711924	9.507876419682
9	423	906.800146744983	25.969412821036
9	424	909.994419581917	29.146994932452
9	425	917.632006342098	24.414571147462
9	430	923.757283045762	17.088416048857
9	431	928.495734082759	9.872443509356
9	432	933.949582942607	14.701233462708
9	435	946.310758138111	0.45511041206
9	438	960.164540300361	13.476428812237
9	445	974.810739444205	6.779616136121
9	446	975.897136819971	5.744730100627
9	447	976.139630529589	4.989330097112
9	455	999.119393780281	10.725959782706
9	456	999.830881081092	5.340257398274
9	459	1030.357585945567	3.232360333948
9	462	1034.573518647789	0.661302671663
9	465	1043.509640503543	0.20118406695
9	477	1051.315629670649	5.682781490565
9	481	1065.776330620023	18.474261496774
9	482	1067.450806466142	19.612946978789
9	483	1073.776943077015	17.881654576279
9	486	1090.399205084116	1.030565375803
9	492	1100.918426789199	0.847314890986
9	539	1199.495468407603	96.25585426353
9	540	1201.687099677902	79.703776970345
9	545	1216.168190795339	71.439847968301
9	546	1216.268866800252	49.131574132405
9	549	1220.2437359294	51.31236944507
9	552	1229.074671109712	20.442526773986
9	553	1230.876420703235	20.824512088117
9	554	1233.632329845099	14.373418943021
9	555	1233.864463469662	10.787772793747
9	560	1239.520861499089	5.070270126476
9	561	1241.574523640006	3.450580060301
9	564	1247.395556555635	4.466686260903
9	567	1249.223805902672	0.812166639767
9	582	1278.5810401213	23.743598097105
9	583	1279.944214878771	24.545132847736
9	594	1308.436104137371	24.874786393805
9	597	1311.83090839754	18.326417583802
9	598	1316.336805716232	21.830965618674
9	599	1316.946573924735	22.022432066418
9	600	1319.116499669707	9.099616307793
9	605	1328.221724106883	2.211079436655
9	608	1332.950180893054	6.820015603008
9	609	1333.677977355786	4.419093637463
9	631	1385.990895940974	45.994557986309
9	632	1387.221241866765	22.98698664779
9	633	1395.143399077752	9.891677337075
9	643	1427.868538482998	19.415028748351
9	647	1433.670727358824	22.969526839402
9	650	1443.807739979113	13.854508781909
9	651	1444.592457953089	6.676218243014
9	657	1459.504813047685	2.368826988736
9	660	1467.546924472713	3.683843110018
9	669	1491.52289106027	16.401839766893
9	672	1493.93587925468	8.237200486347
9	675	1501.35136695496	15.268602672982
9	678	1504.476642484311	15.822022181945
9	679	1505.092211804996	12.742191830588
9	680	1512.873795531151	18.392136339364
9	681	1514.146810932469	11.358297500602
9	689	1533.317073497058	10.770088460352
9	690	1536.566302690756	6.244983474331
9	695	1553.949035832999	12.208978874164
9	696	1563.813788837527	10.653937839143
9	710	1581.585458417955	13.006675777836
9	711	1586.208798387804	7.621551044769
9	714	1594.028996611781	4.455066215428
9	720	1617.63485384884	0.14076232356
9	723	1624.52541019582	1.682183389945
9	728	1636.81386807689	0.610080339697
9	729	1636.993128887401	0.769523979439
9	738	1650.115215331328	0.232357587874
9	741	1653.176938536046	0.428273136978
9	744	1655.959411363523	2.057921325392
9	747	1660.009361637825	3.727704627021
9	750	1669.495699467142	6.409061827874
9	756	1685.602243380723	8.692781552202
9	759	1699.918703063131	2.85388164776
9	767	1713.908916914057	0.585711001756
9	778	1728.971894466886	14.656675060737
9	779	1734.013717241175	17.678514424079
9	786	1740.363768190636	14.591963442839
9	796	1752.769411870372	14.292121751029
9	806	1766.365046251537	18.692819075154
9	807	1772.064491032631	18.181577800779
9	810	1776.605259006496	18.934472210011
9	811	1779.492835745313	20.462378854019
9	812	1780.512028444695	20.984897552716
9	813	1780.636065952171	6.652372613658
9	843	1827.65791058858	37.459710432361
9	844	1827.737605100742	37.520781442579
9	848	1838.865758102166	39.475085803539
9	849	1839.254937356961	25.394171893167
9	852	1841.828701072149	18.624720555791
9	853	1845.073000755974	17.599901956805
9	854	1846.576953546943	15.638407803763
9	855	1851.161276138998	9.714483388576
9	858	1872.922258340971	4.678078605219
9	882	1906.273543642901	18.603652610137
9	883	1907.221300573062	15.995997701921
9	884	1908.70340692919	14.918965410264
9	892	1924.484700122578	21.108238724487
9	893	1930.916112097876	26.94687078143
9	896	1934.669355734216	28.744471965085
9	897	1936.655860463874	21.684716293569
9	986	2117.838007394447	196.30558387115
9	989	2122.327997844953	190.49414268372
9	992	2125.976330633571	178.85019782741
9	999	2131.899810107036	169.91669194969
9	1002	2135.765692267412	160.26580751452
9	1003	2141.994540104365	165.87172209152
9	1006	2144.590879616158	167.42653077162
9	1007	2146.918267571862	167.41433702611
9	1008	2148.156068191678	164.42436269527
9	1011	2152.429018310056	153.07709564981
9	1012	2155.390945979634	144.35122835983
9	1013	2156.625652453923	130.45683061885
9	1016	2159.612158675079	131.43242659087
9	1017	2164.574923393649	131.52675058527
9	1018	2164.733957961075	131.66034037031
9	1024	2177.433663844415	123.86095929688
9	1025	2178.379095389144	124.42204581677
9	1037	2198.508784335459	132.04055942211
9	1038	2199.408665275013	127.51152430532
9	1039	2205.150205677054	109.84099368587
9	1040	2207.393790328419	108.24154787282
9	1043	2218.399737646554	106.90496372322
9	1044	2218.687216010944	104.80739975534
9	1047	2220.296382684805	104.02700540622
9	1048	2232.277238962866	112.25328458365
9	1064	2262.235346745743	132.15677956182
9	1065	2262.34366231856	130.84850691408
9	1068	2266.153585106338	133.52881011795
9	1069	2266.42552997011	122.4904493268
9	1072	2268.832285810228	118.21608687468
9	1073	2269.103082109303	111.35732806251
9	1074	2271.517371280566	104.96994726132
9	1075	2273.357668139661	96.756486207323
9	1076	2280.339419778253	89.822646649491
9	1077	2281.974929940408	85.894801521912
9	1121	2378.281569950486	181.62925982354
9	1131	2387.188446871051	174.63365162388
9	1132	2390.958857907784	170.89338602993
9	1133	2391.90243503935	156.12059004458
9	1134	2392.371795575839	154.0291506512
9	1135	2393.882934981908	152.34606993905
9	1138	2395.689972722079	148.43171005119
9	1139	2397.520203936073	149.59905118426
9	1144	2403.562328388372	140.95257123751
9	1145	2403.817717991401	135.58643796742
9	1146	2412.590365679821	129.19828888635
9	1147	2419.994786658053	135.63232271258
9	1148	2421.478561833694	132.86159769022
9	1149	2422.796729610511	134.02872107065
9	1150	2423.355894491882	116.1568167636
9	1153	2429.645481146379	108.81013671352
9	1158	2431.322616226299	103.86837269965
9	1159	2433.933660967605	99.281701332134
9	1165	2442.189749487678	63.094535784644
9	1166	2442.492288054691	60.462269133539
9	1169	2449.75012808867	66.476650814509
9	1170	2455.326671338395	70.876575401924
9	1171	2464.605393896393	70.580426268278
9	1172	2466.13901116775	68.225144632607
9	1173	2466.560719498458	64.312373503416
9	1174	2470.052378568438	46.3839764066
9	1175	2472.729474588436	41.856756796056
9	1176	2473.78291844266	42.717855693123
10	229	490.031856445978	8
10	237	501.146565597212	9
10	241	507.998940490456	10
10	255	535.385086866618	11
10	283	577.008063714078	12
10	328	720.818567622802	13
10	339	742.34700746987	14
10	345	752.391989375619	15
10	348	755.897324484502	16
10	362	775.662088383508	17
10	400	870.307832749627	18
10	408	874.759940419569	19
10	414	880.847424649465	20
10	471	1045.839946687533	21
10	479	1055.895288500736	22
10	571	1254.837442024195	23
10	585	1283.561317743566	24
10	592	1294.924141858317	25
10	645	1429.953231197204	26
10	685	1522.546985036706	27
10	773	1725.771804747797	28
10	788	1741.765106934903	29
10	791	1747.672227176383	30
10	798	1753.882913231852	31
10	817	1785.856777205899	32
10	820	1790.198200156219	33
10	846	1830.93854574318	34
10	888	1915.950055390832	35
10	899	1947.126132806161	36
10	1020	2166.547424019246	37
10	1027	2190.516773128762	38
10	1052	2238.342644924639	39
10	1055	2241.536865042855	40
10	1079	2283.392076793466	41
10	1123	2379.095213703034	42
10	1163	2437.703142205419	43
10	1178	2475.022752058164	44
11	1185	2500	0.1028
12	1185	2500	0.0532

