version 2
run experiments_easy_game_mode1-1874-20230308-12:08:42-28159
attr configname experiments_easy_game_mode1
attr datetime 20230308-12:08:42
attr experiment experiments_easy_game_mode1
attr inifile omnetpp.ini
attr iterationvars "$0=7.5, $1=1.5, $2=0"
attr iterationvarsf 7.5,1.5,0-
attr measurement "$0=7.5, $1=1.5, $2=0"
attr network Network
attr processid 28159
attr repetition 14
attr replication #14
attr resultdir results
attr runnumber 1874
attr seedset 14
param *.boss.arrival_mean 20
param *.boss.service_mean 7.5
param *.minion.arrival_mean 10
param *.minion.service_mean 1.5
param *.player.recover_rate_x 0
param **.minion.arrival_distribution 0
param **.minion.service_distribution 0
param **.boss.arrival_distribution 0
param **.boss.service_distribution 0

vector 0 Network.player boss_defeated_stat:vector ETV
attr source signal_boss_defeated
vector 1 Network.player boss_jobs_queue_number_stat:vector ETV
attr source signal_boss_jobs_queue_number
vector 2 Network.player boss_response_time_stat:vector ETV
attr source signal_boss_response_time
vector 3 Network.player minion_jobs_number_stat:vector ETV
attr source signal_minion_jobs_number
vector 4 Network.player minion_jobs_queue_number_stat:vector ETV
attr source signal_minion_jobs_queue_number
vector 5 Network.player minion_waiting_time_stat:vector ETV
attr source signal_minion_waiting_time
vector 6 Network.player minion_defeated_stat:vector ETV
attr source signal_minion_defeated
vector 7 Network.player minion_response_time_stat:vector ETV
attr source signal_minion_response_time
vector 8 Network.player boss_jobs_number_stat:vector ETV
attr source signal_boss_jobs_number
vector 9 Network.player boss_waiting_time_stat:vector ETV
attr source signal_boss_waiting_time
vector 10 Network.player minion_recovered_stat:vector ETV
attr source signal_minion_recovered
vector 11 Network.player minion_throughput:vector ETV
attr source signal_minion_throughput
vector 12 Network.player boss_throughput:vector ETV
attr source signal_boss_throughput
0	150	354.826189580324	15
0	158	362.861980118873	16
0	168	392.90908613116	17
0	173	409.768260986631	18
0	205	473.12146020948	19
0	210	475.805646909478	20
0	224	513.911258929834	21
0	236	561.811643029764	22
0	237	565.78128541347	23
0	253	622.701318215022	24
0	256	626.564369886229	25
0	266	677.457724039161	26
0	267	681.943711971387	27
0	274	687.961059505211	28
0	288	714.475658867284	29
0	302	759.739715107213	30
0	306	766.78890093379	31
0	309	785.818145649313	32
0	317	806.967511406106	33
0	332	824.257940788238	34
0	337	829.061962145975	35
0	342	848.803187020016	36
0	343	849.709683961044	37
0	349	858.907716189539	38
0	366	914.010823717308	39
0	371	925.069339406607	40
0	376	938.730338457197	41
0	379	943.011387183848	42
0	380	945.838772367992	43
0	399	1001.375913124024	44
0	411	1016.746653948758	45
0	417	1028.882914068361	46
0	437	1049.542155106148	47
0	468	1129.587050803011	48
0	473	1133.208269729526	49
0	477	1137.7213818353	50
0	490	1159.155313945228	51
0	497	1161.795630057014	52
0	513	1178.923816770503	53
0	533	1215.265401609056	54
0	538	1218.328881744246	55
0	545	1230.630319934379	56
0	554	1241.713743419018	57
0	560	1260.845839028775	58
0	561	1262.735634852138	59
0	571	1290.824899385997	60
0	572	1295.096897481325	61
0	582	1317.637598748962	62
0	585	1325.392086433584	63
0	591	1360.884365136182	64
0	602	1389.808914307614	65
0	603	1390.854428313298	66
0	604	1395.196269525357	67
0	611	1403.323739012947	68
0	615	1412.868741370426	69
0	624	1432.37249924304	70
0	629	1440.039636376085	71
0	630	1444.100026867472	72
0	650	1469.919682653013	73
0	659	1475.422195059286	74
0	666	1497.779535000558	75
0	669	1543.290813612231	76
0	678	1559.65185385201	77
0	685	1573.432521319133	78
0	701	1600.0739733804	79
0	707	1612.09521758021	80
0	708	1613.218802964386	81
0	731	1713.117992742494	82
0	740	1733.662145824561	83
0	741	1738.110410350269	84
0	744	1750.806454710592	85
0	750	1754.763113040657	86
0	759	1780.801818915939	87
0	760	1791.476491704865	88
0	767	1809.383223342045	89
0	773	1823.406360216712	90
0	780	1828.149740241513	91
0	791	1853.596946718473	92
0	809	1873.730665299411	93
0	817	1898.504646912253	94
0	829	1938.427142060476	95
0	836	1944.766293724553	96
0	848	1966.70349461974	97
0	851	1971.293491266625	98
0	867	2018.699910191736	99
0	893	2068.096326287492	100
0	912	2133.091453153678	101
0	926	2180.152275260324	102
0	927	2181.829494982635	103
0	928	2186.060276636881	104
0	966	2265.995088030358	105
0	988	2307.908154571976	106
0	989	2316.925912354936	107
0	1004	2351.834673400671	108
0	1011	2371.056107874525	109
0	1012	2372.25811865008	110
0	1013	2375.386088026746	111
0	1034	2419.220757800538	112
0	1041	2447.573533723142	113
0	1052	2468.152002508265	114
1	150	354.826189580324	0
1	155	357.206506079018	0
1	158	362.861980118873	0
1	167	391.047324288703	0
1	168	392.90908613116	0
1	170	395.908292557247	0
1	173	409.768260986631	0
1	202	465.277290456284	0
1	205	473.12146020948	0
1	209	475.393105182559	0
1	210	475.805646909478	0
1	221	506.499791779649	0
1	224	513.911258929834	0
1	233	552.180011467169	0
1	235	561.762733894234	1
1	236	561.811643029764	1
1	237	565.78128541347	0
1	248	615.348425057337	0
1	252	618.900269317537	1
1	253	622.701318215022	1
1	256	626.564369886229	0
1	263	659.041663215175	0
1	265	674.896049565265	1
1	266	677.457724039161	1
1	267	681.943711971387	0
1	269	682.19995766715	0
1	274	687.961059505211	0
1	287	712.477119971921	0
1	288	714.475658867284	0
1	301	758.572252174628	0
1	302	759.739715107213	0
1	305	765.706999917469	0
1	306	766.78890093379	0
1	308	784.978755077148	0
1	309	785.818145649313	0
1	316	806.137931290683	0
1	317	806.967511406106	0
1	325	814.592706334832	0
1	331	821.626426792798	1
1	332	824.257940788238	1
1	334	824.836198466085	1
1	336	825.499667755023	2
1	337	829.061962145975	2
1	342	848.803187020016	1
1	343	849.709683961044	0
1	348	852.060948218651	0
1	349	858.907716189539	0
1	365	911.483787810045	0
1	366	914.010823717308	0
1	368	917.070564889174	0
1	370	920.385567146477	1
1	371	925.069339406607	1
1	375	935.754445185036	1
1	376	938.730338457197	1
1	378	942.293628006038	1
1	379	943.011387183848	1
1	380	945.838772367992	0
1	398	999.060599541854	0
1	399	1001.375913124024	0
1	410	1016.150775054257	0
1	411	1016.746653948758	0
1	416	1022.394637542636	0
1	417	1028.882914068361	0
1	434	1038.538246586789	0
1	437	1049.542155106148	0
1	467	1129.314636342715	0
1	468	1129.587050803011	0
1	472	1130.970527845427	0
1	473	1133.208269729526	0
1	476	1135.120469468102	0
1	477	1137.7213818353	0
1	479	1138.721968208374	0
1	481	1140.538363023018	1
1	490	1159.155313945228	1
1	497	1161.795630057014	0
1	504	1166.545317567146	0
1	513	1178.923816770503	0
1	530	1212.235030563073	0
1	532	1214.859992130296	1
1	533	1215.265401609056	1
1	538	1218.328881744246	0
1	544	1227.485883194672	0
1	545	1230.630319934379	0
1	553	1236.643816917823	0
1	554	1241.713743419018	0
1	557	1245.185824588694	0
1	559	1245.473148778668	1
1	560	1260.845839028775	1
1	561	1262.735634852138	0
1	566	1272.319734415131	0
1	570	1286.83813706964	1
1	571	1290.824899385997	1
1	572	1295.096897481325	0
1	579	1305.235701771402	0
1	581	1310.732245537385	1
1	582	1317.637598748962	1
1	585	1325.392086433584	0
1	590	1351.241493944332	0
1	591	1360.884365136182	0
1	593	1365.328541869756	0
1	597	1375.741575967684	1
1	601	1385.026190838092	2
1	602	1389.808914307614	2
1	603	1390.854428313298	1
1	604	1395.196269525357	0
1	610	1399.267833290923	0
1	611	1403.323739012947	0
1	614	1408.531804252156	0
1	615	1412.868741370426	0
1	617	1416.866283432641	0
1	623	1427.924704791414	1
1	624	1432.37249924304	1
1	626	1434.313057492983	1
1	629	1440.039636376085	1
1	630	1444.100026867472	0
1	641	1451.59723784495	0
1	650	1469.919682653013	0
1	656	1473.378666856534	0
1	659	1475.422195059286	0
1	665	1491.689037357241	0
1	666	1497.779535000558	0
1	668	1538.272590616996	0
1	669	1543.290813612231	0
1	671	1553.901690264833	0
1	677	1558.54260141757	1
1	678	1559.65185385201	1
1	685	1573.432521319133	0
1	698	1595.681554309851	0
1	701	1600.0739733804	0
1	704	1603.998637226888	0
1	706	1610.690213821691	1
1	707	1612.09521758021	1
1	708	1613.218802964386	0
1	728	1706.356756001619	0
1	730	1708.08451424638	1
1	731	1713.117992742494	1
1	739	1721.710537312419	1
1	740	1733.662145824561	1
1	741	1738.110410350269	0
1	743	1743.189173685306	0
1	744	1750.806454710592	0
1	749	1753.349503705846	0
1	750	1754.763113040657	0
1	752	1758.340419657439	0
1	756	1770.084095394452	1
1	759	1780.801818915939	1
1	760	1791.476491704865	0
1	764	1804.85575399758	0
1	767	1809.383223342045	0
1	770	1814.320946502234	0
1	773	1823.406360216712	0
1	775	1824.452226560445	0
1	780	1828.149740241513	0
1	788	1844.071205200833	0
1	791	1853.596946718473	0
1	808	1866.574068671975	0
1	809	1873.730665299411	0
1	814	1882.268336137148	0
1	817	1898.504646912253	0
1	824	1930.068896973113	0
1	826	1932.893391889637	1
1	829	1938.427142060476	1
1	836	1944.766293724553	0
1	845	1955.889998953772	0
1	847	1959.222495235312	1
1	848	1966.70349461974	1
1	851	1971.293491266625	0
1	866	2015.913112375529	0
1	867	2018.699910191736	0
1	884	2059.313257916285	0
1	893	2068.096326287492	0
1	911	2130.479222310669	0
1	912	2133.091453153678	0
1	917	2152.854575283436	0
1	921	2170.102954966602	1
1	923	2172.239960610976	2
1	926	2180.152275260324	2
1	927	2181.829494982635	1
1	928	2186.060276636881	0
1	965	2263.481900039759	0
1	966	2265.995088030358	0
1	985	2300.279199629124	0
1	987	2306.50332956852	1
1	988	2307.908154571976	1
1	989	2316.925912354936	0
1	995	2330.823323660804	0
1	1003	2347.179264871828	1
1	1004	2351.834673400671	1
1	1008	2366.470211685635	1
1	1010	2366.72911705343	2
1	1011	2371.056107874525	2
1	1012	2372.25811865008	1
1	1013	2375.386088026746	0
1	1029	2410.9013658636	0
1	1034	2419.220757800538	0
1	1040	2438.53470917593	0
1	1041	2447.573533723142	0
1	1051	2464.141668652333	0
1	1052	2468.152002508265	0
2	150	354.826189580324	6.225510808757
2	158	362.861980118873	5.655474039855
2	168	392.90908613116	1.861761842457
2	173	409.768260986631	13.859968429384
2	205	473.12146020948	7.844169753196
2	210	475.805646909478	0.412541726919
2	224	513.911258929834	7.411467150185
2	236	561.811643029764	9.631631562595
2	237	565.78128541347	4.018551519236
2	253	622.701318215022	7.352893157685
2	256	626.564369886229	7.664100568692
2	266	677.457724039161	18.416060823986
2	267	681.943711971387	7.047662406122
2	274	687.961059505211	5.761101838061
2	288	714.475658867284	1.998538895363
2	302	759.739715107213	1.167462932585
2	306	766.78890093379	1.081901016321
2	309	785.818145649313	0.839390572165
2	317	806.967511406106	0.829580115423
2	332	824.257940788238	9.665234453406
2	337	829.061962145975	7.435535353177
2	342	848.803187020016	23.966988553931
2	343	849.709683961044	24.210016206021
2	349	858.907716189539	6.846767970888
2	366	914.010823717308	2.527035907263
2	371	925.069339406607	7.998774517433
2	376	938.730338457197	18.34477131072
2	379	943.011387183848	7.256941998812
2	380	945.838772367992	3.545144361954
2	399	1001.375913124024	2.31531358217
2	411	1016.746653948758	0.595878894501
2	417	1028.882914068361	6.488276525725
2	437	1049.542155106148	11.003908519359
2	468	1129.587050803011	0.272414460296
2	473	1133.208269729526	2.237741884099
2	477	1137.7213818353	2.600912367198
2	490	1159.155313945228	20.433345736854
2	497	1161.795630057014	21.257267033996
2	513	1178.923816770503	12.378499203357
2	533	1215.265401609056	3.030371045983
2	538	1218.328881744246	3.46888961395
2	545	1230.630319934379	3.144436739707
2	554	1241.713743419018	5.069926501195
2	560	1260.845839028775	15.660014440081
2	561	1262.735634852138	17.26248607347
2	571	1290.824899385997	18.505164970866
2	572	1295.096897481325	8.258760411685
2	582	1317.637598748962	12.40189697756
2	585	1325.392086433584	14.659840896199
2	591	1360.884365136182	9.64287119185
2	602	1389.808914307614	24.480372437858
2	603	1390.854428313298	15.112852345614
2	604	1395.196269525357	10.170078687265
2	611	1403.323739012947	4.055905722024
2	615	1412.868741370426	4.33693711827
2	624	1432.37249924304	15.506215810399
2	629	1440.039636376085	12.114931584671
2	630	1444.100026867472	9.786969374489
2	650	1469.919682653013	18.322444808063
2	659	1475.422195059286	2.043528202752
2	666	1497.779535000558	6.090497643317
2	669	1543.290813612231	5.018222995235
2	678	1559.65185385201	5.750163587177
2	685	1573.432521319133	14.889919901563
2	701	1600.0739733804	4.392419070549
2	707	1612.09521758021	8.096580353322
2	708	1613.218802964386	2.528589142695
2	731	1713.117992742494	6.761236740875
2	740	1733.662145824561	25.577631578181
2	741	1738.110410350269	16.39987303785
2	744	1750.806454710592	7.617281025286
2	750	1754.763113040657	1.413609334811
2	759	1780.801818915939	22.4613992585
2	760	1791.476491704865	21.392396310413
2	767	1809.383223342045	4.527469344465
2	773	1823.406360216712	9.085413714478
2	780	1828.149740241513	3.697513681068
2	791	1853.596946718473	9.52574151764
2	809	1873.730665299411	7.156596627436
2	817	1898.504646912253	16.236310775105
2	829	1938.427142060476	8.358245087363
2	836	1944.766293724553	11.872901834916
2	848	1966.70349461974	10.813495665968
2	851	1971.293491266625	12.070996031313
2	867	2018.699910191736	2.786797816207
2	893	2068.096326287492	8.783068371207
2	912	2133.091453153678	2.612230843009
2	926	2180.152275260324	27.297699976888
2	927	2181.829494982635	11.726540016033
2	928	2186.060276636881	13.820316025905
2	966	2265.995088030358	2.513187990599
2	988	2307.908154571976	7.628954942852
2	989	2316.925912354936	10.422582786416
2	1004	2351.834673400671	21.011349739867
2	1011	2371.056107874525	23.876843002697
2	1012	2372.25811865008	5.787906964445
2	1013	2375.386088026746	8.656970973316
2	1034	2419.220757800538	8.319391936938
2	1041	2447.573533723142	9.038824547212
2	1052	2468.152002508265	4.010333855932
3	152	355.033945535691	1
3	157	360.847648264445	1
3	160	365.819027899354	2
3	164	387.095718742011	1
3	172	398.088058073479	1
3	176	411.419678450139	1
3	178	413.093427385525	2
3	182	425.563623459991	1
3	185	437.666459119456	1
3	187	438.029696684342	2
3	191	447.815078122995	1
3	193	448.014362986578	2
3	197	460.719474807882	1
3	200	464.691421886986	1
3	204	468.31375369647	2
3	212	476.592355171942	1
3	215	480.99996210736	1
3	218	494.693038600887	1
3	223	510.591329069228	1
3	227	523.668671067401	1
3	230	527.598294093744	1
3	239	573.842969895357	1
3	242	578.455437527969	1
3	245	611.555413684417	1
3	250	615.939352714958	1
3	255	623.928771261495	2
3	260	640.673975379459	1
3	271	685.122935878473	1
3	273	687.110961404252	2
3	278	694.229259922791	1
3	281	701.444758777024	1
3	284	705.749087531437	1
3	290	725.2216939068	1
3	293	752.004625109296	1
3	296	755.485935073437	1
3	299	757.769784631013	1
3	311	800.144084995374	1
3	314	805.271801913546	1
3	320	807.820099495089	1
3	323	814.210414154197	1
3	327	816.643396720179	2
3	329	818.126394379828	3
3	339	834.316834260483	4
3	341	847.234050476089	5
3	346	851.786460812176	5
3	352	860.598996821791	5
3	359	894.948001405393	1
3	362	896.650259971945	1
3	373	934.819959063106	1
3	383	950.241304898061	1
3	386	958.062632827699	1
3	389	959.86991923007	1
3	392	976.77582752251	1
3	395	990.414800602808	1
3	401	1002.459897149837	1
3	404	1005.460868939708	1
3	406	1006.451086213564	2
3	413	1020.40415877667	1
3	419	1030.872134027189	1
3	421	1032.252396590645	2
3	423	1033.053287518108	3
3	425	1033.310784231591	4
3	427	1033.610600588183	5
3	429	1035.553503453612	6
3	436	1041.240048900413	4
3	443	1075.493779429228	1
3	446	1082.115014041595	1
3	449	1085.432242173332	1
3	452	1092.014265008028	1
3	455	1109.518560920317	1
3	458	1114.688937990352	1
3	460	1119.343587080697	2
3	464	1124.314779321839	1
3	470	1130.644362471608	1
3	483	1143.781660615884	1
3	485	1145.868995392401	2
3	487	1153.73048230477	3
3	489	1155.387906672459	4
3	492	1160.734199300354	5
3	494	1160.750637223976	6
3	496	1161.396249084582	7
3	506	1167.5326024227	3
3	508	1167.598052850385	4
3	510	1167.993915492425	5
3	512	1173.20143576488	6
3	519	1186.418747567496	3
3	522	1189.947228181589	3
3	527	1201.319841001969	1
3	535	1216.520669937629	1
3	537	1218.100005335566	2
3	542	1226.703128561465	1
3	548	1234.366186994145	1
3	551	1236.615598461658	1
3	563	1269.362910494722	1
3	568	1283.054924494812	1
3	574	1296.441175643018	2
3	576	1297.069316463925	3
3	584	1324.647391818103	3
3	595	1374.056657797941	1
3	599	1378.022606618429	2
3	608	1398.933525870826	1
3	619	1417.818834180346	1
3	621	1418.731874372363	2
3	628	1439.388948369657	3
3	635	1447.509081999705	1
3	638	1449.142914548495	1
3	643	1456.225271383588	1
3	645	1456.400941635302	2
3	647	1461.965053672528	3
3	649	1467.67103100862	4
3	658	1474.515807855272	1
3	662	1479.677835639554	1
3	673	1554.358948512642	1
3	675	1558.420695990465	2
3	680	1562.464946648262	3
3	682	1562.828090074808	4
3	684	1572.194378599458	5
3	690	1574.705130952569	3
3	695	1594.176936871932	1
3	700	1598.708315021286	1
3	710	1613.903273049395	1
3	713	1621.40366481471	1
3	716	1630.241630788371	1
3	719	1644.260086479798	1
3	722	1669.832094513945	1
3	725	1681.611071161843	1
3	733	1713.472986293194	1
3	735	1714.640646851212	2
3	737	1721.30860318063	3
3	754	1766.226882172695	1
3	758	1779.98537330806	2
3	766	1807.823965274978	1
3	772	1819.60630046076	1
3	777	1826.548979276419	2
3	779	1826.651877243888	3
3	785	1838.134966215622	1
3	790	1847.293015477357	1
3	793	1853.976238258592	2
3	796	1855.10675154571	2
3	798	1857.631578485873	3
3	803	1860.606685251931	1
3	806	1865.691340515226	1
3	812	1880.814585492101	1
3	816	1887.931572451922	2
3	820	1903.497259501524	2
3	828	1937.445960383169	1
3	831	1938.859698529189	2
3	833	1941.176329864383	3
3	835	1943.536124637245	4
3	840	1950.784732485768	3
3	850	1967.794394560158	1
3	854	1976.287166789391	1
3	857	1985.897270703852	1
3	860	2007.719498988818	1
3	863	2010.177268959809	1
3	869	2021.901711754506	1
3	872	2031.30342569397	1
3	875	2037.136179608095	1
3	878	2040.809530510809	1
3	881	2053.674137517185	1
3	886	2059.816619114803	1
3	888	2060.448777503511	2
3	890	2063.058595777536	3
3	892	2063.394189174223	4
3	898	2072.07663982243	2
3	900	2072.759239173926	3
3	905	2083.275534212787	1
3	908	2122.161339140629	1
3	914	2140.78073805428	1
3	919	2163.337331253465	1
3	925	2177.74862608756	2
3	932	2189.633811910056	1
3	935	2193.770199773401	1
3	937	2194.819181776313	2
3	940	2195.465914992879	2
3	944	2211.311766695371	1
3	947	2215.304386083665	1
3	950	2226.004219507096	1
3	953	2251.224778920485	1
3	956	2254.497456116578	1
3	959	2256.847869803007	1
3	962	2257.714496912013	1
3	968	2273.201925482636	1
3	971	2280.192910292888	1
3	974	2284.721547061188	1
3	977	2287.575491926138	1
3	979	2287.868131191911	2
3	983	2296.617862611394	1
3	992	2325.974203586855	1
3	997	2334.310906074741	1
3	999	2334.384825843069	2
3	1001	2343.657463510586	3
3	1006	2365.52260337468	4
3	1016	2377.755021187577	4
3	1022	2398.406299735043	1
3	1025	2410.564342124642	1
3	1027	2410.626546255374	2
3	1031	2413.549859208002	3
3	1033	2418.857725134264	4
3	1043	2458.946133014052	1
3	1045	2459.312248017999	2
3	1049	2463.17615093269	1
3	1055	2469.069714972963	1
3	1058	2478.484167057322	1
3	1061	2491.184429780078	1
3	1063	2493.000563500548	2
4	152	355.033945535691	0
4	153	356.253399484715	0
4	157	360.847648264445	0
4	160	365.819027899354	1
4	161	366.793851149988	1
4	162	367.669632672771	0
4	164	387.095718742011	0
4	165	387.35901207925	0
4	172	398.088058073479	0
4	174	410.765229810845	0
4	176	411.419678450139	0
4	178	413.093427385525	1
4	179	414.533978806884	1
4	180	417.45325371316	0
4	182	425.563623459991	0
4	183	425.643977897904	0
4	185	437.666459119456	0
4	187	438.029696684342	1
4	188	438.253505667563	1
4	189	445.549332921342	0
4	191	447.815078122995	0
4	193	448.014362986578	1
4	194	448.65222098458	1
4	195	448.818865235512	0
4	197	460.719474807882	0
4	198	463.448454388068	0
4	200	464.691421886986	0
4	204	468.31375369647	1
4	206	473.306812975044	1
4	207	475.253274843068	0
4	212	476.592355171942	0
4	213	476.704176327496	0
4	215	480.99996210736	0
4	216	481.199264789656	0
4	218	494.693038600887	0
4	219	494.722108021872	0
4	223	510.591329069228	0
4	225	517.633977712168	0
4	227	523.668671067401	0
4	228	525.585176195121	0
4	230	527.598294093744	0
4	231	532.772958171448	0
4	239	573.842969895357	0
4	240	573.90649506	0
4	242	578.455437527969	0
4	243	578.816845849972	0
4	245	611.555413684417	0
4	246	611.583653655028	0
4	250	615.939352714958	0
4	255	623.928771261495	1
4	257	627.959366664721	1
4	258	628.089236526578	0
4	260	640.673975379459	0
4	261	643.945578776336	0
4	271	685.122935878473	0
4	273	687.110961404252	1
4	275	688.455701281458	1
4	276	688.461347885077	0
4	278	694.229259922791	0
4	279	695.070181347174	0
4	281	701.444758777024	0
4	282	701.457605348506	0
4	284	705.749087531437	0
4	285	705.778978907484	0
4	290	725.2216939068	0
4	291	729.010371610061	0
4	293	752.004625109296	0
4	294	752.933544549588	0
4	296	755.485935073437	0
4	297	755.822637574425	0
4	299	757.769784631013	0
4	303	760.598363469383	0
4	311	800.144084995374	0
4	312	805.202407241229	0
4	314	805.271801913546	0
4	318	807.778275929858	0
4	320	807.820099495089	0
4	321	809.070852857598	0
4	323	814.210414154197	0
4	327	816.643396720179	1
4	329	818.126394379828	2
4	339	834.316834260483	3
4	341	847.234050476089	4
4	344	851.718963769809	4
4	346	851.786460812176	4
4	350	859.038866514082	4
4	352	860.598996821791	4
4	353	861.750786622574	4
4	354	865.129679280882	3
4	355	865.679517843616	2
4	356	868.888130160408	1
4	357	871.20576465017	0
4	359	894.948001405393	0
4	360	895.850507788587	0
4	362	896.650259971945	0
4	363	898.286333791169	0
4	373	934.819959063106	0
4	381	946.806900998793	0
4	383	950.241304898061	0
4	384	953.114016490002	0
4	386	958.062632827699	0
4	387	958.226107942388	0
4	389	959.86991923007	0
4	390	961.049089596105	0
4	392	976.77582752251	0
4	393	976.995456261799	0
4	395	990.414800602808	0
4	396	990.744782291838	0
4	401	1002.459897149837	0
4	402	1004.254289943892	0
4	404	1005.460868939708	0
4	406	1006.451086213564	1
4	407	1006.621459318842	1
4	408	1007.859610046875	0
4	413	1020.40415877667	0
4	414	1021.465910506527	0
4	419	1030.872134027189	0
4	421	1032.252396590645	1
4	423	1033.053287518108	2
4	425	1033.310784231591	3
4	427	1033.610600588183	4
4	429	1035.553503453612	5
4	430	1036.649060967282	5
4	431	1037.136320990527	4
4	432	1038.18837133603	3
4	436	1041.240048900413	3
4	438	1050.285911675192	3
4	439	1052.257471417367	2
4	440	1053.563716005664	1
4	441	1055.219007722409	0
4	443	1075.493779429228	0
4	444	1077.263743995775	0
4	446	1082.115014041595	0
4	447	1082.731216423885	0
4	449	1085.432242173332	0
4	450	1086.803921761825	0
4	452	1092.014265008028	0
4	453	1095.123375153406	0
4	455	1109.518560920317	0
4	456	1109.846238646829	0
4	458	1114.688937990352	0
4	460	1119.343587080697	1
4	461	1120.909771401393	1
4	462	1122.524642684454	0
4	464	1124.314779321839	0
4	465	1128.071439077795	0
4	470	1130.644362471608	0
4	474	1133.435678072029	0
4	483	1143.781660615884	0
4	485	1145.868995392401	1
4	487	1153.73048230477	2
4	489	1155.387906672459	3
4	492	1160.734199300354	4
4	494	1160.750637223976	5
4	496	1161.396249084582	6
4	498	1162.106714216038	6
4	499	1162.798270416052	5
4	500	1163.00600349665	4
4	501	1163.508759848157	3
4	502	1165.669065688106	2
4	506	1167.5326024227	2
4	508	1167.598052850385	3
4	510	1167.993915492425	4
4	512	1173.20143576488	5
4	514	1180.781351017712	5
4	515	1183.83345206483	4
4	516	1186.074416323749	3
4	517	1186.185998920998	2
4	519	1186.418747567496	2
4	520	1187.723966849803	2
4	522	1189.947228181589	2
4	523	1193.045290265506	2
4	524	1193.550730784904	1
4	525	1193.562399778172	0
4	527	1201.319841001969	0
4	528	1202.959093736637	0
4	535	1216.520669937629	0
4	537	1218.100005335566	1
4	539	1219.047099583443	1
4	540	1219.263889836701	0
4	542	1226.703128561465	0
4	546	1230.681184477476	0
4	548	1234.366186994145	0
4	549	1235.38998114903	0
4	551	1236.615598461658	0
4	555	1241.890328864101	0
4	563	1269.362910494722	0
4	564	1270.923774844179	0
4	568	1283.054924494812	0
4	574	1296.441175643018	1
4	576	1297.069316463925	2
4	577	1301.689478051343	2
4	584	1324.647391818103	2
4	586	1326.722813865733	2
4	587	1327.348613121607	1
4	588	1336.352537203095	0
4	595	1374.056657797941	0
4	599	1378.022606618429	1
4	605	1395.955190904396	1
4	606	1398.436881074082	0
4	608	1398.933525870826	0
4	612	1407.357514025535	0
4	619	1417.818834180346	0
4	621	1418.731874372363	1
4	628	1439.388948369657	2
4	631	1445.011806951118	2
4	632	1445.242238309623	1
4	633	1447.003875214787	0
4	635	1447.509081999705	0
4	636	1448.179403482476	0
4	638	1449.142914548495	0
4	639	1450.987147403275	0
4	643	1456.225271383588	0
4	645	1456.400941635302	1
4	647	1461.965053672528	2
4	649	1467.67103100862	3
4	651	1470.307985434896	3
4	652	1471.020531593109	2
4	653	1471.200543220841	1
4	654	1472.507001837395	0
4	658	1474.515807855272	0
4	660	1475.801086191384	0
4	662	1479.677835639554	0
4	663	1481.161556966588	0
4	673	1554.358948512642	0
4	675	1558.420695990465	1
4	680	1562.464946648262	2
4	682	1562.828090074808	3
4	684	1572.194378599458	4
4	686	1573.948379036575	4
4	687	1574.124117112265	3
4	688	1574.314476526175	2
4	690	1574.705130952569	2
4	691	1575.941537156548	2
4	692	1576.149540542194	1
4	693	1577.446125446534	0
4	695	1594.176936871932	0
4	696	1594.238397864499	0
4	700	1598.708315021286	0
4	702	1600.631956235203	0
4	710	1613.903273049395	0
4	711	1614.352356688785	0
4	713	1621.40366481471	0
4	714	1622.148091427289	0
4	716	1630.241630788371	0
4	717	1631.917161120998	0
4	719	1644.260086479798	0
4	720	1645.059544910421	0
4	722	1669.832094513945	0
4	723	1669.983143813134	0
4	725	1681.611071161843	0
4	726	1685.564751727029	0
4	733	1713.472986293194	0
4	735	1714.640646851212	1
4	737	1721.30860318063	2
4	745	1751.360037711828	2
4	746	1751.679512051061	1
4	747	1752.943261472219	0
4	754	1766.226882172695	0
4	758	1779.98537330806	1
4	761	1793.18124711253	1
4	762	1793.589027109154	0
4	766	1807.823965274978	0
4	768	1809.833784063861	0
4	772	1819.60630046076	0
4	777	1826.548979276419	1
4	779	1826.651877243888	2
4	781	1828.553107562167	2
4	782	1828.750421228136	1
4	783	1829.983038371139	0
4	785	1838.134966215622	0
4	786	1838.463655155062	0
4	790	1847.293015477357	0
4	793	1853.976238258592	1
4	794	1855.02708651737	1
4	796	1855.10675154571	1
4	798	1857.631578485873	2
4	799	1857.908086803916	2
4	800	1858.123033505698	1
4	801	1858.671197957146	0
4	803	1860.606685251931	0
4	804	1860.698641970863	0
4	806	1865.691340515226	0
4	810	1874.047138633889	0
4	812	1880.814585492101	0
4	816	1887.931572451922	1
4	818	1899.825433648236	1
4	820	1903.497259501524	1
4	821	1904.632897483999	1
4	822	1908.148634016084	0
4	828	1937.445960383169	0
4	831	1938.859698529189	1
4	833	1941.176329864383	2
4	835	1943.536124637245	3
4	837	1948.021739676232	3
4	838	1950.500894871575	2
4	840	1950.784732485768	2
4	841	1951.402478860928	2
4	842	1951.758700237397	1
4	843	1952.037027503779	0
4	850	1967.794394560158	0
4	852	1971.758624661943	0
4	854	1976.287166789391	0
4	855	1976.814212093243	0
4	857	1985.897270703852	0
4	858	1986.179162107766	0
4	860	2007.719498988818	0
4	861	2008.882830614631	0
4	863	2010.177268959809	0
4	864	2015.630623726726	0
4	869	2021.901711754506	0
4	870	2024.049586019601	0
4	872	2031.30342569397	0
4	873	2031.367727902779	0
4	875	2037.136179608095	0
4	876	2040.438018960105	0
4	878	2040.809530510809	0
4	879	2041.489463318459	0
4	881	2053.674137517185	0
4	882	2054.932428802739	0
4	886	2059.816619114803	0
4	888	2060.448777503511	1
4	890	2063.058595777536	2
4	892	2063.394189174223	3
4	894	2069.628392397551	3
4	895	2070.593322933787	2
4	896	2072.005143072461	1
4	898	2072.07663982243	1
4	900	2072.759239173926	2
4	901	2074.170352181439	2
4	902	2077.245932841945	1
4	903	2079.789911321149	0
4	905	2083.275534212787	0
4	906	2084.569942609945	0
4	908	2122.161339140629	0
4	909	2122.401812348981	0
4	914	2140.78073805428	0
4	915	2143.170932855225	0
4	919	2163.337331253465	0
4	925	2177.74862608756	1
4	929	2187.740936126106	1
4	930	2189.095500619045	0
4	932	2189.633811910056	0
4	933	2190.936081008891	0
4	935	2193.770199773401	0
4	937	2194.819181776313	1
4	938	2194.852968162773	1
4	940	2195.465914992879	1
4	941	2195.544968836113	1
4	942	2202.240028435357	0
4	944	2211.311766695371	0
4	945	2211.532778224092	0
4	947	2215.304386083665	0
4	948	2215.48834327651	0
4	950	2226.004219507096	0
4	951	2228.937038585922	0
4	953	2251.224778920485	0
4	954	2252.598649005597	0
4	956	2254.497456116578	0
4	957	2254.98566017179	0
4	959	2256.847869803007	0
4	960	2257.050852180854	0
4	962	2257.714496912013	0
4	963	2258.546260550552	0
4	968	2273.201925482636	0
4	969	2273.558891099066	0
4	971	2280.192910292888	0
4	972	2282.17944266903	0
4	974	2284.721547061188	0
4	975	2285.383231570412	0
4	977	2287.575491926138	0
4	979	2287.868131191911	1
4	980	2294.758783973609	1
4	981	2296.314790739311	0
4	983	2296.617862611394	0
4	990	2318.042432949946	0
4	992	2325.974203586855	0
4	993	2327.107384358804	0
4	997	2334.310906074741	0
4	999	2334.384825843069	1
4	1001	2343.657463510586	2
4	1006	2365.52260337468	3
4	1014	2376.047547893514	3
4	1016	2377.755021187577	3
4	1017	2379.64861768594	3
4	1018	2380.617998523046	2
4	1019	2381.093212348068	1
4	1020	2382.565099892803	0
4	1022	2398.406299735043	0
4	1023	2399.341891578833	0
4	1025	2410.564342124642	0
4	1027	2410.626546255374	1
4	1031	2413.549859208002	2
4	1033	2418.857725134264	3
4	1035	2419.56108109834	3
4	1036	2419.588228092591	2
4	1037	2423.362369979151	1
4	1038	2426.273067648301	0
4	1043	2458.946133014052	0
4	1045	2459.312248017999	1
4	1046	2460.819027412576	1
4	1047	2460.906953757645	0
4	1049	2463.17615093269	0
4	1053	2468.512530128536	0
4	1055	2469.069714972963	0
4	1056	2469.57899237722	0
4	1058	2478.484167057322	0
4	1059	2479.534476935409	0
4	1061	2491.184429780078	0
4	1063	2493.000563500548	1
4	1064	2493.627524604247	1
4	1065	2494.641848176392	0
5	152	355.033945535691	0
5	158	362.861980118873	2.014331854428
5	161	366.793851149988	0.974823250634
5	164	387.095718742011	0
5	173	409.768260986631	11.680202913152
5	176	411.419678450139	0
5	179	414.533978806884	1.440551421359
5	182	425.563623459991	0
5	185	437.666459119456	0
5	188	438.253505667563	0.223808983221
5	191	447.815078122995	0
5	194	448.65222098458	0.637857998002
5	197	460.719474807882	0
5	200	464.691421886986	0
5	205	473.12146020948	7.844169753196
5	206	473.306812975044	4.993059278574
5	212	476.592355171942	0
5	215	480.99996210736	0
5	218	494.693038600887	0
5	224	513.911258929834	3.319929860606
5	227	523.668671067401	0
5	230	527.598294093744	0
5	239	573.842969895357	0
5	242	578.455437527969	0
5	245	611.555413684417	0
5	256	626.564369886229	10.625017171271
5	257	627.959366664721	4.030595403226
5	260	640.673975379459	0
5	274	687.961059505211	2.838123626738
5	275	688.455701281458	1.344739877206
5	278	694.229259922791	0
5	281	701.444758777024	0
5	284	705.749087531437	0
5	290	725.2216939068	0
5	293	752.004625109296	0
5	296	755.485935073437	0
5	299	757.769784631013	0
5	302	759.739715107213	1.167462932585
5	311	800.144084995374	0
5	314	805.271801913546	0
5	317	806.967511406106	0.829580115423
5	320	807.820099495089	0
5	323	814.210414154197	0
5	343	849.709683961044	35.116977626212
5	344	851.718963769809	35.07556704963
5	349	858.907716189539	40.781321809711
5	350	859.038866514082	24.722032253599
5	353	861.750786622574	14.516736146485
5	354	865.129679280882	13.343218468706
5	355	865.679517843616	13.618569624965
5	356	868.888130160408	8.289133338617
5	359	894.948001405393	0
5	362	896.650259971945	0
5	380	945.838772367992	11.018813304886
5	383	950.241304898061	0
5	386	958.062632827699	0
5	389	959.86991923007	0
5	392	976.77582752251	0
5	395	990.414800602808	0
5	401	1002.459897149837	0
5	404	1005.460868939708	0
5	407	1006.621459318842	0.170373105278
5	413	1020.40415877667	0
5	419	1030.872134027189	0
5	430	1036.649060967282	4.396664376637
5	431	1037.136320990527	4.083033472419
5	432	1038.18837133603	4.877587104439
5	437	1049.542155106148	15.931554517965
5	438	1050.285911675192	14.73240822158
5	439	1052.257471417367	13.719224830578
5	440	1053.563716005664	12.323667105251
5	443	1075.493779429228	0
5	446	1082.115014041595	0
5	449	1085.432242173332	0
5	452	1092.014265008028	0
5	455	1109.518560920317	0
5	458	1114.688937990352	0
5	461	1120.909771401393	1.566184320696
5	464	1124.314779321839	0
5	470	1130.644362471608	0
5	473	1133.208269729526	2.237741884099
5	497	1161.795630057014	18.01396944113
5	498	1162.106714216038	16.237718823637
5	499	1162.798270416052	9.067788111282
5	500	1163.00600349665	7.618096824191
5	501	1163.508759848157	2.774560547803
5	502	1165.669065688106	4.91842846413
5	513	1178.923816770503	17.527567685921
5	514	1180.781351017712	14.236033450566
5	515	1183.83345206483	16.30084964213
5	516	1186.074416323749	18.476363473364
5	517	1186.185998920998	18.192083428573
5	520	1187.723966849803	14.522531084923
5	523	1193.045290265506	6.62654269801
5	524	1193.550730784904	3.603502603315
5	527	1201.319841001969	0
5	538	1218.328881744246	1.808211806617
5	539	1219.047099583443	0.947094247877
5	542	1226.703128561465	0
5	545	1230.630319934379	3.144436739707
5	548	1234.366186994145	0
5	551	1236.615598461658	0
5	554	1241.713743419018	5.069926501195
5	563	1269.362910494722	0
5	572	1295.096897481325	12.041972986513
5	577	1301.689478051343	5.248302408325
5	585	1325.392086433584	28.322769969659
5	586	1326.722813865733	21.487112094331
5	587	1327.348613121607	2.701221303504
5	604	1395.196269525357	21.139611727416
5	605	1395.955190904396	17.932584285967
5	608	1398.933525870826	0
5	611	1403.323739012947	4.055905722024
5	630	1444.100026867472	26.281192687126
5	631	1445.011806951118	26.279932578755
5	632	1445.242238309623	5.853289939966
5	635	1447.509081999705	0
5	638	1449.142914548495	0
5	650	1469.919682653013	13.694411269425
5	651	1470.307985434896	13.907043799594
5	652	1471.020531593109	9.055477920581
5	653	1471.200543220841	3.529512212221
5	659	1475.422195059286	0.906387204014
5	662	1479.677835639554	0
5	685	1573.432521319133	19.073572806491
5	686	1573.948379036575	15.52768304611
5	687	1574.124117112265	11.659170464003
5	688	1574.314476526175	11.486386451367
5	691	1575.941537156548	3.74715855709
5	692	1576.149540542194	1.444409589625
5	695	1594.176936871932	0
5	701	1600.0739733804	1.365658359114
5	710	1613.903273049395	0
5	713	1621.40366481471	0
5	716	1630.241630788371	0
5	719	1644.260086479798	0
5	722	1669.832094513945	0
5	725	1681.611071161843	0
5	741	1738.110410350269	24.637424057075
5	744	1750.806454710592	36.16580785938
5	745	1751.360037711828	30.051434531198
5	746	1751.679512051061	8.490338365755
5	760	1791.476491704865	25.24960953217
5	761	1793.18124711253	13.19587380447
5	767	1809.383223342045	1.559258067067
5	773	1823.406360216712	3.800059755952
5	780	1828.149740241513	3.697513681068
5	781	1828.553107562167	2.004128285748
5	782	1828.750421228136	2.098543984248
5	785	1838.134966215622	0
5	791	1853.596946718473	6.303931241116
5	794	1855.02708651737	1.050848258778
5	799	1857.908086803916	2.801335258206
5	800	1858.123033505698	0.491455019825
5	803	1860.606685251931	0
5	806	1865.691340515226	0
5	809	1873.730665299411	7.156596627436
5	812	1880.814585492101	0
5	817	1898.504646912253	16.236310775105
5	818	1899.825433648236	11.893861196314
5	821	1904.632897483999	1.135637982475
5	836	1944.766293724553	7.320333341384
5	837	1948.021739676232	9.162041147043
5	838	1950.500894871575	9.324565007192
5	841	1951.402478860928	7.866354223683
5	842	1951.758700237397	0.973967751629
5	851	1971.293491266625	3.499096706467
5	854	1976.287166789391	0
5	857	1985.897270703852	0
5	860	2007.719498988818	0
5	863	2010.177268959809	0
5	869	2021.901711754506	0
5	872	2031.30342569397	0
5	875	2037.136179608095	0
5	878	2040.809530510809	0
5	881	2053.674137517185	0
5	893	2068.096326287492	8.279707172689
5	894	2069.628392397551	9.17961489404
5	895	2070.593322933787	7.534727156251
5	896	2072.005143072461	8.610953898238
5	901	2074.170352181439	2.093712359009
5	902	2077.245932841945	4.486693668019
5	905	2083.275534212787	0
5	908	2122.161339140629	0
5	914	2140.78073805428	0
5	928	2186.060276636881	22.722945383416
5	929	2187.740936126106	9.992310038546
5	932	2189.633811910056	0
5	935	2193.770199773401	0
5	938	2194.852968162773	0.03378638646
5	941	2195.544968836113	0.079053843234
5	944	2211.311766695371	0
5	947	2215.304386083665	0
5	950	2226.004219507096	0
5	953	2251.224778920485	0
5	956	2254.497456116578	0
5	959	2256.847869803007	0
5	962	2257.714496912013	0
5	968	2273.201925482636	0
5	971	2280.192910292888	0
5	974	2284.721547061188	0
5	977	2287.575491926138	0
5	980	2294.758783973609	6.890652781698
5	983	2296.617862611394	0
5	989	2316.925912354936	16.646712725812
5	992	2325.974203586855	0
5	1013	2375.386088026746	41.075181952005
5	1014	2376.047547893514	41.662722050445
5	1017	2379.64861768594	35.991154175354
5	1018	2380.617998523046	15.095395148366
5	1019	2381.093212348068	3.338191160491
5	1022	2398.406299735043	0
5	1025	2410.564342124642	0
5	1034	2419.220757800538	8.594211545164
5	1035	2419.56108109834	8.65971523474
5	1036	2419.588228092591	6.038368884589
5	1037	2423.362369979151	4.504644844887
5	1043	2458.946133014052	0
5	1046	2460.819027412576	1.506779394577
5	1049	2463.17615093269	0
5	1052	2468.152002508265	4.010333855932
5	1055	2469.069714972963	0
5	1058	2478.484167057322	0
5	1061	2491.184429780078	0
5	1064	2493.627524604247	0.626961103699
6	153	356.253399484715	36
6	161	366.793851149988	37
6	162	367.669632672771	38
6	165	387.35901207925	39
6	174	410.765229810845	40
6	179	414.533978806884	41
6	180	417.45325371316	42
6	183	425.643977897904	43
6	188	438.253505667563	44
6	189	445.549332921342	45
6	194	448.65222098458	46
6	195	448.818865235512	47
6	198	463.448454388068	48
6	206	473.306812975044	49
6	207	475.253274843068	50
6	213	476.704176327496	51
6	216	481.199264789656	52
6	219	494.722108021872	53
6	225	517.633977712168	54
6	228	525.585176195121	55
6	231	532.772958171448	56
6	240	573.90649506	57
6	243	578.816845849972	58
6	246	611.583653655028	59
6	257	627.959366664721	60
6	258	628.089236526578	61
6	261	643.945578776336	62
6	275	688.455701281458	63
6	276	688.461347885077	64
6	279	695.070181347174	65
6	282	701.457605348506	66
6	285	705.778978907484	67
6	291	729.010371610061	68
6	294	752.933544549588	69
6	297	755.822637574425	70
6	303	760.598363469383	71
6	312	805.202407241229	72
6	318	807.778275929858	73
6	321	809.070852857598	74
6	344	851.718963769809	75
6	350	859.038866514082	76
6	353	861.750786622574	77
6	354	865.129679280882	78
6	355	865.679517843616	79
6	356	868.888130160408	80
6	357	871.20576465017	81
6	360	895.850507788587	82
6	363	898.286333791169	83
6	381	946.806900998793	84
6	384	953.114016490002	85
6	387	958.226107942388	86
6	390	961.049089596105	87
6	393	976.995456261799	88
6	396	990.744782291838	89
6	402	1004.254289943892	90
6	407	1006.621459318842	91
6	408	1007.859610046875	92
6	414	1021.465910506527	93
6	430	1036.649060967282	94
6	431	1037.136320990527	95
6	432	1038.18837133603	96
6	438	1050.285911675192	97
6	439	1052.257471417367	98
6	440	1053.563716005664	99
6	441	1055.219007722409	100
6	444	1077.263743995775	101
6	447	1082.731216423885	102
6	450	1086.803921761825	103
6	453	1095.123375153406	104
6	456	1109.846238646829	105
6	461	1120.909771401393	106
6	462	1122.524642684454	107
6	465	1128.071439077795	108
6	474	1133.435678072029	109
6	498	1162.106714216038	110
6	499	1162.798270416052	111
6	500	1163.00600349665	112
6	501	1163.508759848157	113
6	502	1165.669065688106	114
6	514	1180.781351017712	115
6	515	1183.83345206483	116
6	516	1186.074416323749	117
6	517	1186.185998920998	118
6	520	1187.723966849803	119
6	523	1193.045290265506	120
6	524	1193.550730784904	121
6	525	1193.562399778172	122
6	528	1202.959093736637	123
6	539	1219.047099583443	124
6	540	1219.263889836701	125
6	546	1230.681184477476	126
6	549	1235.38998114903	127
6	555	1241.890328864101	128
6	564	1270.923774844179	129
6	577	1301.689478051343	130
6	586	1326.722813865733	131
6	587	1327.348613121607	132
6	588	1336.352537203095	133
6	605	1395.955190904396	134
6	606	1398.436881074082	135
6	612	1407.357514025535	136
6	631	1445.011806951118	137
6	632	1445.242238309623	138
6	633	1447.003875214787	139
6	636	1448.179403482476	140
6	639	1450.987147403275	141
6	651	1470.307985434896	142
6	652	1471.020531593109	143
6	653	1471.200543220841	144
6	654	1472.507001837395	145
6	660	1475.801086191384	146
6	663	1481.161556966588	147
6	686	1573.948379036575	148
6	687	1574.124117112265	149
6	688	1574.314476526175	150
6	691	1575.941537156548	151
6	692	1576.149540542194	152
6	693	1577.446125446534	153
6	696	1594.238397864499	154
6	702	1600.631956235203	155
6	711	1614.352356688785	156
6	714	1622.148091427289	157
6	717	1631.917161120998	158
6	720	1645.059544910421	159
6	723	1669.983143813134	160
6	726	1685.564751727029	161
6	745	1751.360037711828	162
6	746	1751.679512051061	163
6	747	1752.943261472219	164
6	761	1793.18124711253	165
6	762	1793.589027109154	166
6	768	1809.833784063861	167
6	781	1828.553107562167	168
6	782	1828.750421228136	169
6	783	1829.983038371139	170
6	786	1838.463655155062	171
6	794	1855.02708651737	172
6	799	1857.908086803916	173
6	800	1858.123033505698	174
6	801	1858.671197957146	175
6	804	1860.698641970863	176
6	810	1874.047138633889	177
6	818	1899.825433648236	178
6	821	1904.632897483999	179
6	822	1908.148634016084	180
6	837	1948.021739676232	181
6	838	1950.500894871575	182
6	841	1951.402478860928	183
6	842	1951.758700237397	184
6	843	1952.037027503779	185
6	852	1971.758624661943	186
6	855	1976.814212093243	187
6	858	1986.179162107766	188
6	861	2008.882830614631	189
6	864	2015.630623726726	190
6	870	2024.049586019601	191
6	873	2031.367727902779	192
6	876	2040.438018960105	193
6	879	2041.489463318459	194
6	882	2054.932428802739	195
6	894	2069.628392397551	196
6	895	2070.593322933787	197
6	896	2072.005143072461	198
6	901	2074.170352181439	199
6	902	2077.245932841945	200
6	903	2079.789911321149	201
6	906	2084.569942609945	202
6	909	2122.401812348981	203
6	915	2143.170932855225	204
6	929	2187.740936126106	205
6	930	2189.095500619045	206
6	933	2190.936081008891	207
6	938	2194.852968162773	208
6	941	2195.544968836113	209
6	942	2202.240028435357	210
6	945	2211.532778224092	211
6	948	2215.48834327651	212
6	951	2228.937038585922	213
6	954	2252.598649005597	214
6	957	2254.98566017179	215
6	960	2257.050852180854	216
6	963	2258.546260550552	217
6	969	2273.558891099066	218
6	972	2282.17944266903	219
6	975	2285.383231570412	220
6	980	2294.758783973609	221
6	981	2296.314790739311	222
6	990	2318.042432949946	223
6	993	2327.107384358804	224
6	1014	2376.047547893514	225
6	1017	2379.64861768594	226
6	1018	2380.617998523046	227
6	1019	2381.093212348068	228
6	1020	2382.565099892803	229
6	1023	2399.341891578833	230
6	1035	2419.56108109834	231
6	1036	2419.588228092591	232
6	1037	2423.362369979151	233
6	1038	2426.273067648301	234
6	1046	2460.819027412576	235
6	1047	2460.906953757645	236
6	1053	2468.512530128536	237
6	1056	2469.57899237722	238
6	1059	2479.534476935409	239
6	1064	2493.627524604247	240
6	1065	2494.641848176392	241
7	153	356.253399484715	1.219453949024
7	161	366.793851149988	5.946202885543
7	162	367.669632672771	1.850604773417
7	165	387.35901207925	0.263293337239
7	174	410.765229810845	12.677171737366
7	179	414.533978806884	3.114300356745
7	180	417.45325371316	4.359826327635
7	183	425.643977897904	0.080354437913
7	188	438.253505667563	0.587046548107
7	189	445.549332921342	7.519636237
7	194	448.65222098458	0.837142861585
7	195	448.818865235512	0.804502248934
7	198	463.448454388068	2.728979580186
7	206	473.306812975044	8.02952251876
7	207	475.253274843068	6.939521146598
7	213	476.704176327496	0.111821155554
7	216	481.199264789656	0.199302682296
7	219	494.722108021872	0.029069420985
7	225	517.633977712168	7.04264864294
7	228	525.585176195121	1.91650512772
7	231	532.772958171448	5.174664077704
7	240	573.90649506	0.063525164643
7	243	578.816845849972	0.361408322003
7	246	611.583653655028	0.028239970611
7	257	627.959366664721	12.020013949763
7	258	628.089236526578	4.160465265083
7	261	643.945578776336	3.271603396877
7	275	688.455701281458	3.332765402985
7	276	688.461347885077	1.350386480825
7	279	695.070181347174	0.840921424383
7	282	701.457605348506	0.012846571482
7	285	705.778978907484	0.029891376047
7	291	729.010371610061	3.788677703261
7	294	752.933544549588	0.928919440292
7	297	755.822637574425	0.336702500988
7	303	760.598363469383	2.026111294755
7	312	805.202407241229	5.058322245855
7	318	807.778275929858	1.640344639175
7	321	809.070852857598	1.250753362509
7	344	851.718963769809	37.126257434977
7	350	859.038866514082	40.912472134254
7	353	861.750786622574	27.433952362091
7	354	865.129679280882	17.895628804793
7	355	865.679517843616	13.89305703144
7	356	868.888130160408	16.827181941757
7	357	871.20576465017	10.606767828379
7	360	895.850507788587	0.902506383194
7	363	898.286333791169	1.636073819224
7	381	946.806900998793	11.986941935687
7	384	953.114016490002	2.872711591941
7	387	958.226107942388	0.163475114689
7	390	961.049089596105	1.179170366035
7	393	976.995456261799	0.219628739289
7	396	990.744782291838	0.32998168903
7	402	1004.254289943892	1.794392794055
7	407	1006.621459318842	1.160590379134
7	408	1007.859610046875	1.408523833311
7	414	1021.465910506527	1.061751729857
7	430	1036.649060967282	5.776926940093
7	431	1037.136320990527	4.883924399882
7	432	1038.18837133603	5.135083817922
7	438	1050.285911675192	16.675311087009
7	439	1052.257471417367	16.703967963755
7	440	1053.563716005664	15.025469418875
7	441	1055.219007722409	13.978958821996
7	444	1077.263743995775	1.769964566547
7	447	1082.731216423885	0.61620238229
7	450	1086.803921761825	1.371679588493
7	453	1095.123375153406	3.109110145378
7	456	1109.846238646829	0.327677726512
7	461	1120.909771401393	6.220833411041
7	462	1122.524642684454	3.181055603757
7	465	1128.071439077795	3.756659755956
7	474	1133.435678072029	2.465150226602
7	498	1162.106714216038	18.325053600154
7	499	1162.798270416052	16.929275023651
7	500	1163.00600349665	9.27552119188
7	501	1163.508759848157	8.120853175698
7	502	1165.669065688106	4.934866387752
7	514	1180.781351017712	19.38510193313
7	515	1183.83345206483	17.288134497684
7	516	1186.074416323749	18.541813901049
7	517	1186.185998920998	18.587946070613
7	520	1187.723966849803	19.730051357378
7	523	1193.045290265506	19.843854500626
7	524	1193.550730784904	7.131983217408
7	525	1193.562399778172	3.615171596583
7	528	1202.959093736637	1.639252734668
7	539	1219.047099583443	2.526429645814
7	540	1219.263889836701	1.163884501135
7	546	1230.681184477476	3.195301282804
7	549	1235.38998114903	1.023794154885
7	555	1241.890328864101	5.246511946278
7	564	1270.923774844179	1.560864349457
7	577	1301.689478051343	18.634553556531
7	586	1326.722813865733	29.653497401808
7	587	1327.348613121607	22.112911350205
7	588	1336.352537203095	11.705145384992
7	605	1395.955190904396	21.898533106455
7	606	1398.436881074082	20.414274455653
7	612	1407.357514025535	8.089680734612
7	631	1445.011806951118	27.192972770772
7	632	1445.242238309623	26.51036393726
7	633	1447.003875214787	7.61492684513
7	636	1448.179403482476	0.670321482771
7	639	1450.987147403275	1.84423285478
7	651	1470.307985434896	14.082714051308
7	652	1471.020531593109	14.619589957807
7	653	1471.200543220841	9.235489548313
7	654	1472.507001837395	4.835970828775
7	660	1475.801086191384	1.285278336112
7	663	1481.161556966588	1.483721327034
7	686	1573.948379036575	19.589430523933
7	687	1574.124117112265	15.7034211218
7	688	1574.314476526175	11.849529877913
7	691	1575.941537156548	13.11344708174
7	692	1576.149540542194	3.955161942736
7	693	1577.446125446534	2.740994493965
7	696	1594.238397864499	0.061460992567
7	702	1600.631956235203	1.923641213917
7	711	1614.352356688785	0.44908363939
7	714	1622.148091427289	0.744426612579
7	717	1631.917161120998	1.675530332627
7	720	1645.059544910421	0.799458430623
7	723	1669.983143813134	0.151049299189
7	726	1685.564751727029	3.953680565186
7	745	1751.360037711828	36.719390860616
7	746	1751.679512051061	30.370908870431
7	747	1752.943261472219	9.754087786913
7	761	1793.18124711253	26.954364939835
7	762	1793.589027109154	13.603653801094
7	768	1809.833784063861	2.009818788883
7	781	1828.553107562167	4.100881001722
7	782	1828.750421228136	2.201441951717
7	783	1829.983038371139	3.331161127251
7	786	1838.463655155062	0.32868893944
7	794	1855.02708651737	7.734071040013
7	799	1857.908086803916	3.931848545324
7	800	1858.123033505698	3.016281959988
7	801	1858.671197957146	1.039619471273
7	804	1860.698641970863	0.091956718932
7	810	1874.047138633889	7.473069961914
7	818	1899.825433648236	17.557097511088
7	821	1904.632897483999	16.701325032077
7	822	1908.148634016084	4.65137451456
7	837	1948.021739676232	10.575779293063
7	838	1950.500894871575	11.641196342386
7	841	1951.402478860928	10.226148996545
7	842	1951.758700237397	8.222575600152
7	843	1952.037027503779	1.252295018011
7	852	1971.758624661943	3.964230101785
7	855	1976.814212093243	0.527045303852
7	858	1986.179162107766	0.281891403914
7	861	2008.882830614631	1.163331625813
7	864	2015.630623726726	5.453354766917
7	870	2024.049586019601	2.147874265095
7	873	2031.367727902779	0.064302208809
7	876	2040.438018960105	3.30183935201
7	879	2041.489463318459	0.67993280765
7	882	2054.932428802739	1.258291285554
7	894	2069.628392397551	9.811773282748
7	895	2070.593322933787	10.144545430276
7	896	2072.005143072461	8.946547294925
7	901	2074.170352181439	10.776163007216
7	902	2077.245932841945	5.169293019515
7	903	2079.789911321149	7.030672147223
7	906	2084.569942609945	1.294408397158
7	909	2122.401812348981	0.240473208352
7	915	2143.170932855225	2.390194800945
7	929	2187.740936126106	24.403604872641
7	930	2189.095500619045	11.346874531485
7	933	2190.936081008891	1.302269098835
7	938	2194.852968162773	1.082768389372
7	941	2195.544968836113	0.7257870598
7	942	2202.240028435357	6.774113442478
7	945	2211.532778224092	0.221011528721
7	948	2215.48834327651	0.183957192845
7	951	2228.937038585922	2.932819078826
7	954	2252.598649005597	1.373870085112
7	957	2254.98566017179	0.488204055212
7	960	2257.050852180854	0.202982377847
7	963	2258.546260550552	0.831763638539
7	969	2273.558891099066	0.35696561643
7	972	2282.17944266903	1.986532376142
7	975	2285.383231570412	0.661684509224
7	980	2294.758783973609	7.183292047471
7	981	2296.314790739311	8.4466595474
7	990	2318.042432949946	17.763233320822
7	993	2327.107384358804	1.133180771949
7	1014	2376.047547893514	41.736641818773
7	1017	2379.64861768594	45.263791842871
7	1018	2380.617998523046	36.96053501246
7	1019	2381.093212348068	15.570608973388
7	1020	2382.565099892803	4.810078705226
7	1023	2399.341891578833	0.93559184379
7	1035	2419.56108109834	8.934534842966
7	1036	2419.588228092591	8.686862228991
7	1037	2423.362369979151	9.812510771149
7	1038	2426.273067648301	7.415342514037
7	1046	2460.819027412576	1.872894398524
7	1047	2460.906953757645	1.594705739646
7	1053	2468.512530128536	4.370861476203
7	1056	2469.57899237722	0.509277404257
7	1059	2479.534476935409	1.050309878087
7	1064	2493.627524604247	2.443094824169
7	1065	2494.641848176392	1.641284675844
8	155	357.206506079018	1
8	167	391.047324288703	1
8	170	395.908292557247	1
8	202	465.277290456284	1
8	209	475.393105182559	1
8	221	506.499791779649	1
8	233	552.180011467169	1
8	235	561.762733894234	2
8	248	615.348425057337	1
8	252	618.900269317537	2
8	263	659.041663215175	1
8	265	674.896049565265	2
8	269	682.19995766715	1
8	287	712.477119971921	1
8	301	758.572252174628	1
8	305	765.706999917469	1
8	308	784.978755077148	1
8	316	806.137931290683	1
8	325	814.592706334832	1
8	331	821.626426792798	2
8	334	824.836198466085	2
8	336	825.499667755023	3
8	348	852.060948218651	1
8	365	911.483787810045	1
8	368	917.070564889174	1
8	370	920.385567146477	2
8	375	935.754445185036	2
8	378	942.293628006038	2
8	398	999.060599541854	1
8	410	1016.150775054257	1
8	416	1022.394637542636	1
8	434	1038.538246586789	1
8	467	1129.314636342715	1
8	472	1130.970527845427	1
8	476	1135.120469468102	1
8	479	1138.721968208374	1
8	481	1140.538363023018	2
8	504	1166.545317567146	1
8	530	1212.235030563073	1
8	532	1214.859992130296	2
8	544	1227.485883194672	1
8	553	1236.643816917823	1
8	557	1245.185824588694	1
8	559	1245.473148778668	2
8	566	1272.319734415131	1
8	570	1286.83813706964	2
8	579	1305.235701771402	1
8	581	1310.732245537385	2
8	590	1351.241493944332	1
8	593	1365.328541869756	1
8	597	1375.741575967684	2
8	601	1385.026190838092	3
8	610	1399.267833290923	1
8	614	1408.531804252156	1
8	617	1416.866283432641	1
8	623	1427.924704791414	2
8	626	1434.313057492983	2
8	641	1451.59723784495	1
8	656	1473.378666856534	1
8	665	1491.689037357241	1
8	668	1538.272590616996	1
8	671	1553.901690264833	1
8	677	1558.54260141757	2
8	698	1595.681554309851	1
8	704	1603.998637226888	1
8	706	1610.690213821691	2
8	728	1706.356756001619	1
8	730	1708.08451424638	2
8	739	1721.710537312419	2
8	743	1743.189173685306	1
8	749	1753.349503705846	1
8	752	1758.340419657439	1
8	756	1770.084095394452	2
8	764	1804.85575399758	1
8	770	1814.320946502234	1
8	775	1824.452226560445	1
8	788	1844.071205200833	1
8	808	1866.574068671975	1
8	814	1882.268336137148	1
8	824	1930.068896973113	1
8	826	1932.893391889637	2
8	845	1955.889998953772	1
8	847	1959.222495235312	2
8	866	2015.913112375529	1
8	884	2059.313257916285	1
8	911	2130.479222310669	1
8	917	2152.854575283436	1
8	921	2170.102954966602	2
8	923	2172.239960610976	3
8	965	2263.481900039759	1
8	985	2300.279199629124	1
8	987	2306.50332956852	2
8	995	2330.823323660804	1
8	1003	2347.179264871828	2
8	1008	2366.470211685635	2
8	1010	2366.72911705343	3
8	1029	2410.9013658636	1
8	1040	2438.53470917593	1
8	1051	2464.141668652333	1
9	155	357.206506079018	0
9	167	391.047324288703	0
9	170	395.908292557247	0
9	202	465.277290456284	0
9	209	475.393105182559	0
9	221	506.499791779649	0
9	233	552.180011467169	0
9	236	561.811643029764	0.04890913553
9	248	615.348425057337	0
9	253	622.701318215022	3.801048897485
9	263	659.041663215175	0
9	266	677.457724039161	2.561674473896
9	269	682.19995766715	0
9	287	712.477119971921	0
9	301	758.572252174628	0
9	305	765.706999917469	0
9	308	784.978755077148	0
9	316	806.137931290683	0
9	325	814.592706334832	0
9	332	824.257940788238	2.63151399544
9	337	829.061962145975	4.22576367989
9	342	848.803187020016	23.303519264993
9	348	852.060948218651	0
9	365	911.483787810045	0
9	368	917.070564889174	0
9	371	925.069339406607	4.68377226013
9	376	938.730338457197	2.975893272161
9	379	943.011387183848	0.71775917781
9	398	999.060599541854	0
9	410	1016.150775054257	0
9	416	1022.394637542636	0
9	434	1038.538246586789	0
9	467	1129.314636342715	0
9	472	1130.970527845427	0
9	476	1135.120469468102	0
9	479	1138.721968208374	0
9	490	1159.155313945228	18.61695092221
9	504	1166.545317567146	0
9	530	1212.235030563073	0
9	533	1215.265401609056	0.40540947876
9	544	1227.485883194672	0
9	553	1236.643816917823	0
9	557	1245.185824588694	0
9	560	1260.845839028775	15.372690250107
9	566	1272.319734415131	0
9	571	1290.824899385997	3.986762316357
9	579	1305.235701771402	0
9	582	1317.637598748962	6.905353211577
9	590	1351.241493944332	0
9	593	1365.328541869756	0
9	602	1389.808914307614	14.06733833993
9	603	1390.854428313298	5.828237475206
9	610	1399.267833290923	0
9	614	1408.531804252156	0
9	617	1416.866283432641	0
9	624	1432.37249924304	4.447794451626
9	629	1440.039636376085	5.726578883102
9	641	1451.59723784495	0
9	656	1473.378666856534	0
9	665	1491.689037357241	0
9	668	1538.272590616996	0
9	671	1553.901690264833	0
9	678	1559.65185385201	1.10925243444
9	698	1595.681554309851	0
9	704	1603.998637226888	0
9	707	1612.09521758021	1.405003758519
9	728	1706.356756001619	0
9	731	1713.117992742494	5.033478496114
9	740	1733.662145824561	11.951608512142
9	743	1743.189173685306	0
9	749	1753.349503705846	0
9	752	1758.340419657439	0
9	759	1780.801818915939	10.717723521487
9	764	1804.85575399758	0
9	770	1814.320946502234	0
9	775	1824.452226560445	0
9	788	1844.071205200833	0
9	808	1866.574068671975	0
9	814	1882.268336137148	0
9	824	1930.068896973113	0
9	829	1938.427142060476	5.533750170839
9	845	1955.889998953772	0
9	848	1966.70349461974	7.480999384428
9	866	2015.913112375529	0
9	884	2059.313257916285	0
9	911	2130.479222310669	0
9	917	2152.854575283436	0
9	926	2180.152275260324	10.049320293722
9	927	2181.829494982635	9.589534371659
9	965	2263.481900039759	0
9	985	2300.279199629124	0
9	988	2307.908154571976	1.404825003456
9	995	2330.823323660804	0
9	1004	2351.834673400671	4.655408528843
9	1011	2371.056107874525	4.58589618889
9	1012	2372.25811865008	5.52900159665
9	1029	2410.9013658636	0
9	1040	2438.53470917593	0
9	1051	2464.141668652333	0
10	202	465.277290456284	2
10	301	758.572252174628	3
10	316	806.137931290683	4
10	325	814.592706334832	5
10	348	852.060948218651	6
10	434	1038.538246586789	7
10	472	1130.970527845427	8
10	504	1166.545317567146	9
10	544	1227.485883194672	10
10	553	1236.643816917823	11
10	579	1305.235701771402	12
10	610	1399.267833290923	13
10	743	1743.189173685306	14
10	775	1824.452226560445	15
10	808	1866.574068671975	16
10	814	1882.268336137148	17
10	985	2300.279199629124	18
10	1029	2410.9013658636	19
10	1051	2464.141668652333	20
11	1066	2500	0.0964
12	1066	2500	0.0456

