file 64187 1678273589                                           
version 2
run experiments_easy_game_mode1-1285-20230308-12:06:29-25210
attr configname experiments_easy_game_mode1
attr datetime 20230308-12:06:29
attr experiment experiments_easy_game_mode1
attr inifile omnetpp.ini
attr iterationvars "$0=6.5, $1=2.5, $2=0"
attr iterationvarsf 6.5,2.5,0-
attr measurement "$0=6.5, $1=2.5, $2=0"
attr network Network
attr processid 25210
attr repetition 25
attr replication #25
attr resultdir results
attr runnumber 1285
attr seedset 25
param *.boss.arrival_mean 20
param *.boss.service_mean 6.5
param *.minion.arrival_mean 10
param *.minion.service_mean 2.5
param *.player.recover_rate_x 0
param **.minion.arrival_distribution 0
param **.minion.service_distribution 0
param **.boss.arrival_distribution 0
param **.boss.service_distribution 0

vector 0 Network.player minion_jobs_number_stat:vector ETV
attr source signal_minion_jobs_number
vector 1 Network.player minion_jobs_queue_number_stat:vector ETV
attr source signal_minion_jobs_queue_number
vector 2 Network.player minion_waiting_time_stat:vector ETV
attr source signal_minion_waiting_time
vector 3 Network.player minion_defeated_stat:vector ETV
attr source signal_minion_defeated
vector 4 Network.player minion_response_time_stat:vector ETV
attr source signal_minion_response_time
vector 5 Network.player boss_jobs_number_stat:vector ETV
attr source signal_boss_jobs_number
vector 6 Network.player boss_jobs_queue_number_stat:vector ETV
attr source signal_boss_jobs_queue_number
vector 7 Network.player boss_waiting_time_stat:vector ETV
attr source signal_boss_waiting_time
vector 8 Network.player boss_defeated_stat:vector ETV
attr source signal_boss_defeated
vector 9 Network.player boss_response_time_stat:vector ETV
attr source signal_boss_response_time
vector 10 Network.player minion_recovered_stat:vector ETV
attr source signal_minion_recovered
vector 11 Network.player minion_throughput:vector ETV
attr source signal_minion_throughput
vector 12 Network.player boss_throughput:vector ETV
attr source signal_boss_throughput
0	2023 5947 191 1211 362.268301555052 2498.954044201238 231 1 11 516 2184
1	7970 11883 191 1211 362.268301555052 2498.954044201238 461 0 10 570 2766
2	19853 8994 191 1211 362.268301555052 2498.954044201238 267 0 65.342602895367 2082.6972814906 59523.189474682
3	28847 6338 192 1209 364.092142170053 2498.538871760525 230 43 272 36225 6719335
4	35185 8967 192 1209 364.092142170053 2498.538871760525 230 0.023181262001 67.180993845208 2382.370413026 66911.454963404
5	44152 2838 200 1200 407.023051346512 2475.119593842137 110 1 4 146 236
6	46990 5672 200 1201 407.023051346512 2489.882758343828 220 0 3 72 108
7	52662 3222 200 1200 407.023051346512 2475.119593842137 110 0 24.145911255018 233.12635066319 3364.076485674
8	55884 2976 201 1201 409.826174008534 2489.882758343828 110 22 131 8415 754655
9	58860 4282 201 1201 409.826174008534 2489.882758343828 110 0.017433063776 31.748325480345 894.45481522712 13560.490656274
10	63142 1004 229 1200 451.986862219571 2475.119593842137 36 15 50 1170 41910
11	64146 20 1212 1212 2500 2500 1 0.1088 0.1088 0.1088 0.01183744
12	64166 20 1212 1212 2500 2500 1 0.0524 0.0524 0.0524 0.00274576

