version 2
run experiments_easy_game_mode1-663-20230308-12:04:12-21732
attr configname experiments_easy_game_mode1
attr datetime 20230308-12:04:12
attr experiment experiments_easy_game_mode1
attr inifile omnetpp.ini
attr iterationvars "$0=5.5, $1=3.5, $2=0"
attr iterationvarsf 5.5,3.5,0-
attr measurement "$0=5.5, $1=3.5, $2=0"
attr network Network
attr processid 21732
attr repetition 3
attr replication #3
attr resultdir results
attr runnumber 663
attr seedset 3
param *.boss.arrival_mean 20
param *.boss.service_mean 5.5
param *.minion.arrival_mean 10
param *.minion.service_mean 3.5
param *.player.recover_rate_x 0
param **.minion.arrival_distribution 0
param **.minion.service_distribution 0
param **.boss.arrival_distribution 0
param **.boss.service_distribution 0

vector 0 Network.player boss_defeated_stat:vector ETV
attr source signal_boss_defeated
vector 1 Network.player boss_jobs_queue_number_stat:vector ETV
attr source signal_boss_jobs_queue_number
vector 2 Network.player boss_response_time_stat:vector ETV
attr source signal_boss_response_time
vector 3 Network.player minion_jobs_number_stat:vector ETV
attr source signal_minion_jobs_number
vector 4 Network.player minion_jobs_queue_number_stat:vector ETV
attr source signal_minion_jobs_queue_number
vector 5 Network.player minion_waiting_time_stat:vector ETV
attr source signal_minion_waiting_time
vector 6 Network.player minion_defeated_stat:vector ETV
attr source signal_minion_defeated
vector 7 Network.player minion_response_time_stat:vector ETV
attr source signal_minion_response_time
vector 8 Network.player boss_jobs_number_stat:vector ETV
attr source signal_boss_jobs_number
vector 9 Network.player minion_recovered_stat:vector ETV
attr source signal_minion_recovered
vector 10 Network.player boss_waiting_time_stat:vector ETV
attr source signal_boss_waiting_time
vector 11 Network.player minion_throughput:vector ETV
attr source signal_minion_throughput
vector 12 Network.player boss_throughput:vector ETV
attr source signal_boss_throughput
0	159	359.136816327048	20
0	172	394.390403984467	21
0	175	396.153388215198	22
0	179	406.037428163507	23
0	182	413.871900018616	24
0	190	432.477432067585	25
0	217	497.743492654835	26
0	224	508.786343731611	27
0	235	531.684827908059	28
0	242	540.734951404664	29
0	243	543.753667995404	30
0	244	545.053975340319	31
0	249	554.915611920493	32
0	272	590.678812022541	33
0	280	604.876114829767	34
0	286	607.783705438894	35
0	315	710.685459787433	36
0	318	730.631565773891	37
0	324	736.23100583932	38
0	331	765.583649621124	39
0	363	841.34663597488	40
0	379	915.66596449989	41
0	380	925.203174014506	42
0	383	927.768753768776	43
0	384	929.418550478823	44
0	391	937.279396742635	45
0	392	937.782421171104	46
0	395	943.929533782649	47
0	415	1009.041639985493	48
0	420	1017.181277033756	49
0	430	1030.304522699678	50
0	438	1050.45918976751	51
0	439	1051.882552523075	52
0	446	1061.328647983549	53
0	450	1066.765685095048	54
0	470	1088.03547744255	55
0	474	1093.091370830266	56
0	479	1095.611697217038	57
0	488	1122.666301923088	58
0	494	1132.147399521696	59
0	503	1139.314514094323	60
0	525	1177.289035238016	61
0	571	1258.979103411533	62
0	572	1263.22311825397	63
0	573	1268.170782738376	64
0	586	1292.36755001107	65
0	591	1301.832225849147	66
0	592	1304.32413190458	67
0	610	1347.929260973257	68
0	619	1368.885978416957	69
0	641	1411.400351972116	70
0	653	1439.30934628213	71
0	658	1448.948510106632	72
0	661	1451.944337167082	73
0	671	1476.220530616012	74
0	696	1567.613361396599	75
0	708	1590.366594416289	76
0	715	1602.953461426384	77
0	743	1682.997785874293	78
0	747	1689.286418803202	79
0	756	1717.886279037649	80
0	757	1718.34288212978	81
0	763	1726.555020026771	82
0	778	1745.969726830844	83
0	796	1786.71281540221	84
0	799	1788.743586198703	85
0	812	1802.188357127352	86
0	815	1808.731532835348	87
0	816	1809.716715979004	88
0	817	1809.87947490077	89
0	848	1921.557477069763	90
0	890	2056.315823322022	91
0	908	2082.494955242757	92
0	909	2083.277575607307	93
0	920	2117.076212179435	94
0	923	2121.248021392062	95
0	930	2144.362811039447	96
0	948	2174.915724527676	97
0	953	2178.111140236594	98
0	986	2238.010192104272	99
0	999	2261.278577817117	100
0	1012	2285.043355824681	101
0	1015	2287.328700879789	102
0	1018	2289.529406417497	103
0	1019	2290.858815111348	104
0	1020	2292.054739902508	105
0	1027	2301.558428965186	106
0	1030	2307.895305167988	107
0	1043	2315.521356234161	108
0	1092	2423.399802366215	109
0	1114	2460.33533255147	110
0	1121	2468.44338296426	111
0	1122	2470.714960824686	112
0	1125	2479.345856337852	113
1	159	359.136816327048	0
1	169	380.659473743649	0
1	172	394.390403984467	0
1	174	395.971694417465	0
1	175	396.153388215198	0
1	178	404.35044228479	0
1	179	406.037428163507	0
1	181	410.037356174797	0
1	182	413.871900018616	0
1	185	425.519679098172	0
1	190	432.477432067585	0
1	212	493.340900375065	0
1	214	493.458722537011	1
1	216	496.742594609582	2
1	217	497.743492654835	2
1	224	508.786343731611	1
1	228	519.107824800269	1
1	232	524.050395342014	2
1	234	528.76545634016	3
1	235	531.684827908059	3
1	239	535.742612840699	3
1	242	540.734951404664	3
1	243	543.753667995404	2
1	244	545.053975340319	1
1	249	554.915611920493	0
1	271	589.672238161967	0
1	272	590.678812022541	0
1	279	598.144708626378	0
1	280	604.876114829767	0
1	285	607.520627601297	0
1	286	607.783705438894	0
1	314	702.49001005566	0
1	315	710.685459787433	0
1	317	730.410353463151	0
1	318	730.631565773891	0
1	323	735.549137058382	0
1	324	736.23100583932	0
1	330	764.354773011734	0
1	331	765.583649621124	0
1	362	838.86047744023	0
1	363	841.34663597488	0
1	368	879.741882111558	0
1	370	882.113317559985	1
1	372	884.446492488943	2
1	374	888.24560307094	3
1	376	895.381730109802	4
1	379	915.66596449989	4
1	380	925.203174014506	3
1	382	927.517978306195	3
1	383	927.768753768776	3
1	384	929.418550478823	2
1	391	937.279396742635	1
1	392	937.782421171104	0
1	394	940.401529101434	0
1	395	943.929533782649	0
1	412	990.909014986853	0
1	415	1009.041639985493	0
1	419	1013.261047276616	0
1	420	1017.181277033756	0
1	425	1028.545887104851	0
1	430	1030.304522699678	0
1	435	1034.503025313914	0
1	437	1036.534772003394	1
1	438	1050.45918976751	1
1	439	1051.882552523075	0
1	443	1060.691130510771	0
1	446	1061.328647983549	0
1	449	1063.19383248497	0
1	450	1066.765685095048	0
1	469	1084.594332712561	0
1	470	1088.03547744255	0
1	473	1090.754167319039	0
1	474	1093.091370830266	0
1	476	1094.772215871149	0
1	479	1095.611697217038	0
1	485	1120.122180825996	0
1	488	1122.666301923088	0
1	491	1127.896198946203	0
1	493	1131.632484755457	1
1	494	1132.147399521696	1
1	503	1139.314514094323	0
1	524	1175.335185131008	0
1	525	1177.289035238016	0
1	566	1256.60543472736	0
1	568	1258.346007673972	1
1	570	1258.889412571991	2
1	571	1258.979103411533	2
1	572	1263.22311825397	1
1	573	1268.170782738376	0
1	581	1286.342301461403	0
1	583	1286.57494181929	1
1	585	1287.862513521532	2
1	586	1292.36755001107	2
1	591	1301.832225849147	1
1	592	1304.32413190458	0
1	609	1337.223720075614	0
1	610	1347.929260973257	0
1	616	1363.520401318974	0
1	619	1368.885978416957	0
1	638	1406.512882744487	0
1	641	1411.400351972116	0
1	650	1433.648475926042	0
1	652	1435.347326120521	1
1	653	1439.30934628213	1
1	657	1445.829455077947	1
1	658	1448.948510106632	1
1	661	1451.944337167082	0
1	668	1469.693661528508	0
1	671	1476.220530616012	0
1	695	1564.774017558306	0
1	696	1567.613361396599	0
1	707	1588.196429206383	0
1	708	1590.366594416289	0
1	714	1600.231040489507	0
1	715	1602.953461426384	0
1	740	1682.208424127058	0
1	743	1682.997785874293	0
1	746	1686.419845939918	0
1	747	1689.286418803202	0
1	749	1707.679710106683	0
1	755	1716.345476470025	1
1	756	1717.886279037649	1
1	757	1718.34288212978	0
1	760	1720.55581185757	0
1	763	1726.555020026771	0
1	777	1745.64792178764	0
1	778	1745.969726830844	0
1	791	1779.449199170603	0
1	796	1786.71281540221	0
1	798	1788.294956596051	0
1	799	1788.743586198703	0
1	805	1797.29918631301	0
1	809	1798.359156213276	1
1	811	1799.172771781991	2
1	812	1802.188357127352	2
1	814	1806.766350733902	2
1	815	1808.731532835348	2
1	816	1809.716715979004	1
1	817	1809.87947490077	0
1	845	1917.923427135827	0
1	848	1921.557477069763	0
1	889	2052.509094390919	0
1	890	2056.315823322022	0
1	905	2075.308674587472	0
1	907	2082.099549429316	1
1	908	2082.494955242757	1
1	909	2083.277575607307	0
1	917	2108.685862315649	0
1	920	2117.076212179435	0
1	922	2121.076209533676	0
1	923	2121.248021392062	0
1	929	2142.723683495446	0
1	930	2144.362811039447	0
1	947	2169.304437475917	0
1	948	2174.915724527676	0
1	952	2177.228225124877	0
1	953	2178.111140236594	0
1	983	2234.76196218177	0
1	986	2238.010192104272	0
1	998	2260.983183628547	0
1	999	2261.278577817117	0
1	1003	2264.84038493309	0
1	1007	2268.90144810621	1
1	1009	2273.677289607649	2
1	1012	2285.043355824681	2
1	1014	2285.719432706355	2
1	1015	2287.328700879789	2
1	1017	2288.561711981572	2
1	1018	2289.529406417497	2
1	1019	2290.858815111348	1
1	1020	2292.054739902508	0
1	1022	2293.558850252091	0
1	1026	2298.239937262922	1
1	1027	2301.558428965186	1
1	1030	2307.895305167988	0
1	1040	2312.094400186417	0
1	1043	2315.521356234161	0
1	1091	2421.021190455418	0
1	1092	2423.399802366215	0
1	1103	2446.030079873069	0
1	1107	2451.694476261001	1
1	1111	2455.678417661446	2
1	1113	2458.010288498061	3
1	1114	2460.33533255147	3
1	1121	2468.44338296426	2
1	1122	2470.714960824686	1
1	1125	2479.345856337852	0
2	159	359.136816327048	11.324971318451
2	172	394.390403984467	13.730930240818
2	175	396.153388215198	0.181693797733
2	179	406.037428163507	1.686985878717
2	182	413.871900018616	3.834543843819
2	190	432.477432067585	6.957752969413
2	217	497.743492654835	4.40259227977
2	224	508.786343731611	15.3276211946
2	235	531.684827908059	34.942233298477
2	242	540.734951404664	21.627126604395
2	243	543.753667995404	19.70327265339
2	244	545.053975340319	16.288519000159
2	249	554.915611920493	19.172999079794
2	272	590.678812022541	1.006573860574
2	280	604.876114829767	6.731406203389
2	286	607.783705438894	0.263077837597
2	315	710.685459787433	8.195449731773
2	318	730.631565773891	0.22121231074
2	324	736.23100583932	0.681868780938
2	331	765.583649621124	1.22887660939
2	363	841.34663597488	2.48615853465
2	379	915.66596449989	35.924082388332
2	380	925.203174014506	43.089856454521
2	383	927.768753768776	43.322261279833
2	384	929.418550478823	41.172947407883
2	391	937.279396742635	41.897666632833
2	392	937.782421171104	10.264442864909
2	395	943.929533782649	3.528004681215
2	415	1009.041639985493	18.13262499864
2	420	1017.181277033756	3.92022975714
2	430	1030.304522699678	1.758635594827
2	438	1050.45918976751	15.956164453596
2	439	1051.882552523075	15.347780519681
2	446	1061.328647983549	0.637517472778
2	450	1066.765685095048	3.571852610078
2	470	1088.03547744255	3.441144729989
2	474	1093.091370830266	2.337203511227
2	479	1095.611697217038	0.839481345889
2	488	1122.666301923088	2.544121097092
2	494	1132.147399521696	4.251200575493
2	503	1139.314514094323	7.682029338866
2	525	1177.289035238016	1.953850107008
2	571	1258.979103411533	2.373668684173
2	572	1263.22311825397	4.877110579998
2	573	1268.170782738376	9.281370166385
2	586	1292.36755001107	6.025248549667
2	591	1301.832225849147	15.257284029857
2	592	1304.32413190458	16.461618383048
2	610	1347.929260973257	10.705540897643
2	619	1368.885978416957	5.365577097983
2	641	1411.400351972116	4.887469227629
2	653	1439.30934628213	5.660870356088
2	658	1448.948510106632	13.601183986111
2	661	1451.944337167082	6.114882089135
2	671	1476.220530616012	6.526869087504
2	696	1567.613361396599	2.839343838293
2	708	1590.366594416289	2.170165209906
2	715	1602.953461426384	2.722420936877
2	743	1682.997785874293	0.789361747235
2	747	1689.286418803202	2.866572863284
2	756	1717.886279037649	10.206568930966
2	757	1718.34288212978	1.997405659755
2	763	1726.555020026771	5.999208169201
2	778	1745.969726830844	0.321805043204
2	796	1786.71281540221	7.263616231607
2	799	1788.743586198703	0.448629602652
2	812	1802.188357127352	4.889170814342
2	815	1808.731532835348	10.372376622072
2	816	1809.716715979004	10.543944197013
2	817	1809.87947490077	3.113124166868
2	848	1921.557477069763	3.634049933936
2	890	2056.315823322022	3.806728931103
2	908	2082.494955242757	7.186280655285
2	909	2083.277575607307	1.178026177991
2	920	2117.076212179435	8.390349863786
2	923	2121.248021392062	0.171811858386
2	930	2144.362811039447	1.639127544001
2	948	2174.915724527676	5.611287051759
2	953	2178.111140236594	0.882915111717
2	986	2238.010192104272	3.248229922502
2	999	2261.278577817117	0.29539418857
2	1012	2285.043355824681	20.202970891591
2	1015	2287.328700879789	18.427252773579
2	1018	2289.529406417497	15.852116809848
2	1019	2290.858815111348	5.139382404993
2	1020	2292.054739902508	3.493027920936
2	1027	2301.558428965186	7.999578713095
2	1030	2307.895305167988	9.655367905066
2	1043	2315.521356234161	3.426956047744
2	1092	2423.399802366215	2.378611910797
2	1114	2460.33533255147	14.305252678401
2	1121	2468.44338296426	16.748906703259
2	1122	2470.714960824686	15.03654316324
2	1125	2479.345856337852	21.335567839791
3	161	361.339663494602	1
3	164	367.9828784262	1
3	167	379.513301138535	1
3	171	394.129264259982	2
3	187	425.765741351908	1
3	189	427.517811650595	2
3	192	433.606808067719	3
3	197	448.069818965425	1
3	199	456.351270045832	2
3	201	456.561563782591	3
3	206	472.719413120029	1
3	208	474.172100886485	2
3	219	502.850351250119	1
3	221	504.086422382937	2
3	223	506.614196716074	3
3	226	510.323349281481	4
3	230	522.461553090038	5
3	237	533.592296136414	6
3	241	540.522669763452	7
3	246	546.894682894063	8
3	248	549.159432880295	9
3	252	566.096778961453	9
3	259	576.022142600914	5
3	262	579.441227499843	5
3	265	580.999566973229	5
3	274	594.209352549086	2
3	276	594.753402569665	3
3	282	606.880926727436	3
3	288	608.676596580058	3
3	290	612.645161330649	4
3	296	632.76123856948	1
3	299	636.83562207702	1
3	301	637.217093321776	2
3	305	675.410655830787	1
3	307	677.865079647084	2
3	311	687.662234629069	1
3	320	730.758287029875	1
3	326	760.778512054772	1
3	328	762.676109818951	2
3	335	777.263713199375	1
3	338	778.560288534075	1
3	341	795.990510267887	1
3	344	803.875283134171	1
3	347	809.094828093027	1
3	350	814.571875706268	1
3	352	820.574063313727	2
3	356	829.945582910592	1
3	359	835.06437174103	1
3	365	850.643575561551	1
3	378	903.906946611633	1
3	386	930.044493005324	2
3	388	931.999341308693	3
3	390	935.126957832346	4
3	401	967.986976557275	1
3	404	971.614401115977	1
3	407	977.048754828475	1
3	410	990.426205312561	1
3	414	995.943592048176	2
3	422	1022.382591948731	1
3	427	1028.602936522879	1
3	429	1028.810805650015	2
3	433	1033.490433093267	2
3	445	1061.002901677937	1
3	452	1067.267288635778	1
3	455	1075.724465931961	1
3	457	1076.082481560829	2
3	461	1077.735018370196	1
3	464	1078.615384691453	1
3	466	1081.67931445012	2
3	478	1094.866445323894	1
3	482	1111.881230236583	1
3	487	1121.992740047389	1
3	496	1134.933958298035	1
3	498	1135.217004455986	2
3	500	1135.363051972741	3
3	502	1138.932231129405	4
3	507	1144.787715153364	3
3	510	1147.283264483279	3
3	515	1155.69337419801	1
3	517	1156.259289260176	2
3	519	1163.204706882349	3
3	521	1170.612254816977	4
3	529	1186.949025027116	2
3	532	1192.333899696592	2
3	534	1197.613977193519	3
3	536	1198.108177697727	4
3	538	1198.606263427609	5
3	540	1207.102040070224	6
3	547	1215.572599614181	2
3	551	1231.844375578986	1
3	554	1234.910810938707	1
3	557	1236.116699961997	1
3	560	1247.942971155498	1
3	563	1251.188053035955	1
3	575	1275.249598754447	1
3	578	1285.512833833394	1
3	588	1294.031758144982	1
3	590	1300.819020909668	2
3	596	1310.93961002616	1
3	599	1318.003070602428	1
3	602	1326.696373353387	1
3	605	1332.884941883537	1
3	607	1336.650535836356	2
3	614	1359.16404557901	1
3	618	1366.636648785843	2
3	621	1375.945051716496	3
3	625	1386.322276825134	2
3	629	1395.569428066275	1
3	632	1398.224964158521	1
3	634	1404.092529556116	2
3	636	1404.723363852476	3
3	640	1411.263528282476	4
3	645	1420.224574092024	3
3	655	1442.157175674872	1
3	660	1450.186517457622	2
3	663	1452.524777592798	3
3	670	1471.364551841377	1
3	674	1500.292962552547	1
3	677	1514.628496105396	1
3	679	1515.391585098206	2
3	683	1520.075491215183	1
3	686	1529.117938344292	1
3	689	1536.955543686046	1
3	692	1537.272009496688	1
3	698	1568.170486611142	1
3	700	1579.114421679445	2
3	703	1580.500100178335	2
3	710	1590.644250055458	1
3	712	1590.825644943243	2
3	719	1610.664425130129	1
3	722	1618.936633049524	1
3	725	1647.347486492507	1
3	728	1651.645264029249	1
3	731	1657.544440275635	1
3	734	1667.875743443595	1
3	737	1678.961085905515	1
3	742	1682.270965130991	1
3	751	1708.084792584536	1
3	753	1713.623104352338	2
3	762	1723.283784264192	2
3	765	1728.055282631709	3
3	767	1731.950005401017	4
3	769	1733.335643327318	5
3	771	1737.184569819368	6
3	780	1746.430995735594	3
3	782	1749.876436639148	4
3	784	1750.623721910651	5
3	793	1782.186823052272	1
3	795	1786.678947997071	2
3	802	1791.887006369677	2
3	807	1797.950978938951	2
3	821	1827.242154249278	1
3	824	1850.542439783431	1
3	827	1870.004880988581	1
3	830	1873.144783037164	1
3	833	1884.822081319794	1
3	835	1885.778595246252	2
3	837	1885.811529056579	3
3	840	1897.708087929202	3
3	847	1920.744293764123	1
3	851	1932.417776871576	1
3	854	1957.658186564513	1
3	856	1958.145638604626	2
3	858	1958.20490747963	3
3	861	1962.041132941032	3
3	866	1972.339259434377	1
3	869	1996.972662773382	1
3	872	2001.837521535633	1
3	875	2022.651661072584	1
3	878	2031.708678368501	1
3	880	2039.16582307412	2
3	883	2048.602623725115	2
3	887	2051.296746386859	1
3	893	2060.450138024586	1
3	896	2061.864559880863	1
3	898	2065.608353002928	2
3	901	2073.528318068424	2
3	903	2074.252666708182	3
3	914	2094.944618720664	1
3	919	2111.075776948067	1
3	926	2121.523496411099	1
3	932	2145.763574788525	1
3	935	2151.397617746221	1
3	938	2153.562706682703	1
3	941	2158.8277209331	1
3	944	2161.192638793574	1
3	950	2176.623459025381	1
3	955	2181.362624258206	2
3	957	2184.414138255062	3
3	960	2189.569960956599	3
3	965	2192.862153177103	1
3	968	2214.505848794852	1
3	970	2214.739026256483	2
3	974	2216.997427399395	1
3	977	2228.158970210153	1
3	980	2233.589270654671	1
3	985	2235.134555999138	1
3	989	2245.5746372874	1
3	992	2246.434071313046	1
3	994	2253.60115613332	2
3	1001	2264.722149296945	1
3	1005	2268.784290434962	2
3	1011	2282.192260561595	3
3	1024	2297.26438804666	4
3	1029	2306.451312004043	5
3	1032	2307.906601523895	6
3	1034	2308.451575159593	7
3	1036	2310.57992847033	8
3	1042	2313.938378685859	7
3	1045	2319.089880690129	8
3	1053	2332.875221144699	3
3	1057	2348.332552859931	2
3	1059	2353.692697809273	3
3	1061	2356.62042384619	4
3	1063	2358.091024437805	5
3	1065	2359.250582496203	6
3	1069	2366.186839445675	5
3	1075	2392.876483049199	2
3	1078	2394.55395121754	2
3	1080	2395.905132468107	3
3	1082	2396.699003818489	4
3	1086	2405.987835363148	3
3	1094	2431.543350033688	1
3	1097	2434.969970675909	1
3	1100	2436.854714053433	1
3	1105	2446.703873746544	1
3	1109	2453.818389630889	2
3	1116	2464.591085000307	3
3	1118	2466.762044446235	4
3	1120	2467.46333134511	5
3	1124	2475.219092225462	6
3	1127	2479.611011255182	7
3	1132	2495.728823675633	5
3	1134	2499.804357768263	6
4	161	361.339663494602	0
4	162	363.986530271653	0
4	164	367.9828784262	0
4	165	369.477618569673	0
4	167	379.513301138535	0
4	171	394.129264259982	1
4	176	396.186488933666	1
4	183	416.472564371503	0
4	187	425.765741351908	0
4	189	427.517811650595	1
4	192	433.606808067719	2
4	193	435.81326466097	2
4	194	437.36616924325	1
4	195	438.062057056118	0
4	197	448.069818965425	0
4	199	456.351270045832	1
4	201	456.561563782591	2
4	202	458.492042133095	2
4	203	462.983464812344	1
4	204	463.843664710419	0
4	206	472.719413120029	0
4	208	474.172100886485	1
4	209	482.514617012789	1
4	210	483.861304411455	0
4	219	502.850351250119	0
4	221	504.086422382937	1
4	223	506.614196716074	2
4	226	510.323349281481	3
4	230	522.461553090038	4
4	237	533.592296136414	5
4	241	540.522669763452	6
4	246	546.894682894063	7
4	248	549.159432880295	8
4	250	557.621219864665	8
4	252	566.096778961453	8
4	253	566.365144103227	8
4	254	568.588128587841	7
4	255	568.701611461822	6
4	256	572.129221488112	5
4	257	572.364768576848	4
4	259	576.022142600914	4
4	260	576.461405027082	4
4	262	579.441227499843	4
4	263	579.939670798538	4
4	265	580.999566973229	4
4	266	581.132309219332	4
4	267	588.377287912165	3
4	268	588.567280573226	2
4	269	588.597919340751	1
4	274	594.209352549086	1
4	276	594.753402569665	2
4	277	595.028144327608	2
4	282	606.880926727436	2
4	283	607.487879909272	2
4	288	608.676596580058	2
4	290	612.645161330649	3
4	291	613.648997368613	3
4	292	615.304121993011	2
4	293	616.071290105052	1
4	294	616.346871220833	0
4	296	632.76123856948	0
4	297	635.926540177741	0
4	299	636.83562207702	0
4	301	637.217093321776	1
4	302	640.575155618537	1
4	303	643.316546674096	0
4	305	675.410655830787	0
4	307	677.865079647084	1
4	308	677.902114410092	1
4	309	680.004046416129	0
4	311	687.662234629069	0
4	312	689.950192496873	0
4	320	730.758287029875	0
4	321	733.266308960363	0
4	326	760.778512054772	0
4	328	762.676109818951	1
4	332	769.444828993647	1
4	333	776.767335794782	0
4	335	777.263713199375	0
4	336	777.263755332778	0
4	338	778.560288534075	0
4	339	779.001172883777	0
4	341	795.990510267887	0
4	342	796.983326471162	0
4	344	803.875283134171	0
4	345	804.289159217578	0
4	347	809.094828093027	0
4	348	813.454438675811	0
4	350	814.571875706268	0
4	352	820.574063313727	1
4	353	820.913354679966	1
4	354	822.286837284242	0
4	356	829.945582910592	0
4	357	831.056458947707	0
4	359	835.06437174103	0
4	360	836.199565283642	0
4	365	850.643575561551	0
4	366	854.012784342693	0
4	378	903.906946611633	0
4	386	930.044493005324	1
4	388	931.999341308693	2
4	390	935.126957832346	3
4	396	947.047218761414	3
4	397	955.824474466008	2
4	398	959.885185063669	1
4	399	961.427244879109	0
4	401	967.986976557275	0
4	402	968.968178241073	0
4	404	971.614401115977	0
4	405	972.863857946367	0
4	407	977.048754828475	0
4	408	979.193021503883	0
4	410	990.426205312561	0
4	414	995.943592048176	1
4	416	1011.98157762886	1
4	417	1013.002458692245	0
4	422	1022.382591948731	0
4	423	1022.708555727862	0
4	427	1028.602936522879	0
4	429	1028.810805650015	1
4	431	1031.973886328065	1
4	433	1033.490433093267	1
4	440	1055.129511930662	1
4	441	1055.300153328708	0
4	445	1061.002901677937	0
4	447	1061.570359112721	0
4	452	1067.267288635778	0
4	453	1072.44754153559	0
4	455	1075.724465931961	0
4	457	1076.082481560829	1
4	458	1076.873173094901	1
4	459	1077.119341912272	0
4	461	1077.735018370196	0
4	462	1078.147583842591	0
4	464	1078.615384691453	0
4	466	1081.67931445012	1
4	467	1082.670601148456	1
4	471	1088.854192821043	0
4	478	1094.866445323894	0
4	480	1098.392967681255	0
4	482	1111.881230236583	0
4	483	1115.319049092932	0
4	487	1121.992740047389	0
4	489	1123.185995308242	0
4	496	1134.933958298035	0
4	498	1135.217004455986	1
4	500	1135.363051972741	2
4	502	1138.932231129405	3
4	504	1141.718906143257	3
4	505	1142.082822714226	2
4	507	1144.787715153364	2
4	508	1146.468527204922	2
4	510	1147.283264483279	2
4	511	1147.454751420172	2
4	512	1148.263813500733	1
4	513	1148.839994337104	0
4	515	1155.69337419801	0
4	517	1156.259289260176	1
4	519	1163.204706882349	2
4	521	1170.612254816977	3
4	522	1172.956634864755	3
4	526	1177.973893825336	2
4	527	1181.963062542194	1
4	529	1186.949025027116	1
4	530	1188.697167043374	1
4	532	1192.333899696592	1
4	534	1197.613977193519	2
4	536	1198.108177697727	3
4	538	1198.606263427609	4
4	540	1207.102040070224	5
4	541	1207.901550811555	5
4	542	1208.851315067081	4
4	543	1211.520960327947	3
4	544	1214.46579378943	2
4	545	1214.799143240759	1
4	547	1215.572599614181	1
4	548	1217.645886702678	1
4	549	1218.773866597544	0
4	551	1231.844375578986	0
4	552	1232.10868953962	0
4	554	1234.910810938707	0
4	555	1235.630895533659	0
4	557	1236.116699961997	0
4	558	1242.524364580077	0
4	560	1247.942971155498	0
4	561	1250.037369975838	0
4	563	1251.188053035955	0
4	564	1253.007111453438	0
4	575	1275.249598754447	0
4	576	1277.180704490753	0
4	578	1285.512833833394	0
4	579	1286.060594103771	0
4	588	1294.031758144982	0
4	590	1300.819020909668	1
4	593	1304.334334063172	1
4	594	1305.075835482287	0
4	596	1310.93961002616	0
4	597	1313.392728257272	0
4	599	1318.003070602428	0
4	600	1320.364172381632	0
4	602	1326.696373353387	0
4	603	1328.869230278606	0
4	605	1332.884941883537	0
4	607	1336.650535836356	1
4	611	1353.432156391723	1
4	612	1353.450456233291	0
4	614	1359.16404557901	0
4	618	1366.636648785843	1
4	621	1375.945051716496	2
4	622	1379.214260963898	2
4	623	1379.258121601428	1
4	625	1386.322276825134	1
4	626	1386.530194008969	1
4	627	1391.353582034409	0
4	629	1395.569428066275	0
4	630	1397.988741380396	0
4	632	1398.224964158521	0
4	634	1404.092529556116	1
4	636	1404.723363852476	2
4	640	1411.263528282476	3
4	642	1411.795580257028	3
4	643	1412.53176139718	2
4	645	1420.224574092024	2
4	646	1420.531229068845	2
4	647	1429.086265862472	1
4	648	1429.592449944441	0
4	655	1442.157175674872	0
4	660	1450.186517457622	1
4	663	1452.524777592798	2
4	664	1453.533329983425	2
4	665	1454.232581052577	1
4	666	1455.131882357548	0
4	670	1471.364551841377	0
4	672	1476.326362068537	0
4	674	1500.292962552547	0
4	675	1507.499828783056	0
4	677	1514.628496105396	0
4	679	1515.391585098206	1
4	680	1516.409463628048	1
4	681	1516.922554392609	0
4	683	1520.075491215183	0
4	684	1520.714805724658	0
4	686	1529.117938344292	0
4	687	1530.061836587713	0
4	689	1536.955543686046	0
4	690	1537.098375754017	0
4	692	1537.272009496688	0
4	693	1540.439000208769	0
4	698	1568.170486611142	0
4	700	1579.114421679445	1
4	701	1579.816112224928	1
4	703	1580.500100178335	1
4	704	1582.720886657717	1
4	705	1584.274028684675	0
4	710	1590.644250055458	0
4	712	1590.825644943243	1
4	716	1603.04957389194	1
4	717	1604.636857910187	0
4	719	1610.664425130129	0
4	720	1612.77752952556	0
4	722	1618.936633049524	0
4	723	1621.696633895757	0
4	725	1647.347486492507	0
4	726	1647.830714567325	0
4	728	1651.645264029249	0
4	729	1656.900230983244	0
4	731	1657.544440275635	0
4	732	1662.547635935571	0
4	734	1667.875743443595	0
4	735	1670.796888120081	0
4	737	1678.961085905515	0
4	738	1679.749244725667	0
4	742	1682.270965130991	0
4	744	1685.08511481968	0
4	751	1708.084792584536	0
4	753	1713.623104352338	1
4	758	1719.019281485797	1
4	762	1723.283784264192	1
4	765	1728.055282631709	2
4	767	1731.950005401017	3
4	769	1733.335643327318	4
4	771	1737.184569819368	5
4	772	1739.123164422027	5
4	773	1741.13456293462	4
4	774	1743.746499778248	3
4	775	1745.202187151663	2
4	780	1746.430995735594	2
4	782	1749.876436639148	3
4	784	1750.623721910651	4
4	785	1757.936041988625	4
4	786	1765.081231562281	3
4	787	1768.579485411001	2
4	788	1769.11970269449	1
4	789	1769.533265032808	0
4	793	1782.186823052272	0
4	795	1786.678947997071	1
4	800	1790.749595489249	1
4	802	1791.887006369677	1
4	803	1795.68265538661	1
4	807	1797.950978938951	1
4	818	1812.136970337524	1
4	819	1812.99518177817	0
4	821	1827.242154249278	0
4	822	1827.64729018152	0
4	824	1850.542439783431	0
4	825	1852.459170568234	0
4	827	1870.004880988581	0
4	828	1870.32825764676	0
4	830	1873.144783037164	0
4	831	1876.631163218425	0
4	833	1884.822081319794	0
4	835	1885.778595246252	1
4	837	1885.811529056579	2
4	838	1896.704852044567	2
4	840	1897.708087929202	2
4	841	1898.369483513392	2
4	842	1899.125625961318	1
4	843	1899.201350933833	0
4	847	1920.744293764123	0
4	849	1921.856548642506	0
4	851	1932.417776871576	0
4	852	1945.893710400794	0
4	854	1957.658186564513	0
4	856	1958.145638604626	1
4	858	1958.20490747963	2
4	859	1958.756725310351	2
4	861	1962.041132941032	2
4	862	1963.72889283995	2
4	863	1967.404575736515	1
4	864	1967.515464420675	0
4	866	1972.339259434377	0
4	867	1975.109059825071	0
4	869	1996.972662773382	0
4	870	2000.112592993583	0
4	872	2001.837521535633	0
4	873	2006.013423261957	0
4	875	2022.651661072584	0
4	876	2025.714162162348	0
4	878	2031.708678368501	0
4	880	2039.16582307412	1
4	881	2043.256898634976	1
4	883	2048.602623725115	1
4	884	2049.468118540717	1
4	885	2050.606824363242	0
4	887	2051.296746386859	0
4	891	2059.781218118396	0
4	893	2060.450138024586	0
4	894	2061.381437526036	0
4	896	2061.864559880863	0
4	898	2065.608353002928	1
4	899	2070.288980401693	1
4	901	2073.528318068424	1
4	903	2074.252666708182	2
4	910	2088.662096611174	2
4	911	2089.550664699392	1
4	912	2091.071334503631	0
4	914	2094.944618720664	0
4	915	2096.712295284131	0
4	919	2111.075776948067	0
4	924	2121.334838027284	0
4	926	2121.523496411099	0
4	927	2122.93382249948	0
4	932	2145.763574788525	0
4	933	2146.346810384292	0
4	935	2151.397617746221	0
4	936	2153.398486201594	0
4	938	2153.562706682703	0
4	939	2154.359486477262	0
4	941	2158.8277209331	0
4	942	2159.880816148112	0
4	944	2161.192638793574	0
4	945	2161.437611426712	0
4	950	2176.623459025381	0
4	955	2181.362624258206	1
4	957	2184.414138255062	2
4	958	2186.125430994961	2
4	960	2189.569960956599	2
4	961	2190.970268408284	2
4	962	2191.794332149033	1
4	963	2192.489249350747	0
4	965	2192.862153177103	0
4	966	2194.174189434182	0
4	968	2214.505848794852	0
4	970	2214.739026256483	1
4	971	2214.970252768173	1
4	972	2215.792672742499	0
4	974	2216.997427399395	0
4	975	2217.888680015558	0
4	977	2228.158970210153	0
4	978	2230.891401712616	0
4	980	2233.589270654671	0
4	981	2234.736408700889	0
4	985	2235.134555999138	0
4	987	2239.564617025117	0
4	989	2245.5746372874	0
4	990	2245.695061493465	0
4	992	2246.434071313046	0
4	994	2253.60115613332	1
4	995	2254.414367739032	1
4	996	2255.441844967124	0
4	1001	2264.722149296945	0
4	1005	2268.784290434962	1
4	1011	2282.192260561595	2
4	1024	2297.26438804666	3
4	1029	2306.451312004043	4
4	1032	2307.906601523895	5
4	1034	2308.451575159593	6
4	1036	2310.57992847033	7
4	1037	2311.763498348345	7
4	1038	2311.972514663428	6
4	1042	2313.938378685859	6
4	1045	2319.089880690129	7
4	1046	2320.515083610737	7
4	1047	2322.702754845016	6
4	1048	2323.599461950869	5
4	1049	2324.286008422202	4
4	1050	2327.598276687681	3
4	1051	2329.252630305727	2
4	1053	2332.875221144699	2
4	1054	2334.204162224982	2
4	1055	2342.720826622789	1
4	1057	2348.332552859931	1
4	1059	2353.692697809273	2
4	1061	2356.62042384619	3
4	1063	2358.091024437805	4
4	1065	2359.250582496203	5
4	1066	2359.375556594134	5
4	1067	2362.105683623323	4
4	1069	2366.186839445675	4
4	1070	2377.703097265959	4
4	1071	2379.342207472979	3
4	1072	2380.69034613559	2
4	1073	2380.736855971214	1
4	1075	2392.876483049199	1
4	1076	2393.189278526209	1
4	1078	2394.55395121754	1
4	1080	2395.905132468107	2
4	1082	2396.699003818489	3
4	1083	2399.377108079422	3
4	1084	2404.213073003127	2
4	1086	2405.987835363148	2
4	1087	2410.148638890127	2
4	1088	2410.22623185236	1
4	1089	2410.517002879184	0
4	1094	2431.543350033688	0
4	1095	2431.839495911739	0
4	1097	2434.969970675909	0
4	1098	2435.629195844071	0
4	1100	2436.854714053433	0
4	1101	2438.689304949217	0
4	1105	2446.703873746544	0
4	1109	2453.818389630889	1
4	1116	2464.591085000307	2
4	1118	2466.762044446235	3
4	1120	2467.46333134511	4
4	1124	2475.219092225462	5
4	1127	2479.611011255182	6
4	1128	2485.719633977204	6
4	1129	2491.923571278473	5
4	1130	2494.830253756899	4
4	1132	2495.728823675633	4
4	1134	2499.804357768263	5
5	161	361.339663494602	0
5	164	367.9828784262	0
5	167	379.513301138535	0
5	172	394.390403984467	13.730930240818
5	175	396.153388215198	2.024123955216
5	176	396.186488933666	0.214794516201
5	179	406.037428163507	1.686985878717
5	182	413.871900018616	3.834543843819
5	190	432.477432067585	6.711690715677
5	193	435.81326466097	8.295453010375
5	194	437.36616924325	3.759361175531
5	197	448.069818965425	0
5	202	458.492042133095	2.140772087263
5	203	462.983464812344	6.421901029753
5	206	472.719413120029	0
5	209	482.514617012789	8.342516126304
5	249	554.915611920493	52.065260670374
5	250	557.621219864665	53.534797481728
5	253	566.365144103227	59.750947387153
5	254	568.588128587841	58.26477930636
5	255	568.701611461822	46.240058371784
5	256	572.129221488112	38.536925351698
5	257	572.364768576848	31.842098813396
5	260	576.461405027082	29.566722133019
5	263	579.939670798538	30.780237918243
5	266	581.132309219332	15.035530257879
5	267	588.377287912165	12.355145311251
5	268	588.567280573226	9.126053073383
5	269	588.597919340751	7.598352367522
5	272	590.678812022541	1.006573860574
5	277	595.028144327608	0.818791778522
5	280	604.876114829767	10.122712260102
5	283	607.487879909272	9.343171282894
5	286	607.783705438894	0.902778711458
5	291	613.648997368613	6.128369767316
5	292	615.304121993011	6.627525412953
5	293	616.071290105052	3.426128774403
5	296	632.76123856948	0
5	299	636.83562207702	0
5	302	640.575155618537	3.358062296761
5	305	675.410655830787	0
5	308	677.902114410092	0.037034763008
5	311	687.662234629069	0
5	320	730.758287029875	0
5	326	760.778512054772	0
5	331	765.583649621124	2.907539802173
5	332	769.444828993647	5.090055981913
5	335	777.263713199375	0
5	338	778.560288534075	0
5	341	795.990510267887	0
5	344	803.875283134171	0
5	347	809.094828093027	0
5	350	814.571875706268	0
5	353	820.913354679966	0.339291366239
5	356	829.945582910592	0
5	359	835.06437174103	0
5	365	850.643575561551	0
5	392	937.782421171104	33.875474559471
5	395	943.929533782649	13.885040777325
5	396	947.047218761414	15.047877452721
5	397	955.824474466008	20.697516633662
5	398	959.885185063669	19.483655962235
5	401	967.986976557275	0
5	404	971.614401115977	0
5	407	977.048754828475	0
5	410	990.426205312561	0
5	415	1009.041639985493	18.13262499864
5	416	1011.98157762886	16.037985580684
5	422	1022.382591948731	0
5	430	1030.304522699678	1.701586176799
5	431	1031.973886328065	3.16308067805
5	439	1051.882552523075	18.392119429808
5	440	1055.129511930662	20.626486616748
5	446	1061.328647983549	0.325746305612
5	452	1067.267288635778	0
5	455	1075.724465931961	0
5	458	1076.873173094901	0.790691534072
5	461	1077.735018370196	0
5	464	1078.615384691453	0
5	467	1082.670601148456	0.991286698336
5	470	1088.03547744255	3.441144729989
5	479	1095.611697217038	0.745251893144
5	482	1111.881230236583	0
5	488	1122.666301923088	0.673561875699
5	503	1139.314514094323	4.380555796288
5	504	1141.718906143257	6.501901687271
5	505	1142.082822714226	6.719770741485
5	508	1146.468527204922	7.536296075517
5	511	1147.454751420172	2.667036266808
5	512	1148.263813500733	0.980549017454
5	515	1155.69337419801	0
5	522	1172.956634864755	16.697345604579
5	525	1177.289035238016	14.084328355667
5	526	1177.973893825336	7.361639008359
5	527	1181.963062542194	6.627877411186
5	530	1188.697167043374	1.748142016258
5	541	1207.901550811555	15.567651114963
5	542	1208.851315067081	11.237337873562
5	543	1211.520960327947	13.41278263022
5	544	1214.46579378943	15.859530361821
5	545	1214.799143240759	7.697103170535
5	548	1217.645886702678	2.073287088497
5	551	1231.844375578986	0
5	554	1234.910810938707	0
5	557	1236.116699961997	0
5	560	1247.942971155498	0
5	563	1251.188053035955	0
5	575	1275.249598754447	0
5	578	1285.512833833394	0
5	592	1304.32413190458	10.292373759598
5	593	1304.334334063172	3.515313153504
5	596	1310.93961002616	0
5	599	1318.003070602428	0
5	602	1326.696373353387	0
5	605	1332.884941883537	0
5	610	1347.929260973257	11.278725136901
5	611	1353.432156391723	16.208436316109
5	614	1359.16404557901	0
5	619	1368.885978416957	5.365577097983
5	622	1379.214260963898	12.577612178055
5	623	1379.258121601428	3.313069884932
5	626	1386.530194008969	0.207917183835
5	629	1395.569428066275	0
5	632	1398.224964158521	0
5	641	1411.400351972116	7.307822416
5	642	1411.795580257028	7.072216404552
5	643	1412.53176139718	6.018878652693
5	646	1420.531229068845	9.267700786369
5	647	1429.086265862472	8.861691770448
5	661	1451.944337167082	9.78716149221
5	664	1453.533329983425	3.346812525803
5	665	1454.232581052577	1.707803459779
5	671	1476.220530616012	4.855978774635
5	674	1500.292962552547	0
5	677	1514.628496105396	0
5	680	1516.409463628048	1.017878529842
5	683	1520.075491215183	0
5	686	1529.117938344292	0
5	689	1536.955543686046	0
5	692	1537.272009496688	0
5	698	1568.170486611142	0
5	701	1579.816112224928	0.701690545483
5	704	1582.720886657717	2.220786479382
5	710	1590.644250055458	0
5	715	1602.953461426384	12.127816483141
5	716	1603.04957389194	2.818533402433
5	719	1610.664425130129	0
5	722	1618.936633049524	0
5	725	1647.347486492507	0
5	728	1651.645264029249	0
5	731	1657.544440275635	0
5	734	1667.875743443595	0
5	737	1678.961085905515	0
5	743	1682.997785874293	0.726820743302
5	757	1718.34288212978	10.258089545244
5	758	1719.019281485797	5.396177133459
5	763	1726.555020026771	5.999208169201
5	772	1739.123164422027	15.839380157835
5	773	1741.13456293462	13.079280302911
5	774	1743.746499778248	11.796494377231
5	775	1745.202187151663	11.866543824345
5	778	1745.969726830844	8.785157011476
5	785	1757.936041988625	12.288120200985
5	786	1765.081231562281	18.650235826687
5	787	1768.579485411001	18.703048771853
5	788	1769.11970269449	18.495980783839
5	796	1786.71281540221	4.525992349938
5	799	1788.743586198703	2.064638201632
5	800	1790.749595489249	2.454638893198
5	803	1795.68265538661	3.795649016933
5	817	1809.87947490077	12.58028858776
5	818	1812.136970337524	14.185991398573
5	821	1827.242154249278	0
5	824	1850.542439783431	0
5	827	1870.004880988581	0
5	830	1873.144783037164	0
5	833	1884.822081319794	0
5	838	1896.704852044567	10.926256798315
5	841	1898.369483513392	12.557954456813
5	842	1899.125625961318	1.417538032116
5	848	1921.557477069763	0.81318330564
5	851	1932.417776871576	0
5	854	1957.658186564513	0
5	859	1958.756725310351	0.611086705725
5	862	1963.72889283995	5.52398536032
5	863	1967.404575736515	5.363442795483
5	866	1972.339259434377	0
5	869	1996.972662773382	0
5	872	2001.837521535633	0
5	875	2022.651661072584	0
5	878	2031.708678368501	0
5	881	2043.256898634976	4.091075560856
5	884	2049.468118540717	0.865494815602
5	887	2051.296746386859	0
5	890	2056.315823322022	3.806728931103
5	893	2060.450138024586	0
5	896	2061.864559880863	0
5	899	2070.288980401693	4.680627398765
5	909	2083.277575607307	9.749257538883
5	910	2088.662096611174	14.409429902992
5	911	2089.550664699392	14.24199011192
5	914	2094.944618720664	0
5	920	2117.076212179435	6.000435231368
5	923	2121.248021392062	0.171811858386
5	926	2121.523496411099	0
5	932	2145.763574788525	0
5	935	2151.397617746221	0
5	938	2153.562706682703	0
5	941	2158.8277209331	0
5	944	2161.192638793574	0
5	950	2176.623459025381	0
5	953	2178.111140236594	0.882915111717
5	958	2186.125430994961	4.762806736755
5	961	2190.970268408284	6.556130153222
5	962	2191.794332149033	2.224371192434
5	965	2192.862153177103	0
5	968	2214.505848794852	0
5	971	2214.970252768173	0.23122651169
5	974	2216.997427399395	0
5	977	2228.158970210153	0
5	980	2233.589270654671	0
5	986	2238.010192104272	2.875636105134
5	989	2245.5746372874	0
5	992	2246.434071313046	0
5	995	2254.414367739032	0.813211605712
5	1001	2264.722149296945	0
5	1020	2292.054739902508	27.214354969418
5	1030	2307.895305167988	39.111014733026
5	1037	2311.763498348345	29.57123778675
5	1038	2311.972514663428	18.413664411337
5	1043	2315.521356234161	18.256968187501
5	1046	2320.515083610737	14.063771606694
5	1047	2322.702754845016	14.796153321121
5	1048	2323.599461950869	15.147886791276
5	1049	2324.286008422202	13.706079951872
5	1050	2327.598276687681	15.503876501264
5	1051	2329.252630305727	15.314251619868
5	1054	2334.204162224982	15.114281534853
5	1055	2342.720826622789	9.84560547809
5	1066	2359.375556594134	11.043003734203
5	1067	2362.105683623323	8.41298581405
5	1070	2377.703097265959	21.082673419769
5	1071	2379.342207472979	21.251183035174
5	1072	2380.69034613559	21.439763639387
5	1073	2380.736855971214	14.550016525539
5	1076	2393.189278526209	0.31279547701
5	1083	2399.377108079422	4.823156861882
5	1084	2404.213073003127	8.30794053502
5	1087	2410.148638890127	13.449635071638
5	1088	2410.22623185236	4.238396489212
5	1094	2431.543350033688	0
5	1097	2434.969970675909	0
5	1100	2436.854714053433	0
5	1125	2479.345856337852	32.641982591308
5	1128	2485.719633977204	31.901244346315
5	1129	2491.923571278473	27.332486278166
5	1130	2494.830253756899	28.068209310664
6	162	363.986530271653	34
6	165	369.477618569673	35
6	176	396.186488933666	36
6	183	416.472564371503	37
6	193	435.81326466097	38
6	194	437.36616924325	39
6	195	438.062057056118	40
6	202	458.492042133095	41
6	203	462.983464812344	42
6	204	463.843664710419	43
6	209	482.514617012789	44
6	210	483.861304411455	45
6	250	557.621219864665	46
6	253	566.365144103227	47
6	254	568.588128587841	48
6	255	568.701611461822	49
6	256	572.129221488112	50
6	257	572.364768576848	51
6	260	576.461405027082	52
6	263	579.939670798538	53
6	266	581.132309219332	54
6	267	588.377287912165	55
6	268	588.567280573226	56
6	269	588.597919340751	57
6	277	595.028144327608	58
6	283	607.487879909272	59
6	291	613.648997368613	60
6	292	615.304121993011	61
6	293	616.071290105052	62
6	294	616.346871220833	63
6	297	635.926540177741	64
6	302	640.575155618537	65
6	303	643.316546674096	66
6	308	677.902114410092	67
6	309	680.004046416129	68
6	312	689.950192496873	69
6	321	733.266308960363	70
6	332	769.444828993647	71
6	333	776.767335794782	72
6	336	777.263755332778	73
6	339	779.001172883777	74
6	342	796.983326471162	75
6	345	804.289159217578	76
6	348	813.454438675811	77
6	353	820.913354679966	78
6	354	822.286837284242	79
6	357	831.056458947707	80
6	360	836.199565283642	81
6	366	854.012784342693	82
6	396	947.047218761414	83
6	397	955.824474466008	84
6	398	959.885185063669	85
6	399	961.427244879109	86
6	402	968.968178241073	87
6	405	972.863857946367	88
6	408	979.193021503883	89
6	416	1011.98157762886	90
6	417	1013.002458692245	91
6	423	1022.708555727862	92
6	431	1031.973886328065	93
6	440	1055.129511930662	94
6	441	1055.300153328708	95
6	447	1061.570359112721	96
6	453	1072.44754153559	97
6	458	1076.873173094901	98
6	459	1077.119341912272	99
6	462	1078.147583842591	100
6	467	1082.670601148456	101
6	471	1088.854192821043	102
6	480	1098.392967681255	103
6	483	1115.319049092932	104
6	489	1123.185995308242	105
6	504	1141.718906143257	106
6	505	1142.082822714226	107
6	508	1146.468527204922	108
6	511	1147.454751420172	109
6	512	1148.263813500733	110
6	513	1148.839994337104	111
6	522	1172.956634864755	112
6	526	1177.973893825336	113
6	527	1181.963062542194	114
6	530	1188.697167043374	115
6	541	1207.901550811555	116
6	542	1208.851315067081	117
6	543	1211.520960327947	118
6	544	1214.46579378943	119
6	545	1214.799143240759	120
6	548	1217.645886702678	121
6	549	1218.773866597544	122
6	552	1232.10868953962	123
6	555	1235.630895533659	124
6	558	1242.524364580077	125
6	561	1250.037369975838	126
6	564	1253.007111453438	127
6	576	1277.180704490753	128
6	579	1286.060594103771	129
6	593	1304.334334063172	130
6	594	1305.075835482287	131
6	597	1313.392728257272	132
6	600	1320.364172381632	133
6	603	1328.869230278606	134
6	611	1353.432156391723	135
6	612	1353.450456233291	136
6	622	1379.214260963898	137
6	623	1379.258121601428	138
6	626	1386.530194008969	139
6	627	1391.353582034409	140
6	630	1397.988741380396	141
6	642	1411.795580257028	142
6	643	1412.53176139718	143
6	646	1420.531229068845	144
6	647	1429.086265862472	145
6	648	1429.592449944441	146
6	664	1453.533329983425	147
6	665	1454.232581052577	148
6	666	1455.131882357548	149
6	672	1476.326362068537	150
6	675	1507.499828783056	151
6	680	1516.409463628048	152
6	681	1516.922554392609	153
6	684	1520.714805724658	154
6	687	1530.061836587713	155
6	690	1537.098375754017	156
6	693	1540.439000208769	157
6	701	1579.816112224928	158
6	704	1582.720886657717	159
6	705	1584.274028684675	160
6	716	1603.04957389194	161
6	717	1604.636857910187	162
6	720	1612.77752952556	163
6	723	1621.696633895757	164
6	726	1647.830714567325	165
6	729	1656.900230983244	166
6	732	1662.547635935571	167
6	735	1670.796888120081	168
6	738	1679.749244725667	169
6	744	1685.08511481968	170
6	758	1719.019281485797	171
6	772	1739.123164422027	172
6	773	1741.13456293462	173
6	774	1743.746499778248	174
6	775	1745.202187151663	175
6	785	1757.936041988625	176
6	786	1765.081231562281	177
6	787	1768.579485411001	178
6	788	1769.11970269449	179
6	789	1769.533265032808	180
6	800	1790.749595489249	181
6	803	1795.68265538661	182
6	818	1812.136970337524	183
6	819	1812.99518177817	184
6	822	1827.64729018152	185
6	825	1852.459170568234	186
6	828	1870.32825764676	187
6	831	1876.631163218425	188
6	838	1896.704852044567	189
6	841	1898.369483513392	190
6	842	1899.125625961318	191
6	843	1899.201350933833	192
6	849	1921.856548642506	193
6	852	1945.893710400794	194
6	859	1958.756725310351	195
6	862	1963.72889283995	196
6	863	1967.404575736515	197
6	864	1967.515464420675	198
6	867	1975.109059825071	199
6	870	2000.112592993583	200
6	873	2006.013423261957	201
6	876	2025.714162162348	202
6	881	2043.256898634976	203
6	884	2049.468118540717	204
6	885	2050.606824363242	205
6	891	2059.781218118396	206
6	894	2061.381437526036	207
6	899	2070.288980401693	208
6	910	2088.662096611174	209
6	911	2089.550664699392	210
6	912	2091.071334503631	211
6	915	2096.712295284131	212
6	924	2121.334838027284	213
6	927	2122.93382249948	214
6	933	2146.346810384292	215
6	936	2153.398486201594	216
6	939	2154.359486477262	217
6	942	2159.880816148112	218
6	945	2161.437611426712	219
6	958	2186.125430994961	220
6	961	2190.970268408284	221
6	962	2191.794332149033	222
6	963	2192.489249350747	223
6	966	2194.174189434182	224
6	971	2214.970252768173	225
6	972	2215.792672742499	226
6	975	2217.888680015558	227
6	978	2230.891401712616	228
6	981	2234.736408700889	229
6	987	2239.564617025117	230
6	990	2245.695061493465	231
6	995	2254.414367739032	232
6	996	2255.441844967124	233
6	1037	2311.763498348345	234
6	1038	2311.972514663428	235
6	1046	2320.515083610737	236
6	1047	2322.702754845016	237
6	1048	2323.599461950869	238
6	1049	2324.286008422202	239
6	1050	2327.598276687681	240
6	1051	2329.252630305727	241
6	1054	2334.204162224982	242
6	1055	2342.720826622789	243
6	1066	2359.375556594134	244
6	1067	2362.105683623323	245
6	1070	2377.703097265959	246
6	1071	2379.342207472979	247
6	1072	2380.69034613559	248
6	1073	2380.736855971214	249
6	1076	2393.189278526209	250
6	1083	2399.377108079422	251
6	1084	2404.213073003127	252
6	1087	2410.148638890127	253
6	1088	2410.22623185236	254
6	1089	2410.517002879184	255
6	1095	2431.839495911739	256
6	1098	2435.629195844071	257
6	1101	2438.689304949217	258
6	1128	2485.719633977204	259
6	1129	2491.923571278473	260
6	1130	2494.830253756899	261
7	162	363.986530271653	2.646866777051
7	165	369.477618569673	1.494740143473
7	176	396.186488933666	2.057224673684
7	183	416.472564371503	6.435208196706
7	193	435.81326466097	10.047523309062
7	194	437.36616924325	9.848357592655
7	195	438.062057056118	4.455248988399
7	202	458.492042133095	10.42222316767
7	203	462.983464812344	6.632194766512
7	204	463.843664710419	7.282100927828
7	209	482.514617012789	9.79520389276
7	210	483.861304411455	9.68920352497
7	250	557.621219864665	54.770868614546
7	253	566.365144103227	62.27872172029
7	254	568.588128587841	61.973931871767
7	255	568.701611461822	58.378262180341
7	256	572.129221488112	49.667668398074
7	257	572.364768576848	38.772472440434
7	260	576.461405027082	35.93873526363
7	263	579.939670798538	33.044987904475
7	266	581.132309219332	31.972876339037
7	267	588.377287912165	22.280508950712
7	268	588.567280573226	12.545137972312
7	269	588.597919340751	9.156691840908
7	277	595.028144327608	5.355906165641
7	283	607.487879909272	12.734477339607
7	291	613.648997368613	6.768070641177
7	292	615.304121993011	7.783494391714
7	293	616.071290105052	7.394693524994
7	294	616.346871220833	3.701709890184
7	297	635.926540177741	3.165301608261
7	302	640.575155618537	3.739533541517
7	303	643.316546674096	6.09945335232
7	308	677.902114410092	2.491458579305
7	309	680.004046416129	2.138966769045
7	312	689.950192496873	2.287957867804
7	321	733.266308960363	2.508021930488
7	332	769.444828993647	6.768719174696
7	333	776.767335794782	12.412562783048
7	336	777.263755332778	4.2133403e-05
7	339	779.001172883777	0.440884349702
7	342	796.983326471162	0.992816203275
7	345	804.289159217578	0.413876083407
7	348	813.454438675811	4.359610582784
7	353	820.913354679966	6.341478973698
7	354	822.286837284242	1.712773970515
7	357	831.056458947707	1.110876037115
7	360	836.199565283642	1.135193542612
7	366	854.012784342693	3.369208781142
7	396	947.047218761414	17.00272575609
7	397	955.824474466008	23.825133157315
7	398	959.885185063669	24.758227231323
7	399	961.427244879109	21.025715777675
7	402	968.968178241073	0.981201683798
7	405	972.863857946367	1.24945683039
7	408	979.193021503883	2.144266675408
7	416	1011.98157762886	21.072562642007
7	417	1013.002458692245	17.058866644069
7	423	1022.708555727862	0.325963779131
7	431	1031.973886328065	3.370949805186
7	440	1055.129511930662	21.639078837395
7	441	1055.300153328708	20.797128014794
7	447	1061.570359112721	0.567457434784
7	453	1072.44754153559	5.180252899812
7	458	1076.873173094901	1.14870716294
7	459	1077.119341912272	1.036860351443
7	462	1078.147583842591	0.412565472395
7	467	1082.670601148456	4.055216457003
7	471	1088.854192821043	4.259860108482
7	480	1098.392967681255	3.526522357361
7	483	1115.319049092932	3.437818856349
7	489	1123.185995308242	1.193255260853
7	504	1141.718906143257	6.784947845222
7	505	1142.082822714226	6.86581825824
7	508	1146.468527204922	11.105475232181
7	511	1147.454751420172	8.522520290767
7	512	1148.263813500733	3.476098347369
7	513	1148.839994337104	1.556729853825
7	522	1172.956634864755	17.263260666745
7	526	1177.973893825336	14.769186942987
7	527	1181.963062542194	11.350807725217
7	530	1188.697167043374	13.361981912366
7	541	1207.901550811555	20.952525784439
7	542	1208.851315067081	16.517415370489
7	543	1211.520960327947	13.906983134428
7	544	1214.46579378943	16.357616091703
7	545	1214.799143240759	16.19287981315
7	548	1217.645886702678	10.543846632454
7	549	1218.773866597544	3.201266983363
7	552	1232.10868953962	0.264313960634
7	555	1235.630895533659	0.720084594952
7	558	1242.524364580077	6.40766461808
7	561	1250.037369975838	2.09439882034
7	564	1253.007111453438	1.819058417483
7	576	1277.180704490753	1.931105736306
7	579	1286.060594103771	0.547760270377
7	593	1304.334334063172	10.30257591819
7	594	1305.075835482287	4.256814572619
7	597	1313.392728257272	2.453118231112
7	600	1320.364172381632	2.361101779204
7	603	1328.869230278606	2.172856925219
7	611	1353.432156391723	16.781620555367
7	612	1353.450456233291	16.226736157677
7	622	1379.214260963898	15.693859644924
7	623	1379.258121601428	12.621472815585
7	626	1386.530194008969	10.585142292473
7	627	1391.353582034409	5.031305209275
7	630	1397.988741380396	2.419313314121
7	642	1411.795580257028	7.703050700912
7	643	1412.53176139718	7.808397544704
7	646	1420.531229068845	14.018346324358
7	647	1429.086265862472	17.822737579996
7	648	1429.592449944441	9.367875852417
7	664	1453.533329983425	11.376154308553
7	665	1454.232581052577	4.046063594955
7	666	1455.131882357548	2.60710476475
7	672	1476.326362068537	4.96181022716
7	675	1507.499828783056	7.206866230509
7	680	1516.409463628048	1.780967522652
7	681	1516.922554392609	1.530969294403
7	684	1520.714805724658	0.639314509475
7	687	1530.061836587713	0.943898243421
7	690	1537.098375754017	0.142832067971
7	693	1540.439000208769	3.166990712081
7	701	1579.816112224928	11.645625613786
7	704	1582.720886657717	3.606464978272
7	705	1584.274028684675	3.77392850634
7	716	1603.04957389194	12.223928948697
7	717	1604.636857910187	4.40581742068
7	720	1612.77752952556	2.113104395431
7	723	1621.696633895757	2.760000846233
7	726	1647.830714567325	0.483228074818
7	729	1656.900230983244	5.254966953995
7	732	1662.547635935571	5.003195659936
7	735	1670.796888120081	2.921144676486
7	738	1679.749244725667	0.788158820152
7	744	1685.08511481968	2.814149688689
7	758	1719.019281485797	10.934488901261
7	772	1739.123164422027	18.567352564457
7	773	1741.13456293462	17.850778670428
7	774	1743.746499778248	15.691217146539
7	775	1745.202187151663	13.252181750646
7	785	1757.936041988625	20.751472169257
7	786	1765.081231562281	19.433309774641
7	787	1768.579485411001	22.148489675407
7	788	1769.11970269449	19.243266055342
7	789	1769.533265032808	18.909543122157
7	800	1790.749595489249	4.070647492178
7	803	1795.68265538661	7.387698790559
7	818	1812.136970337524	14.837784024514
7	819	1812.99518177817	15.044202839219
7	822	1827.64729018152	0.405135932242
7	825	1852.459170568234	1.916730784803
7	828	1870.32825764676	0.323376658179
7	831	1876.631163218425	3.486380181261
7	838	1896.704852044567	11.882770724773
7	841	1898.369483513392	12.59088826714
7	842	1899.125625961318	13.314096904739
7	843	1899.201350933833	1.493263004631
7	849	1921.856548642506	1.112254878383
7	852	1945.893710400794	13.475933529218
7	859	1958.756725310351	1.098538745838
7	862	1963.72889283995	5.583254235324
7	863	1967.404575736515	9.199668256885
7	864	1967.515464420675	5.474331479643
7	867	1975.109059825071	2.769800390694
7	870	2000.112592993583	3.139930220201
7	873	2006.013423261957	4.175901726324
7	876	2025.714162162348	3.062501089764
7	881	2043.256898634976	11.548220266475
7	884	2049.468118540717	10.302295466597
7	885	2050.606824363242	2.004200638127
7	891	2059.781218118396	7.272123727477
7	894	2061.381437526036	0.93129950145
7	899	2070.288980401693	8.42442052083
7	910	2088.662096611174	15.13377854275
7	911	2089.550664699392	15.29799799121
7	912	2091.071334503631	15.762659916159
7	915	2096.712295284131	1.767676563467
7	924	2121.334838027284	0.258628493608
7	927	2122.93382249948	1.410326088381
7	933	2146.346810384292	0.583235595767
7	936	2153.398486201594	2.000868455373
7	939	2154.359486477262	0.796779794559
7	942	2159.880816148112	1.053095215012
7	945	2161.437611426712	0.244972633138
7	958	2186.125430994961	8.897205870084
7	961	2190.970268408284	9.607644150078
7	962	2191.794332149033	7.380193893971
7	963	2192.489249350747	2.919288394148
7	966	2194.174189434182	1.312036257079
7	971	2214.970252768173	0.464403973321
7	972	2215.792672742499	1.053646486016
7	975	2217.888680015558	0.891252616163
7	978	2230.891401712616	2.732431502463
7	981	2234.736408700889	1.147138046218
7	987	2239.564617025117	4.430061025979
7	990	2245.695061493465	0.120424206065
7	995	2254.414367739032	7.980296425986
7	996	2255.441844967124	1.840688833804
7	1037	2311.763498348345	42.979207913383
7	1038	2311.972514663428	29.780254101833
7	1046	2320.515083610737	23.250695564077
7	1047	2322.702754845016	16.251442840973
7	1048	2323.599461950869	15.692860426974
7	1049	2324.286008422202	15.834433262609
7	1050	2327.598276687681	17.018348217351
7	1051	2329.252630305727	17.15823011931
7	1054	2334.204162224982	20.265783539123
7	1055	2342.720826622789	23.63094593266
7	1066	2359.375556594134	26.500335449435
7	1067	2362.105683623323	13.773130763392
7	1070	2377.703097265959	24.010399456686
7	1071	2379.342207472979	22.721783626789
7	1072	2380.69034613559	22.599321697785
7	1073	2380.736855971214	21.486273475011
7	1076	2393.189278526209	27.002439080534
7	1083	2399.377108079422	6.500625030223
7	1084	2404.213073003127	9.659121785587
7	1087	2410.148638890127	14.24350642202
7	1088	2410.22623185236	13.527228033871
7	1089	2410.517002879184	4.529167516036
7	1095	2431.839495911739	0.296145878051
7	1098	2435.629195844071	0.659225168162
7	1101	2438.689304949217	1.834590895784
7	1128	2485.719633977204	39.01576023066
7	1129	2491.923571278473	38.105181647584
7	1130	2494.830253756899	30.239168756592
8	169	380.659473743649	1
8	174	395.971694417465	1
8	178	404.35044228479	1
8	181	410.037356174797	1
8	185	425.519679098172	1
8	212	493.340900375065	1
8	214	493.458722537011	2
8	216	496.742594609582	3
8	228	519.107824800269	2
8	232	524.050395342014	3
8	234	528.76545634016	4
8	239	535.742612840699	4
8	271	589.672238161967	1
8	279	598.144708626378	1
8	285	607.520627601297	1
8	314	702.49001005566	1
8	317	730.410353463151	1
8	323	735.549137058382	1
8	330	764.354773011734	1
8	362	838.86047744023	1
8	368	879.741882111558	1
8	370	882.113317559985	2
8	372	884.446492488943	3
8	374	888.24560307094	4
8	376	895.381730109802	5
8	382	927.517978306195	4
8	394	940.401529101434	1
8	412	990.909014986853	1
8	419	1013.261047276616	1
8	425	1028.545887104851	1
8	435	1034.503025313914	1
8	437	1036.534772003394	2
8	443	1060.691130510771	1
8	449	1063.19383248497	1
8	469	1084.594332712561	1
8	473	1090.754167319039	1
8	476	1094.772215871149	1
8	485	1120.122180825996	1
8	491	1127.896198946203	1
8	493	1131.632484755457	2
8	524	1175.335185131008	1
8	566	1256.60543472736	1
8	568	1258.346007673972	2
8	570	1258.889412571991	3
8	581	1286.342301461403	1
8	583	1286.57494181929	2
8	585	1287.862513521532	3
8	609	1337.223720075614	1
8	616	1363.520401318974	1
8	638	1406.512882744487	1
8	650	1433.648475926042	1
8	652	1435.347326120521	2
8	657	1445.829455077947	2
8	668	1469.693661528508	1
8	695	1564.774017558306	1
8	707	1588.196429206383	1
8	714	1600.231040489507	1
8	740	1682.208424127058	1
8	746	1686.419845939918	1
8	749	1707.679710106683	1
8	755	1716.345476470025	2
8	760	1720.55581185757	1
8	777	1745.64792178764	1
8	791	1779.449199170603	1
8	798	1788.294956596051	1
8	805	1797.29918631301	1
8	809	1798.359156213276	2
8	811	1799.172771781991	3
8	814	1806.766350733902	3
8	845	1917.923427135827	1
8	889	2052.509094390919	1
8	905	2075.308674587472	1
8	907	2082.099549429316	2
8	917	2108.685862315649	1
8	922	2121.076209533676	1
8	929	2142.723683495446	1
8	947	2169.304437475917	1
8	952	2177.228225124877	1
8	983	2234.76196218177	1
8	998	2260.983183628547	1
8	1003	2264.84038493309	1
8	1007	2268.90144810621	2
8	1009	2273.677289607649	3
8	1014	2285.719432706355	3
8	1017	2288.561711981572	3
8	1022	2293.558850252091	1
8	1026	2298.239937262922	2
8	1040	2312.094400186417	1
8	1091	2421.021190455418	1
8	1103	2446.030079873069	1
8	1107	2451.694476261001	2
8	1111	2455.678417661446	3
8	1113	2458.010288498061	4
9	169	380.659473743649	10
9	174	395.971694417465	11
9	178	404.35044228479	12
9	181	410.037356174797	13
9	271	589.672238161967	14
9	279	598.144708626378	15
9	285	607.520627601297	16
9	330	764.354773011734	17
9	394	940.401529101434	18
9	412	990.909014986853	19
9	435	1034.503025313914	20
9	469	1084.594332712561	21
9	524	1175.335185131008	22
9	609	1337.223720075614	23
9	616	1363.520401318974	24
9	638	1406.512882744487	25
9	714	1600.231040489507	26
9	760	1720.55581185757	27
9	777	1745.64792178764	28
9	798	1788.294956596051	29
9	805	1797.29918631301	30
9	889	2052.509094390919	31
9	905	2075.308674587472	32
9	922	2121.076209533676	33
9	952	2177.228225124877	34
9	1003	2264.84038493309	35
9	1022	2293.558850252091	36
9	1040	2312.094400186417	37
10	169	380.659473743649	0
10	174	395.971694417465	0
10	178	404.35044228479	0
10	181	410.037356174797	0
10	185	425.519679098172	0
10	212	493.340900375065	0
10	217	497.743492654835	4.284770117824
10	224	508.786343731611	12.043749122029
10	235	531.684827908059	12.57700310779
10	242	540.734951404664	16.68455606265
10	243	543.753667995404	14.988211655244
10	244	545.053975340319	9.31136249962
10	271	589.672238161967	0
10	279	598.144708626378	0
10	285	607.520627601297	0
10	314	702.49001005566	0
10	317	730.410353463151	0
10	323	735.549137058382	0
10	330	764.354773011734	0
10	362	838.86047744023	0
10	368	879.741882111558	0
10	379	915.66596449989	33.552646939905
10	380	925.203174014506	40.756681525563
10	383	927.768753768776	39.523150697836
10	384	929.418550478823	34.036820369021
10	391	937.279396742635	9.76141843644
10	394	940.401529101434	0
10	412	990.909014986853	0
10	419	1013.261047276616	0
10	425	1028.545887104851	0
10	435	1034.503025313914	0
10	438	1050.45918976751	13.924417764116
10	443	1060.691130510771	0
10	449	1063.19383248497	0
10	469	1084.594332712561	0
10	473	1090.754167319039	0
10	476	1094.772215871149	0
10	485	1120.122180825996	0
10	491	1127.896198946203	0
10	494	1132.147399521696	0.514914766239
10	524	1175.335185131008	0
10	566	1256.60543472736	0
10	571	1258.979103411533	0.633095737561
10	572	1263.22311825397	4.333705681979
10	581	1286.342301461403	0
10	586	1292.36755001107	5.79260819178
10	591	1301.832225849147	13.969712327615
10	609	1337.223720075614	0
10	616	1363.520401318974	0
10	638	1406.512882744487	0
10	650	1433.648475926042	0
10	653	1439.30934628213	3.962020161609
10	658	1448.948510106632	3.119055028685
10	668	1469.693661528508	0
10	695	1564.774017558306	0
10	707	1588.196429206383	0
10	714	1600.231040489507	0
10	740	1682.208424127058	0
10	746	1686.419845939918	0
10	749	1707.679710106683	0
10	756	1717.886279037649	1.540802567624
10	760	1720.55581185757	0
10	777	1745.64792178764	0
10	791	1779.449199170603	0
10	798	1788.294956596051	0
10	805	1797.29918631301	0
10	812	1802.188357127352	3.829200914076
10	815	1808.731532835348	9.558761053357
10	816	1809.716715979004	2.950365245102
10	845	1917.923427135827	0
10	889	2052.509094390919	0
10	905	2075.308674587472	0
10	908	2082.494955242757	0.395405813441
10	917	2108.685862315649	0
10	922	2121.076209533676	0
10	929	2142.723683495446	0
10	947	2169.304437475917	0
10	952	2177.228225124877	0
10	983	2234.76196218177	0
10	998	2260.983183628547	0
10	1003	2264.84038493309	0
10	1012	2285.043355824681	16.141907718471
10	1015	2287.328700879789	13.65141127214
10	1018	2289.529406417497	3.809973711142
10	1019	2290.858815111348	2.297103129776
10	1022	2293.558850252091	0
10	1027	2301.558428965186	3.318491702264
10	1040	2312.094400186417	0
10	1091	2421.021190455418	0
10	1103	2446.030079873069	0
10	1114	2460.33533255147	8.640856290469
10	1121	2468.44338296426	12.764965302814
10	1122	2470.714960824686	12.704672326625
11	1135	2500	0.1044
12	1135	2500	0.0452

