version 2
run experiments_easy_game_mode1-338-20230308-12:03:05-20096
attr configname experiments_easy_game_mode1
attr datetime 20230308-12:03:05
attr experiment experiments_easy_game_mode1
attr inifile omnetpp.ini
attr iterationvars "$0=5, $1=3.5, $2=100"
attr iterationvarsf 5,3.5,100-
attr measurement "$0=5, $1=3.5, $2=100"
attr network Network
attr processid 20096
attr repetition 8
attr replication #8
attr resultdir results
attr runnumber 338
attr seedset 8
param *.boss.arrival_mean 20
param *.boss.service_mean 5
param *.minion.arrival_mean 10
param *.minion.service_mean 3.5
param *.player.recover_rate_x 100
param **.minion.arrival_distribution 0
param **.minion.service_distribution 0
param **.boss.arrival_distribution 0
param **.boss.service_distribution 0

vector 0 Network.player minion_jobs_number_stat:vector ETV
attr source signal_minion_jobs_number
vector 1 Network.player minion_jobs_queue_number_stat:vector ETV
attr source signal_minion_jobs_queue_number
vector 2 Network.player minion_defeated_stat:vector ETV
attr source signal_minion_defeated
vector 3 Network.player minion_response_time_stat:vector ETV
attr source signal_minion_response_time
vector 4 Network.player minion_waiting_time_stat:vector ETV
attr source signal_minion_waiting_time
vector 5 Network.player boss_jobs_number_stat:vector ETV
attr source signal_boss_jobs_number
vector 6 Network.player boss_jobs_queue_number_stat:vector ETV
attr source signal_boss_jobs_queue_number
vector 7 Network.player minion_recovered_stat:vector ETV
attr source signal_minion_recovered
vector 8 Network.player boss_waiting_time_stat:vector ETV
attr source signal_boss_waiting_time
vector 9 Network.player boss_defeated_stat:vector ETV
attr source signal_boss_defeated
vector 10 Network.player boss_response_time_stat:vector ETV
attr source signal_boss_response_time
vector 11 Network.player minion_throughput:vector ETV
attr source signal_minion_throughput
vector 12 Network.player boss_throughput:vector ETV
attr source signal_boss_throughput
0	172	355.039202252463	5
0	174	363.289814550966	6
0	177	367.830929999966	6
0	188	382.370602506663	1
0	194	436.671773942098	1
0	199	460.852668622827	1
0	201	466.374037545862	2
0	203	467.349172986839	3
0	215	503.541066842519	1
0	221	526.822290225991	1
0	225	532.841895893834	2
0	230	539.021558364902	1
0	233	543.729523351123	1
0	236	549.744660338624	1
0	238	549.757652114121	2
0	248	624.377629917337	1
0	253	626.377011457473	1
0	257	628.149441136313	1
0	260	646.041393116059	1
0	265	658.39845641134	1
0	267	659.690924306509	2
0	269	661.441890419892	3
0	271	673.601588221394	4
0	273	690.249866392987	5
0	278	703.275599853586	6
0	280	703.633396807882	7
0	296	729.390626542569	7
0	300	737.045369647088	8
0	304	743.385520347509	8
0	306	745.206737638433	9
0	309	747.746298385527	9
0	311	751.433923708821	10
0	315	758.184758649513	9
0	317	758.64585161194	10
0	326	769.930973026044	9
0	329	772.656623803539	10
0	333	782.605538701624	11
0	340	793.839749618144	8
0	343	798.245995385835	8
0	349	813.496170369595	5
0	351	814.185922731608	6
0	357	826.066970822433	5
0	370	848.179506668075	1
0	373	852.1686892715	2
0	381	869.016558446923	2
0	386	875.829374328149	1
0	389	886.461145315321	1
0	392	893.887069529698	1
0	395	900.833244362583	1
0	397	904.379176149286	2
0	401	915.070726443792	1
0	406	921.290312289743	1
0	410	926.259204214721	1
0	419	968.113474807297	1
0	422	972.059846730416	1
0	425	979.014042706605	1
0	428	986.40158991055	1
0	431	991.477771818955	1
0	433	996.573320040998	2
0	437	1009.5893717972	1
0	440	1027.29326052894	1
0	443	1047.195191840301	1
0	446	1051.588422140614	1
0	448	1051.853602663273	2
0	455	1069.570309487394	1
0	457	1072.995454593012	2
0	459	1074.329777082393	3
0	463	1089.892028406125	2
0	467	1096.28675098785	1
0	469	1102.395414654277	2
0	474	1108.589561472402	2
0	476	1108.659087345032	3
0	482	1132.072607512783	1
0	491	1137.5084282047	2
0	493	1140.765229769752	3
0	495	1144.780081559334	4
0	500	1151.861347883656	5
0	502	1161.128600888311	6
0	522	1190.182284757979	3
0	525	1194.107094991637	3
0	527	1195.810170607742	4
0	539	1235.57636042901	1
0	542	1245.750567940076	1
0	544	1254.623518575976	2
0	551	1297.576801327344	1
0	554	1298.981981041257	1
0	557	1305.174030572477	1
0	560	1312.534111945697	1
0	565	1325.294640523372	1
0	568	1329.725973787391	2
0	572	1337.918346365047	1
0	574	1338.069482505731	2
0	578	1360.008685256734	1
0	580	1361.022701143741	2
0	587	1400.284102277724	1
0	593	1415.619746805441	1
0	596	1418.960130004518	1
0	600	1424.528878770452	2
0	602	1430.718816092059	3
0	605	1432.924682107722	4
0	613	1456.557563689539	1
0	617	1466.341925398978	1
0	620	1496.569148529909	1
0	623	1506.793690175289	1
0	628	1518.465787734605	1
0	630	1521.622526505848	2
0	635	1537.236882645073	3
0	637	1538.627409021411	4
0	647	1568.805776238846	1
0	650	1575.206070960299	1
0	654	1587.597529532276	2
0	656	1592.550768120903	3
0	658	1594.785254698345	4
0	661	1599.978539938441	5
0	667	1616.404968885488	4
0	670	1621.123406778662	5
0	676	1631.254750414244	2
0	679	1634.710330765916	2
0	683	1652.543207499767	1
0	686	1660.592548209223	1
0	688	1661.676721405022	2
0	691	1667.318732504404	2
0	693	1668.839998673156	3
0	699	1684.153737847449	3
0	701	1685.387269729313	4
0	706	1697.452804236935	2
0	709	1701.561559358482	2
0	713	1716.540947904621	1
0	716	1719.13214685948	1
0	719	1722.526526733274	1
0	722	1733.047037047973	1
0	725	1735.408242765257	1
0	727	1740.704718278887	2
0	731	1747.718800778385	1
0	737	1761.665908873459	1
0	739	1763.094515336496	2
0	741	1763.213757723395	3
0	745	1765.093499250388	2
0	747	1765.470013413068	3
0	751	1768.286539132837	2
0	755	1778.599508578021	1
0	757	1779.035512282923	2
0	762	1788.100640411957	2
0	764	1790.667473858621	3
0	766	1793.353085389727	4
0	769	1803.180920255599	5
0	772	1812.729547793283	5
0	777	1822.789597242941	3
0	781	1827.729542456423	4
0	783	1835.34251097782	5
0	790	1846.315880066733	5
0	797	1859.610694122373	1
0	803	1866.708582479766	1
0	811	1883.591531990599	1
0	815	1887.467234090877	2
0	817	1892.164969454295	3
0	819	1896.988062328872	4
0	827	1913.33164658053	4
0	829	1918.239553569083	5
0	835	1939.413014824499	2
0	839	1961.906213717047	1
0	842	1970.746609118175	1
0	845	1980.244380990038	1
0	851	1990.911080849943	1
0	854	2002.226518752834	1
0	856	2005.657567967903	2
0	858	2007.076585269853	3
0	862	2011.99281693691	2
0	864	2015.318506437137	3
0	867	2016.680203553257	3
0	869	2016.958808805942	4
0	871	2019.351684363755	5
0	874	2022.320615006906	5
0	882	2036.387777157786	6
0	887	2040.160363597193	7
0	893	2048.808516908357	7
0	897	2049.768310849397	8
0	903	2059.760462141642	6
0	905	2061.907945737218	7
0	919	2093.505152452636	2
0	923	2097.229950162052	3
0	925	2098.219906843734	4
0	930	2105.383738213321	3
0	932	2106.750265175274	4
0	934	2111.236557246119	5
0	936	2116.456695820183	6
0	942	2130.162292470775	3
0	945	2132.681831277386	3
0	948	2139.266205856075	3
0	955	2146.850414131752	2
0	961	2155.214678228357	3
0	968	2172.968361916568	1
0	977	2210.235865739089	1
0	983	2219.504720468416	1
0	986	2226.20237524347	1
0	989	2228.252826959931	1
0	991	2231.189043554593	2
0	995	2235.990529159481	1
0	1004	2274.316062352235	1
0	1006	2277.64936585754	2
0	1008	2279.369371625004	3
0	1017	2291.520128777268	3
0	1023	2302.009609685989	3
0	1026	2304.937198279872	3
0	1028	2305.007415274873	4
0	1039	2319.336706072754	3
0	1041	2320.262451255038	4
0	1046	2323.506657643407	5
0	1054	2329.026318484358	6
0	1056	2329.488023016245	7
0	1062	2337.883707012958	8
0	1073	2366.453068044888	7
0	1079	2376.883160209059	7
0	1081	2384.144808062979	8
0	1083	2385.318994031209	9
0	1087	2398.835523000256	8
0	1089	2402.780862958371	9
0	1098	2411.904107173243	6
0	1113	2447.089342177539	3
0	1132	2499.949391704458	1
1	172	355.039202252463	4
1	174	363.289814550966	5
1	175	363.721677923973	5
1	177	367.830929999966	5
1	178	371.160970607444	5
1	179	371.522487789732	4
1	180	373.907191981317	3
1	181	374.592113781279	2
1	185	378.034220088662	1
1	186	379.471575822197	0
1	188	382.370602506663	0
1	189	384.47126006301	0
1	194	436.671773942098	0
1	195	442.89079941513	0
1	199	460.852668622827	0
1	201	466.374037545862	1
1	203	467.349172986839	2
1	208	482.956775286265	2
1	209	483.953263331994	1
1	213	500.133253786538	0
1	215	503.541066842519	0
1	216	504.3552683378	0
1	221	526.822290225991	0
1	225	532.841895893834	1
1	227	537.166150245357	1
1	228	538.199425427804	0
1	230	539.021558364902	0
1	231	539.559418796125	0
1	233	543.729523351123	0
1	234	545.646633975777	0
1	236	549.744660338624	0
1	238	549.757652114121	1
1	239	550.530812784055	1
1	240	553.411145155802	0
1	248	624.377629917337	0
1	249	624.674101302425	0
1	253	626.377011457473	0
1	255	626.826838914034	0
1	257	628.149441136313	0
1	258	638.88641673533	0
1	260	646.041393116059	0
1	261	646.48971319134	0
1	265	658.39845641134	0
1	267	659.690924306509	1
1	269	661.441890419892	2
1	271	673.601588221394	3
1	273	690.249866392987	4
1	278	703.275599853586	5
1	280	703.633396807882	6
1	294	725.91699306964	6
1	296	729.390626542569	6
1	300	737.045369647088	7
1	302	743.375420179186	7
1	304	743.385520347509	7
1	306	745.206737638433	8
1	307	747.177064407135	8
1	309	747.746298385527	8
1	311	751.433923708821	9
1	312	751.670116695805	9
1	313	752.990304656833	8
1	315	758.184758649513	8
1	317	758.64585161194	9
1	321	763.323536186388	9
1	322	764.470274822585	8
1	326	769.930973026044	8
1	329	772.656623803539	9
1	333	782.605538701624	10
1	335	785.700790831636	10
1	336	789.641939762009	9
1	337	791.051334033941	8
1	338	793.651144450581	7
1	340	793.839749618144	7
1	341	795.180393218711	7
1	343	798.245995385835	7
1	344	804.555912967248	7
1	345	809.795901736963	6
1	346	809.95576810922	5
1	347	810.243916599369	4
1	349	813.496170369595	4
1	351	814.185922731608	5
1	352	815.682319068462	5
1	353	817.957539882197	4
1	357	826.066970822433	4
1	359	828.848887455111	4
1	360	829.483351574529	3
1	361	829.946877764801	2
1	362	832.417495600835	1
1	363	833.642127670926	0
1	370	848.179506668075	0
1	373	852.1686892715	1
1	377	859.898667095477	1
1	381	869.016558446923	1
1	383	874.463032690919	1
1	384	874.517758209204	0
1	386	875.829374328149	0
1	387	877.405418314286	0
1	389	886.461145315321	0
1	390	887.082306300275	0
1	392	893.887069529698	0
1	393	895.345692780829	0
1	395	900.833244362583	0
1	397	904.379176149286	1
1	398	905.46467984679	1
1	399	909.802092163414	0
1	401	915.070726443792	0
1	402	915.347302050174	0
1	406	921.290312289743	0
1	408	922.670084211474	0
1	410	926.259204214721	0
1	411	927.877312847065	0
1	419	968.113474807297	0
1	420	970.351353323971	0
1	422	972.059846730416	0
1	423	972.488371560871	0
1	425	979.014042706605	0
1	426	983.617206993584	0
1	428	986.40158991055	0
1	429	986.945910133528	0
1	431	991.477771818955	0
1	433	996.573320040998	1
1	434	996.670918760344	1
1	435	998.929054223579	0
1	437	1009.5893717972	0
1	438	1010.555638037759	0
1	440	1027.29326052894	0
1	441	1035.247467806451	0
1	443	1047.195191840301	0
1	444	1048.474677320766	0
1	446	1051.588422140614	0
1	448	1051.853602663273	1
1	449	1056.712898379977	1
1	450	1057.227169788775	0
1	455	1069.570309487394	0
1	457	1072.995454593012	1
1	459	1074.329777082393	2
1	460	1086.068433644907	2
1	461	1089.238336207371	1
1	463	1089.892028406125	1
1	464	1094.703604515832	1
1	465	1095.324561379542	0
1	467	1096.28675098785	0
1	469	1102.395414654277	1
1	470	1104.43182948423	1
1	474	1108.589561472402	1
1	476	1108.659087345032	2
1	478	1118.608720651366	2
1	479	1124.643654773808	1
1	480	1127.070556540993	0
1	482	1132.072607512783	0
1	491	1137.5084282047	1
1	493	1140.765229769752	2
1	495	1144.780081559334	3
1	500	1151.861347883656	4
1	502	1161.128600888311	5
1	517	1185.826755581526	5
1	518	1186.462179048665	4
1	519	1188.202937860027	3
1	520	1188.700202380522	2
1	522	1190.182284757979	2
1	523	1192.084679286922	2
1	525	1194.107094991637	2
1	527	1195.810170607742	3
1	528	1203.868782262915	3
1	529	1208.710512103944	2
1	530	1209.440231388907	1
1	531	1212.965553746996	0
1	539	1235.57636042901	0
1	540	1237.530835073322	0
1	542	1245.750567940076	0
1	544	1254.623518575976	1
1	545	1257.812291193013	1
1	546	1258.138464001055	0
1	551	1297.576801327344	0
1	552	1298.719516714405	0
1	554	1298.981981041257	0
1	555	1303.598913119418	0
1	557	1305.174030572477	0
1	558	1307.316174849787	0
1	560	1312.534111945697	0
1	561	1314.28313116777	0
1	565	1325.294640523372	0
1	568	1329.725973787391	1
1	569	1336.250543300432	1
1	570	1337.726851771318	0
1	572	1337.918346365047	0
1	574	1338.069482505731	1
1	575	1346.338832473076	1
1	576	1348.108596801573	0
1	578	1360.008685256734	0
1	580	1361.022701143741	1
1	584	1362.079177804878	1
1	585	1363.352524783835	0
1	587	1400.284102277724	0
1	588	1406.91521311909	0
1	593	1415.619746805441	0
1	594	1417.831040163751	0
1	596	1418.960130004518	0
1	600	1424.528878770452	1
1	602	1430.718816092059	2
1	605	1432.924682107722	3
1	606	1435.911514309518	3
1	607	1443.741960926571	2
1	608	1454.434024931011	1
1	609	1455.050786242196	0
1	613	1456.557563689539	0
1	615	1459.164886239505	0
1	617	1466.341925398978	0
1	618	1472.854896596638	0
1	620	1496.569148529909	0
1	621	1499.031617477185	0
1	623	1506.793690175289	0
1	624	1507.919562588539	0
1	628	1518.465787734605	0
1	630	1521.622526505848	1
1	635	1537.236882645073	2
1	637	1538.627409021411	3
1	642	1551.490065594297	3
1	643	1556.019361712722	2
1	644	1562.30460323671	1
1	645	1567.590763878513	0
1	647	1568.805776238846	0
1	648	1568.860173416027	0
1	650	1575.206070960299	0
1	654	1587.597529532276	1
1	656	1592.550768120903	2
1	658	1594.785254698345	3
1	661	1599.978539938441	4
1	662	1604.519058782994	4
1	663	1604.576501835903	3
1	667	1616.404968885488	3
1	670	1621.123406778662	4
1	671	1622.496075634482	4
1	672	1624.45757856891	3
1	673	1628.831316923577	2
1	674	1630.599320558946	1
1	676	1631.254750414244	1
1	677	1634.654528397408	1
1	679	1634.710330765916	1
1	680	1640.164632937291	1
1	681	1641.546912232403	0
1	683	1652.543207499767	0
1	684	1658.654183727749	0
1	686	1660.592548209223	0
1	688	1661.676721405022	1
1	689	1666.181915240327	1
1	691	1667.318732504404	1
1	693	1668.839998673156	2
1	697	1675.949801926389	2
1	699	1684.153737847449	2
1	701	1685.387269729313	3
1	702	1690.533215005489	3
1	703	1694.373096819477	2
1	704	1696.871210218091	1
1	706	1697.452804236935	1
1	707	1698.625846569604	1
1	709	1701.561559358482	1
1	710	1703.669636174644	1
1	711	1705.557242995636	0
1	713	1716.540947904621	0
1	714	1717.209667101416	0
1	716	1719.13214685948	0
1	717	1722.042206287771	0
1	719	1722.526526733274	0
1	720	1724.634553447843	0
1	722	1733.047037047973	0
1	723	1733.757183177599	0
1	725	1735.408242765257	0
1	727	1740.704718278887	1
1	728	1743.404553942906	1
1	729	1745.963720495103	0
1	731	1747.718800778385	0
1	732	1751.809856782569	0
1	737	1761.665908873459	0
1	739	1763.094515336496	1
1	741	1763.213757723395	2
1	742	1763.600975485736	2
1	743	1764.779881558067	1
1	745	1765.093499250388	1
1	747	1765.470013413068	2
1	748	1765.476070125582	2
1	749	1767.387829841127	1
1	751	1768.286539132837	1
1	752	1769.076418739408	1
1	753	1772.013430651719	0
1	755	1778.599508578021	0
1	757	1779.035512282923	1
1	758	1780.278217355212	1
1	762	1788.100640411957	1
1	764	1790.667473858621	2
1	766	1793.353085389727	3
1	769	1803.180920255599	4
1	770	1805.179734824316	4
1	772	1812.729547793283	4
1	773	1816.38242410609	4
1	774	1819.261512268197	3
1	775	1820.141586082414	2
1	777	1822.789597242941	2
1	781	1827.729542456423	3
1	783	1835.34251097782	4
1	785	1837.886953114946	4
1	790	1846.315880066733	4
1	791	1849.726309042532	4
1	792	1853.065241802652	3
1	793	1854.006964512283	2
1	794	1854.089470998053	1
1	795	1854.991843620289	0
1	797	1859.610694122373	0
1	801	1863.277726671024	0
1	803	1866.708582479766	0
1	804	1870.473310030221	0
1	811	1883.591531990599	0
1	815	1887.467234090877	1
1	817	1892.164969454295	2
1	819	1896.988062328872	3
1	825	1912.558782499358	3
1	827	1913.33164658053	3
1	829	1918.239553569083	4
1	830	1924.18111598425	4
1	831	1924.756064624518	3
1	832	1927.903653444012	2
1	833	1935.488040673896	1
1	835	1939.413014824499	1
1	836	1939.912965685046	1
1	837	1941.520247239943	0
1	839	1961.906213717047	0
1	840	1964.550378244193	0
1	842	1970.746609118175	0
1	843	1972.210625046863	0
1	845	1980.244380990038	0
1	846	1982.231973641623	0
1	851	1990.911080849943	0
1	852	1997.566705036847	0
1	854	2002.226518752834	0
1	856	2005.657567967903	1
1	858	2007.076585269853	2
1	859	2009.389932373474	2
1	860	2011.112483136763	1
1	862	2011.99281693691	1
1	864	2015.318506437137	2
1	865	2015.674210321527	2
1	867	2016.680203553257	2
1	869	2016.958808805942	3
1	871	2019.351684363755	4
1	872	2019.516635253933	4
1	874	2022.320615006906	4
1	882	2036.387777157786	5
1	887	2040.160363597193	6
1	891	2045.576407124212	6
1	893	2048.808516908357	6
1	897	2049.768310849397	7
1	899	2053.596204939605	7
1	900	2054.945649331927	6
1	901	2056.590355457737	5
1	903	2059.760462141642	5
1	905	2061.907945737218	6
1	906	2061.960858127313	6
1	907	2069.170393093351	5
1	914	2081.015602415656	4
1	915	2081.617835593001	3
1	916	2083.253162690994	2
1	917	2085.296774812003	1
1	919	2093.505152452636	1
1	923	2097.229950162052	2
1	925	2098.219906843734	3
1	927	2104.033568768781	3
1	928	2105.190487437947	2
1	930	2105.383738213321	2
1	932	2106.750265175274	3
1	934	2111.236557246119	4
1	936	2116.456695820183	5
1	937	2119.440425065855	5
1	938	2125.21050675989	4
1	939	2125.319399723091	3
1	940	2129.503797699146	2
1	942	2130.162292470775	2
1	943	2130.345400273122	2
1	945	2132.681831277386	2
1	946	2136.087387708765	2
1	948	2139.266205856075	2
1	952	2145.114572147188	2
1	953	2145.413947406568	1
1	955	2146.850414131752	1
1	961	2155.214678228357	2
1	964	2164.080067107819	2
1	965	2171.752685136969	1
1	966	2172.097787492307	0
1	968	2172.968361916568	0
1	969	2173.578451465288	0
1	977	2210.235865739089	0
1	978	2212.786755189699	0
1	983	2219.504720468416	0
1	984	2225.431006498381	0
1	986	2226.20237524347	0
1	987	2227.069514450745	0
1	989	2228.252826959931	0
1	991	2231.189043554593	1
1	992	2235.469099658134	1
1	993	2235.978124252511	0
1	995	2235.990529159481	0
1	996	2242.109438880592	0
1	1004	2274.316062352235	0
1	1006	2277.64936585754	1
1	1008	2279.369371625004	2
1	1015	2290.206805974933	2
1	1017	2291.520128777268	2
1	1018	2294.529377313299	2
1	1023	2302.009609685989	2
1	1024	2303.291012798895	2
1	1026	2304.937198279872	2
1	1028	2305.007415274873	3
1	1029	2306.281841004565	3
1	1030	2310.135818950126	2
1	1039	2319.336706072754	2
1	1041	2320.262451255038	3
1	1046	2323.506657643407	4
1	1054	2329.026318484358	5
1	1056	2329.488023016245	6
1	1062	2337.883707012958	7
1	1070	2363.068199488581	7
1	1071	2365.254729821221	6
1	1073	2366.453068044888	6
1	1074	2368.113345540677	6
1	1079	2376.883160209059	6
1	1081	2384.144808062979	7
1	1083	2385.318994031209	8
1	1084	2390.692351290727	8
1	1085	2391.765288866774	7
1	1087	2398.835523000256	7
1	1089	2402.780862958371	8
1	1090	2406.84242826026	8
1	1091	2407.904521117076	7
1	1095	2410.825679595639	6
1	1096	2411.568852612418	5
1	1098	2411.904107173243	5
1	1099	2416.501196721587	5
1	1100	2419.875084290339	4
1	1107	2430.448966902156	3
1	1111	2443.403890857669	2
1	1113	2447.089342177539	2
1	1114	2460.273233146976	2
1	1115	2463.25850252401	1
1	1116	2464.262539114372	0
1	1132	2499.949391704458	0
2	175	363.721677923973	32
2	178	371.160970607444	33
2	179	371.522487789732	34
2	180	373.907191981317	35
2	181	374.592113781279	36
2	185	378.034220088662	37
2	186	379.471575822197	38
2	189	384.47126006301	39
2	195	442.89079941513	40
2	208	482.956775286265	41
2	209	483.953263331994	42
2	213	500.133253786538	43
2	216	504.3552683378	44
2	227	537.166150245357	45
2	228	538.199425427804	46
2	231	539.559418796125	47
2	234	545.646633975777	48
2	239	550.530812784055	49
2	240	553.411145155802	50
2	249	624.674101302425	51
2	255	626.826838914034	52
2	258	638.88641673533	53
2	261	646.48971319134	54
2	294	725.91699306964	55
2	302	743.375420179186	56
2	307	747.177064407135	57
2	312	751.670116695805	58
2	313	752.990304656833	59
2	321	763.323536186388	60
2	322	764.470274822585	61
2	335	785.700790831636	62
2	336	789.641939762009	63
2	337	791.051334033941	64
2	338	793.651144450581	65
2	341	795.180393218711	66
2	344	804.555912967248	67
2	345	809.795901736963	68
2	346	809.95576810922	69
2	347	810.243916599369	70
2	352	815.682319068462	71
2	353	817.957539882197	72
2	359	828.848887455111	73
2	360	829.483351574529	74
2	361	829.946877764801	75
2	362	832.417495600835	76
2	363	833.642127670926	77
2	377	859.898667095477	78
2	383	874.463032690919	79
2	384	874.517758209204	80
2	387	877.405418314286	81
2	390	887.082306300275	82
2	393	895.345692780829	83
2	398	905.46467984679	84
2	399	909.802092163414	85
2	402	915.347302050174	86
2	408	922.670084211474	87
2	411	927.877312847065	88
2	420	970.351353323971	89
2	423	972.488371560871	90
2	426	983.617206993584	91
2	429	986.945910133528	92
2	434	996.670918760344	93
2	435	998.929054223579	94
2	438	1010.555638037759	95
2	441	1035.247467806451	96
2	444	1048.474677320766	97
2	449	1056.712898379977	98
2	450	1057.227169788775	99
2	460	1086.068433644907	100
2	461	1089.238336207371	101
2	464	1094.703604515832	102
2	465	1095.324561379542	103
2	470	1104.43182948423	104
2	478	1118.608720651366	105
2	479	1124.643654773808	106
2	480	1127.070556540993	107
2	517	1185.826755581526	108
2	518	1186.462179048665	109
2	519	1188.202937860027	110
2	520	1188.700202380522	111
2	523	1192.084679286922	112
2	528	1203.868782262915	113
2	529	1208.710512103944	114
2	530	1209.440231388907	115
2	531	1212.965553746996	116
2	540	1237.530835073322	117
2	545	1257.812291193013	118
2	546	1258.138464001055	119
2	552	1298.719516714405	120
2	555	1303.598913119418	121
2	558	1307.316174849787	122
2	561	1314.28313116777	123
2	569	1336.250543300432	124
2	570	1337.726851771318	125
2	575	1346.338832473076	126
2	576	1348.108596801573	127
2	584	1362.079177804878	128
2	585	1363.352524783835	129
2	588	1406.91521311909	130
2	594	1417.831040163751	131
2	606	1435.911514309518	132
2	607	1443.741960926571	133
2	608	1454.434024931011	134
2	609	1455.050786242196	135
2	615	1459.164886239505	136
2	618	1472.854896596638	137
2	621	1499.031617477185	138
2	624	1507.919562588539	139
2	642	1551.490065594297	140
2	643	1556.019361712722	141
2	644	1562.30460323671	142
2	645	1567.590763878513	143
2	648	1568.860173416027	144
2	662	1604.519058782994	145
2	663	1604.576501835903	146
2	671	1622.496075634482	147
2	672	1624.45757856891	148
2	673	1628.831316923577	149
2	674	1630.599320558946	150
2	677	1634.654528397408	151
2	680	1640.164632937291	152
2	681	1641.546912232403	153
2	684	1658.654183727749	154
2	689	1666.181915240327	155
2	697	1675.949801926389	156
2	702	1690.533215005489	157
2	703	1694.373096819477	158
2	704	1696.871210218091	159
2	707	1698.625846569604	160
2	710	1703.669636174644	161
2	711	1705.557242995636	162
2	714	1717.209667101416	163
2	717	1722.042206287771	164
2	720	1724.634553447843	165
2	723	1733.757183177599	166
2	728	1743.404553942906	167
2	729	1745.963720495103	168
2	732	1751.809856782569	169
2	742	1763.600975485736	170
2	743	1764.779881558067	171
2	748	1765.476070125582	172
2	749	1767.387829841127	173
2	752	1769.076418739408	174
2	753	1772.013430651719	175
2	758	1780.278217355212	176
2	770	1805.179734824316	177
2	773	1816.38242410609	178
2	774	1819.261512268197	179
2	775	1820.141586082414	180
2	785	1837.886953114946	181
2	791	1849.726309042532	182
2	792	1853.065241802652	183
2	793	1854.006964512283	184
2	794	1854.089470998053	185
2	795	1854.991843620289	186
2	801	1863.277726671024	187
2	804	1870.473310030221	188
2	825	1912.558782499358	189
2	830	1924.18111598425	190
2	831	1924.756064624518	191
2	832	1927.903653444012	192
2	833	1935.488040673896	193
2	836	1939.912965685046	194
2	837	1941.520247239943	195
2	840	1964.550378244193	196
2	843	1972.210625046863	197
2	846	1982.231973641623	198
2	852	1997.566705036847	199
2	859	2009.389932373474	200
2	860	2011.112483136763	201
2	865	2015.674210321527	202
2	872	2019.516635253933	203
2	891	2045.576407124212	204
2	899	2053.596204939605	205
2	900	2054.945649331927	206
2	901	2056.590355457737	207
2	906	2061.960858127313	208
2	907	2069.170393093351	209
2	914	2081.015602415656	210
2	915	2081.617835593001	211
2	916	2083.253162690994	212
2	917	2085.296774812003	213
2	927	2104.033568768781	214
2	928	2105.190487437947	215
2	937	2119.440425065855	216
2	938	2125.21050675989	217
2	939	2125.319399723091	218
2	940	2129.503797699146	219
2	943	2130.345400273122	220
2	946	2136.087387708765	221
2	952	2145.114572147188	222
2	953	2145.413947406568	223
2	964	2164.080067107819	224
2	965	2171.752685136969	225
2	966	2172.097787492307	226
2	969	2173.578451465288	227
2	978	2212.786755189699	228
2	984	2225.431006498381	229
2	987	2227.069514450745	230
2	992	2235.469099658134	231
2	993	2235.978124252511	232
2	996	2242.109438880592	233
2	1015	2290.206805974933	234
2	1018	2294.529377313299	235
2	1024	2303.291012798895	236
2	1029	2306.281841004565	237
2	1030	2310.135818950126	238
2	1070	2363.068199488581	239
2	1071	2365.254729821221	240
2	1074	2368.113345540677	241
2	1084	2390.692351290727	242
2	1085	2391.765288866774	243
2	1090	2406.84242826026	244
2	1091	2407.904521117076	245
2	1095	2410.825679595639	246
2	1096	2411.568852612418	247
2	1099	2416.501196721587	248
2	1100	2419.875084290339	249
2	1107	2430.448966902156	250
2	1111	2443.403890857669	251
2	1114	2460.273233146976	252
2	1115	2463.25850252401	253
2	1116	2464.262539114372	254
3	175	363.721677923973	26.113599709462
3	178	371.160970607444	25.580146671334
3	179	371.522487789732	24.367029732706
3	180	373.907191981317	26.239508777189
3	181	374.592113781279	19.552911528816
3	185	378.034220088662	10.203290088696
3	186	379.471575822197	4.080260773315
3	189	384.47126006301	2.100657556347
3	195	442.89079941513	6.219025473032
3	208	482.956775286265	16.582737740403
3	209	483.953263331994	16.604090345155
3	213	500.133253786538	13.77593861554
3	216	504.3552683378	0.814201495281
3	227	537.166150245357	7.898449350962
3	228	538.199425427804	5.35752953397
3	231	539.559418796125	0.537860431223
3	234	545.646633975777	1.917110624654
3	239	550.530812784055	0.786152445431
3	240	553.411145155802	3.653493041681
3	249	624.674101302425	0.296471385088
3	255	626.826838914034	0.449827456561
3	258	638.88641673533	10.736975599017
3	261	646.48971319134	0.448320075281
3	294	725.91699306964	67.5185366583
3	302	743.375420179186	81.933529759294
3	307	747.177064407135	73.575476185741
3	312	751.670116695805	61.420250302818
3	313	752.990304656833	49.714704803247
3	321	763.323536186388	33.932909643819
3	322	764.470274822585	30.55930269116
3	335	785.700790831636	40.494053193203
3	336	789.641939762009	41.895641376482
3	337	791.051334033941	39.61741032512
3	338	793.651144450581	35.466385801068
3	341	795.180393218711	36.534541606771
3	344	804.555912967248	45.55923913936
3	345	809.795901736963	43.139202410698
3	346	809.95576810922	40.024795083176
3	347	810.243916599369	37.58729279583
3	352	815.682319068462	36.232103665675
3	353	817.957539882197	35.352001180573
3	359	828.848887455111	30.602892069276
3	360	829.483351574529	15.987181204934
3	361	829.946877764801	15.760955033193
3	362	832.417495600835	13.43403119793
3	363	833.642127670926	7.575156848493
3	377	859.898667095477	7.729977823977
3	383	874.463032690919	10.624010902159
3	384	874.517758209204	5.501199762281
3	387	877.405418314286	1.576043986137
3	390	887.082306300275	0.621160984954
3	393	895.345692780829	1.458623251131
3	398	905.46467984679	4.631435484207
3	399	909.802092163414	5.422916014128
3	402	915.347302050174	0.276575606382
3	408	922.670084211474	1.379771921731
3	411	927.877312847065	1.618108632344
3	420	970.351353323971	2.237878516674
3	423	972.488371560871	0.428524830455
3	426	983.617206993584	4.603164286979
3	429	986.945910133528	0.544320222978
3	434	996.670918760344	5.193146941389
3	435	998.929054223579	2.355734182581
3	438	1010.555638037759	0.966266240559
3	441	1035.247467806451	7.954207277511
3	444	1048.474677320766	1.279485480465
3	449	1056.712898379977	5.124476239363
3	450	1057.227169788775	5.373567125502
3	460	1086.068433644907	16.498124157513
3	461	1089.238336207371	16.242881614359
3	464	1094.703604515832	20.373827433439
3	465	1095.324561379542	5.432532973417
3	470	1104.43182948423	8.14507849638
3	478	1118.608720651366	10.246937900174
3	479	1124.643654773808	16.054093301406
3	480	1127.070556540993	18.411469195961
3	517	1185.826755581526	48.318327376826
3	518	1186.462179048665	45.696949278913
3	519	1188.202937860027	43.422856300693
3	520	1188.700202380522	36.838854496866
3	523	1192.084679286922	30.956078398611
3	528	1203.868782262915	26.952482602718
3	529	1208.710512103944	18.528227345965
3	530	1209.440231388907	15.33313639727
3	531	1212.965553746996	17.155383139254
3	540	1237.530835073322	1.954474644312
3	545	1257.812291193013	12.061723252937
3	546	1258.138464001055	3.514945425079
3	552	1298.719516714405	1.142715387061
3	555	1303.598913119418	4.616932078161
3	558	1307.316174849787	2.14214427731
3	561	1314.28313116777	1.749019222073
3	569	1336.250543300432	10.95590277706
3	570	1337.726851771318	8.000877983927
3	575	1346.338832473076	8.420486108029
3	576	1348.108596801573	10.039114295842
3	584	1362.079177804878	1.056476661137
3	585	1363.352524783835	1.666169358666
3	588	1406.91521311909	6.631110841366
3	594	1417.831040163751	2.21129335831
3	606	1435.911514309518	16.69171683148
3	607	1443.741960926571	19.213082156119
3	608	1454.434024931011	23.715208838952
3	609	1455.050786242196	22.126104134474
3	615	1459.164886239505	2.607322549966
3	618	1472.854896596638	6.51297119766
3	621	1499.031617477185	2.462468947276
3	624	1507.919562588539	1.12587241325
3	642	1551.490065594297	29.867539088449
3	643	1556.019361712722	18.782479067649
3	644	1562.30460323671	23.677194215299
3	645	1567.590763878513	22.072015170645
3	648	1568.860173416027	0.054397177181
3	662	1604.519058782994	24.596952910993
3	663	1604.576501835903	16.978972303627
3	671	1622.496075634482	27.710820936137
3	672	1624.45757856891	24.479038630469
3	673	1628.831316923577	14.183772145714
3	674	1630.599320558946	14.194351673458
3	677	1634.654528397408	13.531121618746
3	680	1640.164632937291	8.909882523047
3	681	1641.546912232403	6.836581466487
3	684	1658.654183727749	6.110976227982
3	689	1666.181915240327	5.589367031104
3	697	1675.949801926389	8.631069421985
3	702	1690.533215005489	21.693216332333
3	703	1694.373096819477	25.245570235027
3	704	1696.871210218091	12.717472370642
3	707	1698.625846569604	13.238576840291
3	710	1703.669636174644	6.216831937709
3	711	1705.557242995636	3.995683637154
3	714	1717.209667101416	0.668719196795
3	717	1722.042206287771	2.910059428291
3	720	1724.634553447843	2.108026714569
3	723	1733.757183177599	0.710146129626
3	728	1743.404553942906	7.996311177649
3	729	1745.963720495103	5.259002216216
3	732	1751.809856782569	4.091056004184
3	742	1763.600975485736	1.935066612277
3	743	1764.779881558067	1.685366221571
3	748	1765.476070125582	2.262312402187
3	749	1767.387829841127	2.294330590739
3	752	1769.076418739408	3.60640532634
3	753	1772.013430651719	3.726891518882
3	758	1780.278217355212	1.678708777191
3	770	1805.179734824316	20.812592610656
3	773	1816.38242410609	28.281783694133
3	774	1819.261512268197	28.594038409576
3	775	1820.141586082414	26.788500692687
3	785	1837.886953114946	25.157405321663
3	791	1849.726309042532	23.608176937742
3	792	1853.065241802652	25.335699346229
3	793	1854.006964512283	18.664453534463
3	794	1854.089470998053	15.588822354202
3	795	1854.991843620289	8.675963553556
3	801	1863.277726671024	1.113913286945
3	804	1870.473310030221	3.764727550455
3	825	1912.558782499358	25.091548408481
3	830	1924.18111598425	32.016146529955
3	831	1924.756064624518	27.768002295646
3	832	1927.903653444012	24.662238872842
3	833	1935.488040673896	22.156394093366
3	836	1939.912965685046	21.673412115963
3	837	1941.520247239943	2.107232415444
3	840	1964.550378244193	2.644164527146
3	843	1972.210625046863	1.464015928688
3	846	1982.231973641623	1.987592651585
3	852	1997.566705036847	6.655624186904
3	859	2009.389932373474	7.16341362064
3	860	2011.112483136763	5.45491516886
3	865	2015.674210321527	8.597625051674
3	872	2019.516635253933	7.523818317023
3	891	2045.576407124212	28.896203570955
3	899	2053.596204939605	34.24452057585
3	900	2054.945649331927	32.625034325021
3	901	2056.590355457737	32.13810872975
3	906	2061.960858127313	25.573080969527
3	907	2069.170393093351	29.010029496158
3	914	2081.015602415656	31.4535859773
3	915	2081.617835593001	31.849524743604
3	916	2083.253162690994	23.492700549352
3	917	2085.296774812003	23.388829074785
3	927	2104.033568768781	10.528416316145
3	928	2105.190487437947	10.061719921509
3	937	2119.440425065855	22.210474903803
3	938	2125.21050675989	26.990599916156
3	939	2125.319399723091	19.93566150977
3	940	2129.503797699146	22.753532523872
3	943	2130.345400273122	19.108843027003
3	946	2136.087387708765	19.630691888582
3	952	2145.114572147188	12.432740869802
3	953	2145.413947406568	6.147741550493
3	964	2164.080067107819	17.229652976067
3	965	2171.752685136969	22.829747670162
3	966	2172.097787492307	16.88310926395
3	969	2173.578451465288	0.61008954872
3	978	2212.786755189699	2.55088945061
3	984	2225.431006498381	5.926286029965
3	987	2227.069514450745	0.867139207275
3	992	2235.469099658134	7.216272698203
3	993	2235.978124252511	4.789080697918
3	996	2242.109438880592	6.118909721111
3	1015	2290.206805974933	12.557440117393
3	1018	2294.529377313299	15.160005688295
3	1024	2303.291012798895	11.770884021627
3	1029	2306.281841004565	11.516069393748
3	1030	2310.135818950126	8.126209264137
3	1070	2363.068199488581	58.060784213708
3	1071	2365.254729821221	53.787769178995
3	1074	2368.113345540677	48.776639467923
3	1084	2390.692351290727	67.18569364732
3	1085	2391.765288866774	62.738970382416
3	1090	2406.84242826026	77.354405244015
3	1091	2407.904521117076	70.020814104118
3	1095	2410.825679595639	40.606868860774
3	1096	2411.568852612418	34.685692403359
3	1099	2416.501196721587	32.356388658608
3	1100	2419.875084290339	34.55609025913
3	1107	2430.448966902156	21.688462389951
3	1111	2443.403890857669	20.457954790169
3	1114	2460.273233146976	32.870580229949
3	1115	2463.25850252401	30.506766420495
3	1116	2464.262539114372	17.173196936833
4	175	363.721677923973	18.140853987863
4	178	371.160970607444	24.005512550418
4	179	371.522487789732	23.854804585604
4	180	373.907191981317	18.867989728854
4	181	374.592113781279	11.302299230313
4	184	376.452877082859	8.621947082893
4	185	378.034220088662	2.64290503978
4	188	382.370602506663	0
4	194	436.671773942098	0
4	204	474.98865254556	14.135983922733
4	207	477.751610388222	11.37757284236
4	208	482.956775286265	15.607602299426
4	209	483.953263331994	7.40447492735
4	212	497.685695660876	11.328380489878
4	215	503.541066842519	0
4	221	526.822290225991	0
4	226	535.506429871272	6.238728976877
4	227	537.166150245357	4.324254351523
4	230	539.021558364902	0
4	233	543.729523351123	0
4	236	549.744660338624	0
4	239	550.530812784055	0.773160669934
4	248	624.377629917337	0
4	254	626.379732136594	0.002720679121
4	257	628.149441136313	0
4	260	646.041393116059	0
4	293	725.71626145367	67.31780504233
4	294	725.91699306964	66.226068763131
4	301	740.172456031577	78.730565611685
4	302	743.375420179186	69.773831957792
4	307	747.177064407135	56.927198014148
4	312	751.670116695805	48.394516842219
4	313	752.990304656833	49.356907848951
4	320	759.796953700521	30.406327157952
4	321	763.323536186388	29.412564054963
4	322	764.470274822585	27.424905175497
4	327	770.52129807755	27.135777730041
4	334	783.076401160694	37.869663522261
4	335	785.700790831636	37.954492446109
4	336	789.641939762009	38.208016053188
4	337	791.051334033941	32.866575384428
4	338	793.651144450581	35.005292838641
4	341	795.180393218711	36.183719390823
4	344	804.555912967248	37.899213640983
4	345	809.795901736963	39.864928710919
4	346	809.95576810922	37.299144305681
4	347	810.243916599369	30.793701196582
4	352	815.682319068462	33.076780366838
4	353	817.957539882197	24.117790264053
4	358	828.467569237987	30.221573852152
4	359	828.848887455111	15.352717085516
4	360	829.483351574529	15.297428842921
4	361	829.946877764801	10.963413361896
4	362	832.417495600835	6.350524778402
4	371	850.587979110059	2.408472441984
4	376	853.471295946451	1.302606674951
4	377	859.898667095477	6.789580172351
4	382	869.230322184583	5.391300395823
4	383	874.463032690919	5.446474243996
4	386	875.829374328149	0
4	389	886.461145315321	0
4	392	893.887069529698	0
4	395	900.833244362583	0
4	398	905.46467984679	1.085503697504
4	401	915.070726443792	0
4	407	922.557309556843	1.2669972671
4	410	926.259204214721	0
4	419	968.113474807297	0
4	422	972.059846730416	0
4	425	979.014042706605	0
4	428	986.40158991055	0
4	431	991.477771818955	0
4	434	996.670918760344	0.097598719346
4	437	1009.5893717972	0
4	440	1027.29326052894	0
4	443	1047.195191840301	0
4	446	1051.588422140614	0
4	449	1056.712898379977	4.859295716704
4	455	1069.570309487394	0
4	460	1086.068433644907	13.072979051895
4	461	1089.238336207371	14.908559124978
4	464	1094.703604515832	4.811576109707
4	467	1096.28675098785	0
4	470	1104.43182948423	2.036414829953
4	477	1115.656707159248	7.294924408056
4	478	1118.608720651366	10.019159178964
4	479	1124.643654773808	15.984567428776
4	482	1132.072607512783	0
4	485	1134.376552513114	1.681955794358
4	513	1176.203307319422	40.094499735684
4	516	1185.612073974925	48.103645770225
4	517	1185.826755581526	45.061525811774
4	518	1186.462179048665	41.682097489331
4	519	1188.202937860027	36.341589976371
4	520	1188.700202380522	27.571601492211
4	523	1192.084679286922	15.168379626725
4	528	1203.868782262915	13.686497504936
4	529	1208.710512103944	14.603417112307
4	530	1209.440231388907	13.630060781165
4	539	1235.57636042901	0
4	542	1245.750567940076	0
4	545	1257.812291193013	3.188772617037
4	551	1297.576801327344	0
4	554	1298.981981041257	0
4	557	1305.174030572477	0
4	560	1312.534111945697	0
4	566	1328.03107468209	2.736434158718
4	569	1336.250543300432	6.524569513041
4	572	1337.918346365047	0
4	575	1346.338832473076	8.269349967345
4	578	1360.008685256734	0
4	583	1362.017841407566	0.995140263825
4	584	1362.079177804878	0.392822379709
4	587	1400.284102277724	0
4	593	1415.619746805441	0
4	596	1418.960130004518	0
4	603	1431.509958238804	12.290160760766
4	606	1435.911514309518	11.382635539066
4	607	1443.741960926571	13.023144834512
4	608	1454.434024931011	21.509342823289
4	614	1457.953797209876	1.396233520337
4	617	1466.341925398978	0
4	620	1496.569148529909	0
4	623	1506.793690175289	0
4	638	1542.511482998172	24.045695263567
4	641	1546.365434320981	24.742907815133
4	642	1551.490065594297	14.253182949224
4	643	1556.019361712722	17.391952691311
4	644	1562.30460323671	16.785854528842
4	647	1568.805776238846	0
4	650	1575.206070960299	0
4	659	1599.158546080068	19.236440208067
4	662	1604.519058782994	16.921529250718
4	663	1604.576501835903	12.025733715
4	668	1617.544838278715	22.75958358037
4	671	1622.496075634482	22.517535696041
4	672	1624.45757856891	9.810033791047
4	673	1628.831316923577	12.426348038089
4	674	1630.599320558946	9.475913780284
4	677	1634.654528397408	3.399777983164
4	680	1640.164632937291	5.454302171375
4	683	1652.543207499767	0
4	686	1660.592548209223	0
4	689	1666.181915240327	4.505193835305
4	696	1673.954468898264	6.63573639386
4	697	1675.949801926389	7.109803253233
4	702	1690.533215005489	21.405688421039
4	703	1694.373096819477	10.219358972028
4	704	1696.871210218091	11.483940488778
4	707	1698.625846569604	1.173042332669
4	710	1703.669636174644	2.108076816162
4	713	1716.540947904621	0
4	716	1719.13214685948	0
4	719	1722.526526733274	0
4	722	1733.047037047973	0
4	725	1735.408242765257	0
4	728	1743.404553942906	2.699835664019
4	731	1747.718800778385	0
4	737	1761.665908873459	0
4	742	1763.600975485736	0.50646014924
4	743	1764.779881558067	1.566123834672
4	748	1765.476070125582	0.382570875194
4	749	1767.387829841127	1.917816428059
4	752	1769.076418739408	0.789879606571
4	755	1778.599508578021	0
4	758	1780.278217355212	1.242705072289
4	767	1794.565195428115	10.198053214455
4	770	1805.179734824316	17.079094412359
4	773	1816.38242410609	25.714950247469
4	774	1819.261512268197	25.90842687847
4	775	1820.141586082414	16.960665826815
4	784	1837.536494347759	24.806946554476
4	785	1837.886953114946	15.097355872005
4	788	1839.931577299194	13.813445194404
4	791	1849.726309042532	21.996766586109
4	792	1853.065241802652	17.722730824832
4	793	1854.006964512283	15.506315868432
4	794	1854.089470998053	7.77359093132
4	797	1859.610694122373	0
4	800	1862.583255820495	0.419442436416
4	803	1866.708582479766	0
4	821	1901.800352648649	18.20882065805
4	824	1911.903692606742	24.436458515865
4	825	1912.558782499358	20.393813045063
4	830	1924.18111598425	27.193053655378
4	831	1924.756064624518	21.514650053348
4	832	1927.903653444012	14.572006863482
4	833	1935.488040673896	17.248487104813
4	836	1939.912965685046	0.499950860547
4	839	1961.906213717047	0
4	842	1970.746609118175	0
4	845	1980.244380990038	0
4	851	1990.911080849943	0
4	854	2002.226518752834	0
4	859	2009.389932373474	3.732364405571
4	860	2011.112483136763	4.03589786691
4	865	2015.674210321527	3.681393384617
4	872	2019.516635253933	4.198128816796
4	890	2043.524718331723	26.844514778466
4	891	2045.576407124212	28.61759831827
4	898	2050.310073293457	30.958388929702
4	899	2053.596204939605	31.275589932699
4	900	2054.945649331927	30.49340260394
4	901	2056.590355457737	20.202578299951
4	906	2061.960858127313	21.80049453012
4	907	2069.170393093351	20.361876184994
4	913	2077.45716668429	27.895150245934
4	914	2081.015602415656	31.247291566259
4	915	2081.617835593001	21.857373451359
4	916	2083.253162690994	21.345216953776
4	917	2085.296774812003	11.713248493473
4	926	2100.124235631169	6.619083178533
4	927	2104.033568768781	8.904801252343
4	928	2105.190487437947	7.960537275895
4	937	2119.440425065855	21.220518222121
4	938	2125.21050675989	19.826768546569
4	939	2125.319399723091	18.569134547817
4	940	2129.503797699146	18.267240453027
4	943	2130.345400273122	13.888704452939
4	946	2136.087387708765	5.92509523799
4	951	2144.02732633626	11.345495058874
4	952	2145.114572147188	5.848366291113
4	953	2145.413947406568	1.551124029286
4	963	2162.737954251503	15.887540119751
4	964	2164.080067107819	15.157129641012
4	965	2171.752685136969	16.538006908612
4	968	2172.968361916568	0
4	977	2210.235865739089	0
4	983	2219.504720468416	0
4	986	2226.20237524347	0
4	989	2228.252826959931	0
4	992	2235.469099658134	4.280056103541
4	995	2235.990529159481	0
4	1004	2274.316062352235	0
4	1014	2285.281015368432	7.631649510892
4	1015	2290.206805974933	10.837434349929
4	1018	2294.529377313299	14.839129955844
4	1021	2300.743067949671	9.222939172403
4	1024	2303.291012798895	8.525241188078
4	1029	2306.281841004565	4.272231318576
4	1030	2310.135818950126	5.198620670254
4	1069	2356.881467571888	51.874052297015
4	1070	2363.068199488581	51.601238846355
4	1071	2365.254729821221	45.918023748467
4	1074	2368.113345540677	47.850894285639
4	1077	2372.946819034866	49.440161391459
4	1084	2390.692351290727	61.666032806369
4	1085	2391.765288866774	62.277265850529
4	1090	2406.84242826026	68.958721247302
4	1091	2407.904521117076	41.451453072188
4	1094	2409.400480523668	39.181669788803
4	1095	2410.825679595639	33.94251938658
4	1096	2411.568852612418	27.424044549439
4	1099	2416.501196721587	31.182202690378
4	1100	2419.875084290339	21.039561290083
4	1103	2423.742337706199	20.961474747828
4	1106	2428.244262375269	19.483757863064
4	1107	2430.448966902156	18.544859728913
4	1110	2434.72696948832	11.78103342082
4	1111	2443.403890857669	16.001237940642
4	1114	2460.273233146976	27.521497043461
4	1115	2463.25850252401	16.169160346471
5	183	375.391315048882	1
5	191	416.09885070976	1
5	197	457.766007587543	1
5	206	476.548788404644	1
5	211	486.357315170998	1
5	218	519.361765448563	1
5	223	529.267700894395	1
5	242	564.300560389618	1
5	245	619.011098646388	1
5	251	625.351485420614	1
5	263	656.547358981017	1
5	275	692.763323156002	2
5	282	703.740050135436	2
5	284	710.380849687831	3
5	288	720.453856391853	2
5	291	723.431017966754	2
5	298	733.910972131425	1
5	319	758.996673827888	1
5	324	766.656699326265	1
5	331	779.450215402787	1
5	355	818.983464402905	1
5	365	835.248604404272	1
5	368	843.367700009282	1
5	375	853.109086923126	1
5	379	863.83902178876	1
5	404	920.493155444247	1
5	413	931.651819903604	1
5	415	933.345352980081	2
5	452	1058.518930789588	1
5	472	1108.361782751192	1
5	484	1132.694596718756	1
5	487	1136.108807583738	1
5	489	1136.333826018112	2
5	498	1148.078871593158	2
5	504	1163.720581410365	3
5	507	1168.488416785386	3
5	511	1173.076299037651	2
5	515	1176.916299660197	1
5	533	1216.291314203088	1
5	536	1230.755115960214	1
5	548	1272.682469325331	1
5	563	1317.361855239214	1
5	582	1361.686355425169	1
5	590	1413.14304119274	1
5	598	1419.219797478038	1
5	611	1455.374959090924	1
5	626	1512.613832586893	1
5	632	1526.463072663728	2
5	640	1545.518748707868	1
5	652	1579.922105872001	1
5	665	1614.647544777863	1
5	695	1669.12752658445	1
5	734	1752.69058199458	1
5	760	1784.36714221366	1
5	779	1826.11813210479	1
5	787	1838.500648643851	1
5	799	1862.163813384079	1
5	806	1870.862406747146	1
5	809	1881.496160769119	1
5	813	1883.79523115591	2
5	823	1903.24141457117	1
5	848	1986.939751930008	1
5	876	2024.452246727987	1
5	878	2027.727541502782	2
5	880	2030.661302349244	3
5	884	2037.18732466916	4
5	895	2049.562016438356	1
5	909	2073.58352631853	1
5	911	2074.263168382427	2
5	921	2095.128767516438	1
5	950	2143.862823377282	1
5	957	2148.922937466807	1
5	959	2150.669734305564	2
5	971	2183.044205315737	1
5	974	2202.435043403632	1
5	980	2216.788444128043	1
5	998	2249.729384129566	1
5	1001	2251.367958607534	1
5	1010	2279.690247357455	1
5	1012	2280.385384205945	2
5	1020	2294.765771610817	1
5	1032	2311.466960642226	1
5	1034	2314.816185985176	2
5	1037	2318.058885096036	2
5	1043	2321.349749090659	3
5	1048	2326.870960380821	3
5	1050	2327.4267847295	4
5	1052	2328.107968982309	5
5	1058	2332.981509177791	6
5	1067	2354.319388697645	2
5	1076	2370.218810734865	1
5	1093	2408.760504512205	1
5	1102	2422.9459360675	1
5	1105	2427.402652917027	1
5	1109	2432.751736103515	1
5	1118	2465.658478271555	1
5	1120	2472.320315154536	2
5	1123	2473.889202106358	2
5	1126	2478.649007051707	2
5	1130	2498.862924785266	1
6	183	375.391315048882	0
6	184	376.452877082859	0
6	191	416.09885070976	0
6	192	428.285051721609	0
6	197	457.766007587543	0
6	204	474.98865254556	0
6	206	476.548788404644	0
6	207	477.751610388222	0
6	211	486.357315170998	0
6	212	497.685695660876	0
6	218	519.361765448563	0
6	219	521.171188623144	0
6	223	529.267700894395	0
6	226	535.506429871272	0
6	242	564.300560389618	0
6	243	586.878864834208	0
6	245	619.011098646388	0
6	246	621.457658757041	0
6	251	625.351485420614	0
6	254	626.379732136594	0
6	263	656.547358981017	0
6	275	692.763323156002	1
6	276	692.864500273431	1
6	282	703.740050135436	1
6	284	710.380849687831	2
6	285	715.290266955163	2
6	286	715.422295031566	1
6	288	720.453856391853	1
6	289	722.355451729889	1
6	291	723.431017966754	1
6	292	724.458636052457	1
6	293	725.71626145367	0
6	298	733.910972131425	0
6	301	740.172456031577	0
6	319	758.996673827888	0
6	320	759.796953700521	0
6	324	766.656699326265	0
6	327	770.52129807755	0
6	331	779.450215402787	0
6	334	783.076401160694	0
6	355	818.983464402905	0
6	358	828.467569237987	0
6	365	835.248604404272	0
6	366	837.755112640667	0
6	368	843.367700009282	0
6	371	850.587979110059	0
6	375	853.109086923126	0
6	376	853.471295946451	0
6	379	863.83902178876	0
6	382	869.230322184583	0
6	404	920.493155444247	0
6	407	922.557309556843	0
6	413	931.651819903604	0
6	415	933.345352980081	1
6	416	934.431674416005	1
6	417	934.487167339232	0
6	452	1058.518930789588	0
6	453	1065.759693866257	0
6	472	1108.361782751192	0
6	477	1115.656707159248	0
6	484	1132.694596718756	0
6	485	1134.376552513114	0
6	487	1136.108807583738	0
6	489	1136.333826018112	1
6	496	1146.494912721454	1
6	498	1148.078871593158	1
6	504	1163.720581410365	2
6	505	1166.349841767036	2
6	507	1168.488416785386	2
6	508	1170.163339130812	2
6	509	1172.718694317962	1
6	511	1173.076299037651	1
6	512	1173.15964241773	1
6	513	1176.203307319422	0
6	515	1176.916299660197	0
6	516	1185.612073974925	0
6	533	1216.291314203088	0
6	534	1217.466512215077	0
6	536	1230.755115960214	0
6	537	1234.266874963928	0
6	548	1272.682469325331	0
6	549	1277.089681267859	0
6	563	1317.361855239214	0
6	566	1328.03107468209	0
6	582	1361.686355425169	0
6	583	1362.017841407566	0
6	590	1413.14304119274	0
6	591	1414.099123901939	0
6	598	1419.219797478038	0
6	603	1431.509958238804	0
6	611	1455.374959090924	0
6	614	1457.953797209876	0
6	626	1512.613832586893	0
6	632	1526.463072663728	1
6	633	1533.588758894924	1
6	638	1542.511482998172	0
6	640	1545.518748707868	0
6	641	1546.365434320981	0
6	652	1579.922105872001	0
6	659	1599.158546080068	0
6	665	1614.647544777863	0
6	668	1617.544838278715	0
6	695	1669.12752658445	0
6	696	1673.954468898264	0
6	734	1752.69058199458	0
6	735	1752.912652511472	0
6	760	1784.36714221366	0
6	767	1794.565195428115	0
6	779	1826.11813210479	0
6	784	1837.536494347759	0
6	787	1838.500648643851	0
6	788	1839.931577299194	0
6	799	1862.163813384079	0
6	800	1862.583255820495	0
6	806	1870.862406747146	0
6	807	1876.012979832493	0
6	809	1881.496160769119	0
6	813	1883.79523115591	1
6	820	1900.013757905231	1
6	821	1901.800352648649	0
6	823	1903.24141457117	0
6	824	1911.903692606742	0
6	848	1986.939751930008	0
6	849	1988.347327886568	0
6	876	2024.452246727987	0
6	878	2027.727541502782	1
6	880	2030.661302349244	2
6	884	2037.18732466916	3
6	885	2037.748273289583	3
6	888	2041.696824587789	2
6	889	2042.886910112381	1
6	890	2043.524718331723	0
6	895	2049.562016438356	0
6	898	2050.310073293457	0
6	909	2073.58352631853	0
6	911	2074.263168382427	1
6	912	2075.684618661842	1
6	913	2077.45716668429	0
6	921	2095.128767516438	0
6	926	2100.124235631169	0
6	950	2143.862823377282	0
6	951	2144.02732633626	0
6	957	2148.922937466807	0
6	959	2150.669734305564	1
6	962	2157.828575973087	1
6	963	2162.737954251503	0
6	971	2183.044205315737	0
6	972	2185.239737963008	0
6	974	2202.435043403632	0
6	975	2206.342482211404	0
6	980	2216.788444128043	0
6	981	2218.13053337151	0
6	998	2249.729384129566	0
6	999	2251.072627032836	0
6	1001	2251.367958607534	0
6	1002	2259.466292237981	0
6	1010	2279.690247357455	0
6	1012	2280.385384205945	1
6	1013	2280.652934238308	1
6	1014	2285.281015368432	0
6	1020	2294.765771610817	0
6	1021	2300.743067949671	0
6	1032	2311.466960642226	0
6	1034	2314.816185985176	1
6	1035	2314.869400251368	1
6	1037	2318.058885096036	1
6	1043	2321.349749090659	2
6	1044	2321.460661274425	2
6	1048	2326.870960380821	2
6	1050	2327.4267847295	3
6	1052	2328.107968982309	4
6	1058	2332.981509177791	5
6	1059	2334.979793616136	5
6	1060	2337.053960433048	4
6	1063	2342.347723405079	3
6	1064	2346.133988564157	2
6	1065	2351.813214512701	1
6	1067	2354.319388697645	1
6	1068	2355.01411389156	1
6	1069	2356.881467571888	0
6	1076	2370.218810734865	0
6	1077	2372.946819034866	0
6	1093	2408.760504512205	0
6	1094	2409.400480523668	0
6	1102	2422.9459360675	0
6	1103	2423.742337706199	0
6	1105	2427.402652917027	0
6	1106	2428.244262375269	0
6	1109	2432.751736103515	0
6	1110	2434.72696948832	0
6	1118	2465.658478271555	0
6	1120	2472.320315154536	1
6	1121	2472.923042162618	1
6	1123	2473.889202106358	1
6	1124	2477.548865404294	1
6	1126	2478.649007051707	1
6	1127	2481.141219960295	1
6	1128	2484.32236483539	0
6	1130	2498.862924785266	0
7	183	375.391315048882	11
7	206	476.548788404644	12
7	211	486.357315170998	13
7	223	529.267700894395	14
7	298	733.910972131425	15
7	319	758.996673827888	16
7	324	766.656699326265	17
7	331	779.450215402787	18
7	355	818.983464402905	19
7	375	853.109086923126	20
7	379	863.83902178876	21
7	472	1108.361782751192	22
7	484	1132.694596718756	23
7	487	1136.108807583738	24
7	515	1176.916299660197	25
7	582	1361.686355425169	26
7	598	1419.219797478038	27
7	640	1545.518748707868	28
7	652	1579.922105872001	29
7	665	1614.647544777863	30
7	695	1669.12752658445	31
7	760	1784.36714221366	32
7	779	1826.11813210479	33
7	787	1838.500648643851	34
7	799	1862.163813384079	35
7	823	1903.24141457117	36
7	876	2024.452246727987	37
7	895	2049.562016438356	38
7	909	2073.58352631853	39
7	921	2095.128767516438	40
7	950	2143.862823377282	41
7	957	2148.922937466807	42
7	1010	2279.690247357455	43
7	1020	2294.765771610817	44
7	1032	2311.466960642226	45
7	1076	2370.218810734865	46
7	1093	2408.760504512205	47
7	1102	2422.9459360675	48
7	1105	2427.402652917027	49
7	1109	2432.751736103515	50
8	183	375.391315048882	0
8	191	416.09885070976	0
8	197	457.766007587543	0
8	206	476.548788404644	0
8	211	486.357315170998	0
8	218	519.361765448563	0
8	223	529.267700894395	0
8	242	564.300560389618	0
8	245	619.011098646388	0
8	251	625.351485420614	0
8	263	656.547358981017	0
8	276	692.864500273431	0.101177117429
8	285	715.290266955163	11.550216819727
8	286	715.422295031566	5.041445343735
8	289	722.355451729889	1.901595338036
8	292	724.458636052457	1.027618085703
8	298	733.910972131425	0
8	319	758.996673827888	0
8	324	766.656699326265	0
8	331	779.450215402787	0
8	355	818.983464402905	0
8	365	835.248604404272	0
8	368	843.367700009282	0
8	375	853.109086923126	0
8	379	863.83902178876	0
8	404	920.493155444247	0
8	413	931.651819903604	0
8	416	934.431674416005	1.086321435924
8	452	1058.518930789588	0
8	472	1108.361782751192	0
8	484	1132.694596718756	0
8	487	1136.108807583738	0
8	496	1146.494912721454	10.161086703342
8	505	1166.349841767036	18.270970173878
8	508	1170.163339130812	6.442757720447
8	509	1172.718694317962	4.230277532576
8	512	1173.15964241773	0.083343380079
8	515	1176.916299660197	0
8	533	1216.291314203088	0
8	536	1230.755115960214	0
8	548	1272.682469325331	0
8	563	1317.361855239214	0
8	582	1361.686355425169	0
8	590	1413.14304119274	0
8	598	1419.219797478038	0
8	611	1455.374959090924	0
8	626	1512.613832586893	0
8	633	1533.588758894924	7.125686231196
8	640	1545.518748707868	0
8	652	1579.922105872001	0
8	665	1614.647544777863	0
8	695	1669.12752658445	0
8	734	1752.69058199458	0
8	760	1784.36714221366	0
8	779	1826.11813210479	0
8	787	1838.500648643851	0
8	799	1862.163813384079	0
8	806	1870.862406747146	0
8	809	1881.496160769119	0
8	820	1900.013757905231	16.218526749321
8	823	1903.24141457117	0
8	848	1986.939751930008	0
8	876	2024.452246727987	0
8	885	2037.748273289583	10.020731786801
8	888	2041.696824587789	11.035522238545
8	889	2042.886910112381	5.699585443221
8	895	2049.562016438356	0
8	909	2073.58352631853	0
8	912	2075.684618661842	1.421450279415
8	921	2095.128767516438	0
8	950	2143.862823377282	0
8	957	2148.922937466807	0
8	962	2157.828575973087	7.158841667523
8	971	2183.044205315737	0
8	974	2202.435043403632	0
8	980	2216.788444128043	0
8	998	2249.729384129566	0
8	1001	2251.367958607534	0
8	1010	2279.690247357455	0
8	1013	2280.652934238308	0.267550032363
8	1020	2294.765771610817	0
8	1032	2311.466960642226	0
8	1035	2314.869400251368	0.053214266192
8	1044	2321.460661274425	3.401776178389
8	1059	2334.979793616136	13.630044525477
8	1060	2337.053960433048	10.183000052227
8	1063	2342.347723405079	14.920938675579
8	1064	2346.133988564157	18.026019581848
8	1065	2351.813214512701	18.83170533491
8	1068	2355.01411389156	0.694725193915
8	1076	2370.218810734865	0
8	1093	2408.760504512205	0
8	1102	2422.9459360675	0
8	1105	2427.402652917027	0
8	1109	2432.751736103515	0
8	1118	2465.658478271555	0
8	1121	2472.923042162618	0.602727008082
8	1124	2477.548865404294	3.659663297936
8	1127	2481.141219960295	2.492212908588
8	1130	2498.862924785266	0
9	184	376.452877082859	24
9	192	428.285051721609	25
9	204	474.98865254556	26
9	207	477.751610388222	27
9	212	497.685695660876	28
9	219	521.171188623144	29
9	226	535.506429871272	30
9	243	586.878864834208	31
9	246	621.457658757041	32
9	254	626.379732136594	33
9	276	692.864500273431	34
9	285	715.290266955163	35
9	286	715.422295031566	36
9	289	722.355451729889	37
9	292	724.458636052457	38
9	293	725.71626145367	39
9	301	740.172456031577	40
9	320	759.796953700521	41
9	327	770.52129807755	42
9	334	783.076401160694	43
9	358	828.467569237987	44
9	366	837.755112640667	45
9	371	850.587979110059	46
9	376	853.471295946451	47
9	382	869.230322184583	48
9	407	922.557309556843	49
9	416	934.431674416005	50
9	417	934.487167339232	51
9	453	1065.759693866257	52
9	477	1115.656707159248	53
9	485	1134.376552513114	54
9	496	1146.494912721454	55
9	505	1166.349841767036	56
9	508	1170.163339130812	57
9	509	1172.718694317962	58
9	512	1173.15964241773	59
9	513	1176.203307319422	60
9	516	1185.612073974925	61
9	534	1217.466512215077	62
9	537	1234.266874963928	63
9	549	1277.089681267859	64
9	566	1328.03107468209	65
9	583	1362.017841407566	66
9	591	1414.099123901939	67
9	603	1431.509958238804	68
9	614	1457.953797209876	69
9	633	1533.588758894924	70
9	638	1542.511482998172	71
9	641	1546.365434320981	72
9	659	1599.158546080068	73
9	668	1617.544838278715	74
9	696	1673.954468898264	75
9	735	1752.912652511472	76
9	767	1794.565195428115	77
9	784	1837.536494347759	78
9	788	1839.931577299194	79
9	800	1862.583255820495	80
9	807	1876.012979832493	81
9	820	1900.013757905231	82
9	821	1901.800352648649	83
9	824	1911.903692606742	84
9	849	1988.347327886568	85
9	885	2037.748273289583	86
9	888	2041.696824587789	87
9	889	2042.886910112381	88
9	890	2043.524718331723	89
9	898	2050.310073293457	90
9	912	2075.684618661842	91
9	913	2077.45716668429	92
9	926	2100.124235631169	93
9	951	2144.02732633626	94
9	962	2157.828575973087	95
9	963	2162.737954251503	96
9	972	2185.239737963008	97
9	975	2206.342482211404	98
9	981	2218.13053337151	99
9	999	2251.072627032836	100
9	1002	2259.466292237981	101
9	1013	2280.652934238308	102
9	1014	2285.281015368432	103
9	1021	2300.743067949671	104
9	1035	2314.869400251368	105
9	1044	2321.460661274425	106
9	1059	2334.979793616136	107
9	1060	2337.053960433048	108
9	1063	2342.347723405079	109
9	1064	2346.133988564157	110
9	1065	2351.813214512701	111
9	1068	2355.01411389156	112
9	1069	2356.881467571888	113
9	1077	2372.946819034866	114
9	1094	2409.400480523668	115
9	1103	2423.742337706199	116
9	1106	2428.244262375269	117
9	1110	2434.72696948832	118
9	1121	2472.923042162618	119
9	1124	2477.548865404294	120
9	1127	2481.141219960295	121
9	1128	2484.32236483539	122
10	184	376.452877082859	1.061562033977
10	192	428.285051721609	12.186201011849
10	204	474.98865254556	17.222644958017
10	207	477.751610388222	1.202821983578
10	212	497.685695660876	11.328380489878
10	219	521.171188623144	1.809423174581
10	226	535.506429871272	6.238728976877
10	243	586.878864834208	22.57830444459
10	246	621.457658757041	2.446560110653
10	254	626.379732136594	1.02824671598
10	276	692.864500273431	36.317141292414
10	285	715.290266955163	22.526943799161
10	286	715.422295031566	11.68224489613
10	289	722.355451729889	11.974602042058
10	292	724.458636052457	4.004779660604
10	293	725.71626145367	2.285243486916
10	301	740.172456031577	6.261483900152
10	320	759.796953700521	0.800279872633
10	327	770.52129807755	3.864598751285
10	334	783.076401160694	3.626185757907
10	358	828.467569237987	9.484104835082
10	366	837.755112640667	2.506508236395
10	371	850.587979110059	7.220279100777
10	376	853.471295946451	0.362209023325
10	382	869.230322184583	5.391300395823
10	407	922.557309556843	2.064154112596
10	416	934.431674416005	2.779854512401
10	417	934.487167339232	1.141814359151
10	453	1065.759693866257	7.240763076669
10	477	1115.656707159248	7.294924408056
10	485	1134.376552513114	1.681955794358
10	496	1146.494912721454	10.386105137716
10	505	1166.349841767036	30.016015748924
10	508	1170.163339130812	22.084467537654
10	509	1172.718694317962	8.998112907597
10	512	1173.15964241773	4.671225632344
10	513	1176.203307319422	3.127008281771
10	516	1185.612073974925	8.695774314728
10	534	1217.466512215077	1.175198011989
10	537	1234.266874963928	3.511759003714
10	549	1277.089681267859	4.407211942528
10	566	1328.03107468209	10.669219442876
10	583	1362.017841407566	0.331485982397
10	591	1414.099123901939	0.956082709199
10	603	1431.509958238804	12.290160760766
10	614	1457.953797209876	2.578838118952
10	633	1533.588758894924	20.974926308031
10	638	1542.511482998172	16.048410334444
10	641	1546.365434320981	0.846685613113
10	659	1599.158546080068	19.236440208067
10	668	1617.544838278715	2.897293500852
10	696	1673.954468898264	4.826942313814
10	735	1752.912652511472	0.222070516892
10	767	1794.565195428115	10.198053214455
10	784	1837.536494347759	11.418362242969
10	788	1839.931577299194	1.430928655343
10	800	1862.583255820495	0.419442436416
10	807	1876.012979832493	5.150573085347
10	820	1900.013757905231	18.517597136112
10	821	1901.800352648649	18.005121492739
10	824	1911.903692606742	8.662278035572
10	849	1988.347327886568	1.40757595656
10	885	2037.748273289583	13.296026561596
10	888	2041.696824587789	13.969283085007
10	889	2042.886910112381	12.225607763137
10	890	2043.524718331723	6.337393662563
10	898	2050.310073293457	0.748056855101
10	912	2075.684618661842	2.101092343312
10	913	2077.45716668429	3.193998301863
10	926	2100.124235631169	4.995468114731
10	951	2144.02732633626	0.164502958978
10	962	2157.828575973087	8.90563850628
10	963	2162.737954251503	12.068219945939
10	972	2185.239737963008	2.195532647271
10	975	2206.342482211404	3.907438807772
10	981	2218.13053337151	1.342089243467
10	999	2251.072627032836	1.34324290327
10	1002	2259.466292237981	8.098333630447
10	1013	2280.652934238308	0.962686880853
10	1014	2285.281015368432	4.895631162487
10	1021	2300.743067949671	5.977296338854
10	1035	2314.869400251368	3.402439609142
10	1044	2321.460661274425	6.644475289249
10	1059	2334.979793616136	16.9209085201
10	1060	2337.053960433048	15.704211342389
10	1063	2342.347723405079	15.476763024258
10	1064	2346.133988564157	18.707203834657
10	1065	2351.813214512701	23.705245530392
10	1068	2355.01411389156	22.032604713769
10	1069	2356.881467571888	2.562078874243
10	1077	2372.946819034866	2.728008300001
10	1094	2409.400480523668	0.639976011463
10	1103	2423.742337706199	0.796401638699
10	1106	2428.244262375269	0.841609458242
10	1110	2434.72696948832	1.975233384805
10	1121	2472.923042162618	7.264563891063
10	1124	2477.548865404294	5.228550249758
10	1127	2481.141219960295	7.252017853937
10	1128	2484.32236483539	5.673357783683
11	1133	2500	0.1016
12	1133	2500	0.0488

