version 2
run experiments_easy_game_mode1-588-20230308-12:03:57-21349
attr configname experiments_easy_game_mode1
attr datetime 20230308-12:03:57
attr experiment experiments_easy_game_mode1
attr inifile omnetpp.ini
attr iterationvars "$0=5.5, $1=2.5, $2=100"
attr iterationvarsf 5.5,2.5,100-
attr measurement "$0=5.5, $1=2.5, $2=100"
attr network Network
attr processid 21349
attr repetition 18
attr replication #18
attr resultdir results
attr runnumber 588
attr seedset 18
param *.boss.arrival_mean 20
param *.boss.service_mean 5.5
param *.minion.arrival_mean 10
param *.minion.service_mean 2.5
param *.player.recover_rate_x 100
param **.minion.arrival_distribution 0
param **.minion.service_distribution 0
param **.boss.arrival_distribution 0
param **.boss.service_distribution 0

vector 0 Network.player boss_jobs_number_stat:vector ETV
attr source signal_boss_jobs_number
vector 1 Network.player boss_jobs_queue_number_stat:vector ETV
attr source signal_boss_jobs_queue_number
vector 2 Network.player boss_waiting_time_stat:vector ETV
attr source signal_boss_waiting_time
vector 3 Network.player minion_jobs_number_stat:vector ETV
attr source signal_minion_jobs_number
vector 4 Network.player minion_jobs_queue_number_stat:vector ETV
attr source signal_minion_jobs_queue_number
vector 5 Network.player boss_defeated_stat:vector ETV
attr source signal_boss_defeated
vector 6 Network.player boss_response_time_stat:vector ETV
attr source signal_boss_response_time
vector 7 Network.player minion_waiting_time_stat:vector ETV
attr source signal_minion_waiting_time
vector 8 Network.player minion_defeated_stat:vector ETV
attr source signal_minion_defeated
vector 9 Network.player minion_response_time_stat:vector ETV
attr source signal_minion_response_time
vector 10 Network.player minion_recovered_stat:vector ETV
attr source signal_minion_recovered
vector 11 Network.player minion_throughput:vector ETV
attr source signal_minion_throughput
vector 12 Network.player boss_throughput:vector ETV
attr source signal_boss_throughput
0	146	352.65760743913	1
0	152	359.293699558628	1
0	155	361.689670555923	1
0	178	423.510220605586	1
0	194	464.310329824607	1
0	206	490.311357624162	1
0	215	503.252965294132	1
0	219	507.787385408353	2
0	224	509.460907223688	2
0	231	515.59083765368	2
0	233	518.812306809382	3
0	240	528.789657893763	3
0	243	536.621619676878	3
0	247	539.876371230947	4
0	249	540.011977590143	5
0	271	576.409290106954	1
0	284	601.646983798841	1
0	299	620.5673933378	1
0	301	621.913209437982	2
0	313	646.35204339536	1
0	317	657.379640067769	1
0	344	733.174320689637	1
0	353	765.857088538859	1
0	383	831.36383180455	1
0	385	831.962629369746	2
0	392	850.840600045191	2
0	398	865.76178541671	3
0	415	901.223484359462	1
0	437	932.184322298713	1
0	440	937.929585530627	1
0	455	971.342649776712	1
0	467	983.072545625181	1
0	470	991.427067730116	1
0	479	1015.605515033844	1
0	487	1025.81114179477	1
0	517	1109.798972014767	1
0	530	1149.457133924026	1
0	551	1196.526696454582	1
0	553	1196.569454728748	2
0	557	1210.285144495441	1
0	559	1213.98675580795	2
0	566	1231.630065478987	2
0	570	1241.308179746611	3
0	585	1263.189796643971	1
0	600	1281.513172219529	1
0	605	1292.096612948606	1
0	611	1294.89263798076	2
0	613	1295.723033753267	3
0	615	1296.428746356222	4
0	617	1297.941004178685	5
0	629	1322.14802534089	2
0	631	1323.120498050406	3
0	641	1338.292960251381	4
0	672	1384.918681491055	1
0	680	1412.519964056525	1
0	689	1429.644800299848	1
0	691	1432.943823798201	2
0	702	1454.825693868242	1
0	704	1456.237201907714	2
0	708	1463.501273298819	3
0	716	1476.895200702336	2
0	720	1478.65248867971	3
0	727	1493.942844496456	3
0	737	1513.068384497825	1
0	748	1530.316331484607	1
0	793	1626.275814319071	1
0	803	1648.090529582688	1
0	805	1648.406833864499	2
0	812	1660.09057612624	1
0	817	1673.738745992098	1
0	820	1676.701949053993	1
0	822	1677.810560318481	2
0	825	1682.363952277894	2
0	830	1701.700788650236	2
0	833	1706.668184001908	2
0	849	1748.582026119455	1
0	871	1779.095334613409	1
0	884	1801.263659048677	1
0	893	1825.874136888878	1
0	898	1830.294960282079	1
0	905	1845.141402175686	1
0	914	1885.574877957284	1
0	950	1962.87460879635	1
0	959	2024.60862566707	1
0	961	2030.819784934859	2
0	968	2055.285658945094	1
0	983	2081.351597619549	1
0	995	2096.782173260599	1
0	1001	2106.087901989699	1
0	1025	2154.144294006872	1
0	1034	2167.364661838233	1
0	1040	2176.992351096176	1
0	1049	2206.891406240519	1
0	1061	2247.512079356014	1
0	1070	2306.924212961346	1
0	1076	2348.186366084548	1
0	1085	2370.15674638938	1
0	1109	2425.111267728735	1
0	1121	2451.626198357569	1
0	1127	2469.476608553846	1
0	1133	2490.238705866935	1
0	1135	2494.252370332495	2
0	1137	2494.636027121347	3
1	146	352.65760743913	0
1	149	355.234957148056	0
1	152	359.293699558628	0
1	153	359.601323760454	0
1	155	361.689670555923	0
1	158	376.604513839375	0
1	178	423.510220605586	0
1	181	427.625190107073	0
1	194	464.310329824607	0
1	195	470.055219099707	0
1	206	490.311357624162	0
1	209	495.533859992509	0
1	215	503.252965294132	0
1	219	507.787385408353	1
1	222	509.380543972085	1
1	224	509.460907223688	1
1	225	513.397481993815	1
1	231	515.59083765368	1
1	233	518.812306809382	2
1	238	528.14846014183	2
1	240	528.789657893763	2
1	241	535.520168142736	2
1	243	536.621619676878	2
1	247	539.876371230947	3
1	249	540.011977590143	4
1	250	541.617614045256	4
1	253	546.823330896409	3
1	254	548.276033152219	2
1	257	552.423354274662	1
1	258	554.048558227707	0
1	271	576.409290106954	0
1	272	578.708725978218	0
1	284	601.646983798841	0
1	287	603.048833145662	0
1	299	620.5673933378	0
1	301	621.913209437982	1
1	302	623.312725323997	1
1	303	623.775514456228	0
1	313	646.35204339536	0
1	314	651.574212194976	0
1	317	657.379640067769	0
1	320	658.498016789084	0
1	344	733.174320689637	0
1	345	736.631905603406	0
1	353	765.857088538859	0
1	356	772.956489092589	0
1	383	831.36383180455	0
1	385	831.962629369746	1
1	386	832.084235689485	1
1	392	850.840600045191	1
1	398	865.76178541671	2
1	401	869.708038973638	2
1	402	872.217186197593	1
1	403	873.067023519333	0
1	415	901.223484359462	0
1	416	906.058937386884	0
1	437	932.184322298713	0
1	438	933.555949632523	0
1	440	937.929585530627	0
1	441	939.040782405726	0
1	455	971.342649776712	0
1	456	973.137617073512	0
1	467	983.072545625181	0
1	468	987.491051566223	0
1	470	991.427067730116	0
1	475	998.98733540028	0
1	479	1015.605515033844	0
1	480	1016.602754939575	0
1	487	1025.81114179477	0
1	494	1047.461437729863	0
1	517	1109.798972014767	0
1	520	1113.621691236613	0
1	530	1149.457133924026	0
1	535	1157.734940807631	0
1	551	1196.526696454582	0
1	553	1196.569454728748	1
1	554	1201.557482907776	1
1	555	1208.090998229455	0
1	557	1210.285144495441	0
1	559	1213.98675580795	1
1	562	1227.096688861015	1
1	566	1231.630065478987	1
1	570	1241.308179746611	2
1	571	1243.405832947714	2
1	572	1246.274865932309	1
1	573	1246.720616134271	0
1	585	1263.189796643971	0
1	590	1274.768549982331	0
1	600	1281.513172219529	0
1	601	1282.810099482965	0
1	605	1292.096612948606	0
1	611	1294.89263798076	1
1	613	1295.723033753267	2
1	615	1296.428746356222	3
1	617	1297.941004178685	4
1	618	1298.294435649831	4
1	619	1304.317239088538	3
1	622	1307.090084539414	2
1	627	1315.92484113241	1
1	629	1322.14802534089	1
1	631	1323.120498050406	2
1	641	1338.292960251381	3
1	642	1343.036165414318	3
1	645	1348.629972671147	2
1	646	1350.785852798235	1
1	647	1350.972115952691	0
1	672	1384.918681491055	0
1	673	1392.216063043291	0
1	680	1412.519964056525	0
1	681	1414.366547870212	0
1	689	1429.644800299848	0
1	691	1432.943823798201	1
1	698	1452.606357255023	1
1	699	1453.096060114614	0
1	702	1454.825693868242	0
1	704	1456.237201907714	1
1	708	1463.501273298819	2
1	709	1464.193529024495	2
1	712	1475.64236497073	1
1	716	1476.895200702336	1
1	720	1478.65248867971	2
1	721	1480.905334247555	2
1	727	1493.942844496456	2
1	728	1497.927375492147	2
1	729	1501.180008506103	1
1	730	1508.349101713036	0
1	737	1513.068384497825	0
1	740	1519.518468483332	0
1	748	1530.316331484607	0
1	749	1530.457083057754	0
1	793	1626.275814319071	0
1	796	1631.468441287402	0
1	803	1648.090529582688	0
1	805	1648.406833864499	1
1	806	1655.839988929356	1
1	809	1657.286311414843	0
1	812	1660.09057612624	0
1	815	1672.321663513372	0
1	817	1673.738745992098	0
1	818	1675.648405974112	0
1	820	1676.701949053993	0
1	822	1677.810560318481	1
1	823	1678.39688832282	1
1	825	1682.363952277894	1
1	826	1687.498560033863	1
1	830	1701.700788650236	1
1	831	1702.23295380425	1
1	833	1706.668184001908	1
1	834	1707.029610587871	1
1	835	1709.909000715347	0
1	849	1748.582026119455	0
1	850	1752.243059334305	0
1	871	1779.095334613409	0
1	874	1782.045710407393	0
1	884	1801.263659048677	0
1	885	1803.573274782576	0
1	893	1825.874136888878	0
1	894	1827.08715121635	0
1	898	1830.294960282079	0
1	899	1834.504431711958	0
1	905	1845.141402175686	0
1	908	1868.487279996237	0
1	914	1885.574877957284	0
1	915	1885.649815574593	0
1	950	1962.87460879635	0
1	951	1964.941783272595	0
1	959	2024.60862566707	0
1	961	2030.819784934859	1
1	962	2032.313472936383	1
1	963	2033.39842386356	0
1	968	2055.285658945094	0
1	971	2060.448008835701	0
1	983	2081.351597619549	0
1	984	2081.415186189532	0
1	995	2096.782173260599	0
1	996	2101.074653323877	0
1	1001	2106.087901989699	0
1	1004	2114.985262053194	0
1	1025	2154.144294006872	0
1	1026	2156.387466766789	0
1	1034	2167.364661838233	0
1	1037	2171.219808344083	0
1	1040	2176.992351096176	0
1	1041	2180.00307711338	0
1	1049	2206.891406240519	0
1	1052	2210.363850461026	0
1	1061	2247.512079356014	0
1	1062	2250.998991285835	0
1	1070	2306.924212961346	0
1	1071	2315.238156551455	0
1	1076	2348.186366084548	0
1	1077	2349.981298101126	0
1	1085	2370.15674638938	0
1	1086	2371.99028739213	0
1	1109	2425.111267728735	0
1	1110	2431.229172941408	0
1	1121	2451.626198357569	0
1	1122	2452.257036162289	0
1	1127	2469.476608553846	0
1	1128	2476.303549925659	0
1	1133	2490.238705866935	0
1	1135	2494.252370332495	1
1	1137	2494.636027121347	2
2	146	352.65760743913	0
2	152	359.293699558628	0
2	155	361.689670555923	0
2	178	423.510220605586	0
2	194	464.310329824607	0
2	206	490.311357624162	0
2	215	503.252965294132	0
2	222	509.380543972085	1.593158563732
2	225	513.397481993815	3.936574770127
2	238	528.14846014183	12.55762248815
2	241	535.520168142736	16.707861333354
2	250	541.617614045256	12.827956151493
2	253	546.823330896409	10.201711219531
2	254	548.276033152219	8.399661921272
2	257	552.423354274662	12.411376684519
2	271	576.409290106954	0
2	284	601.646983798841	0
2	299	620.5673933378	0
2	302	623.312725323997	1.399515886015
2	313	646.35204339536	0
2	317	657.379640067769	0
2	344	733.174320689637	0
2	353	765.857088538859	0
2	383	831.36383180455	0
2	386	832.084235689485	0.121606319739
2	401	869.708038973638	18.867438928447
2	402	872.217186197593	6.455400780883
2	415	901.223484359462	0
2	437	932.184322298713	0
2	440	937.929585530627	0
2	455	971.342649776712	0
2	467	983.072545625181	0
2	470	991.427067730116	0
2	479	1015.605515033844	0
2	487	1025.81114179477	0
2	517	1109.798972014767	0
2	530	1149.457133924026	0
2	551	1196.526696454582	0
2	554	1201.557482907776	4.988028179028
2	557	1210.285144495441	0
2	562	1227.096688861015	13.109933053065
2	571	1243.405832947714	11.775767468727
2	572	1246.274865932309	4.966686185698
2	585	1263.189796643971	0
2	600	1281.513172219529	0
2	605	1292.096612948606	0
2	618	1298.294435649831	3.401797669071
2	619	1304.317239088538	8.594205335271
2	622	1307.090084539414	10.661338183192
2	627	1315.92484113241	17.983836953725
2	642	1343.036165414318	20.888140073428
2	645	1348.629972671147	25.509474620741
2	646	1350.785852798235	12.492892546854
2	672	1384.918681491055	0
2	680	1412.519964056525	0
2	689	1429.644800299848	0
2	698	1452.606357255023	19.662533456822
2	702	1454.825693868242	0
2	709	1464.193529024495	7.956327116781
2	712	1475.64236497073	12.141091671911
2	721	1480.905334247555	4.010133545219
2	728	1497.927375492147	19.274886812437
2	729	1501.180008506103	7.237164009647
2	737	1513.068384497825	0
2	748	1530.316331484607	0
2	793	1626.275814319071	0
2	803	1648.090529582688	0
2	806	1655.839988929356	7.433155064857
2	812	1660.09057612624	0
2	817	1673.738745992098	0
2	820	1676.701949053993	0
2	823	1678.39688832282	0.586328004339
2	826	1687.498560033863	5.134607755969
2	831	1702.23295380425	0.532165154014
2	834	1707.029610587871	0.361426585963
2	849	1748.582026119455	0
2	871	1779.095334613409	0
2	884	1801.263659048677	0
2	893	1825.874136888878	0
2	898	1830.294960282079	0
2	905	1845.141402175686	0
2	914	1885.574877957284	0
2	950	1962.87460879635	0
2	959	2024.60862566707	0
2	962	2032.313472936383	1.493688001524
2	968	2055.285658945094	0
2	983	2081.351597619549	0
2	995	2096.782173260599	0
2	1001	2106.087901989699	0
2	1025	2154.144294006872	0
2	1034	2167.364661838233	0
2	1040	2176.992351096176	0
2	1049	2206.891406240519	0
2	1061	2247.512079356014	0
2	1070	2306.924212961346	0
2	1076	2348.186366084548	0
2	1085	2370.15674638938	0
2	1109	2425.111267728735	0
2	1121	2451.626198357569	0
2	1127	2469.476608553846	0
2	1133	2490.238705866935	0
3	148	355.05946736505	1
3	157	370.780850023652	1
3	161	386.01824043156	1
3	164	397.684376195028	1
3	167	407.278190585379	1
3	169	407.91544005567	2
3	173	417.79778371846	1
3	176	419.657785982005	1
3	180	424.276063284641	2
3	185	445.699346670034	1
3	188	447.543103794211	1
3	191	460.516704985146	1
3	197	474.19422053615	1
3	200	481.095683169202	1
3	203	486.127831312219	1
3	208	490.485140357307	1
3	212	501.288951545055	1
3	217	505.002956299096	1
3	221	508.839663443019	2
3	227	513.738271046524	3
3	229	514.458292495847	4
3	235	525.229499277953	5
3	237	525.730885217399	6
3	245	537.391873471516	7
3	252	543.219500807899	8
3	256	548.535664666951	9
3	262	560.623706455632	8
3	267	568.939460714816	6
3	275	584.468749162211	4
3	281	599.791279867924	1
3	286	602.50064407349	1
3	290	605.718975695784	1
3	293	616.248476632966	1
3	296	619.18447714698	1
3	305	639.624648878793	1
3	307	641.806301898067	2
3	311	644.169706261645	1
3	319	658.230766056464	1
3	322	659.622136286692	2
3	326	665.804613480816	1
3	329	682.178400840308	1
3	332	700.87674194091	1
3	334	701.285677243009	2
3	338	717.967404583469	1
3	341	722.446726874082	1
3	347	739.610347347772	1
3	350	750.885863105092	1
3	355	769.247020053464	1
3	359	786.806884617963	1
3	362	796.034432044079	1
3	365	801.770196139294	1
3	367	802.643361737249	2
3	371	803.466342464771	1
3	374	821.989938605393	1
3	377	822.971999659924	1
3	379	825.692127493628	2
3	388	837.481048809211	1
3	390	837.528711359265	2
3	394	853.367451096851	3
3	396	864.80791871467	4
3	400	868.699468202168	5
3	410	892.215476562267	1
3	413	896.95419122637	1
3	419	908.783784786466	1
3	422	921.983408396422	1
3	424	923.077491675642	2
3	428	926.313872219769	1
3	431	928.366526091904	1
3	434	931.138786419577	1
3	443	951.775819964726	1
3	446	954.938401825785	1
3	449	960.15791517345	1
3	451	961.941637758824	2
3	458	973.955373969978	1
3	460	974.438970779056	2
3	463	976.208487875792	2
3	472	994.275476802733	1
3	474	998.967850855492	2
3	482	1021.422423220967	1
3	485	1025.61861987627	1
3	489	1034.732109192486	2
3	491	1038.782605635946	3
3	493	1043.159900290471	4
3	500	1064.460086608793	1
3	502	1065.265403748812	2
3	506	1093.886914810011	1
3	508	1095.796884728062	2
3	511	1100.441881947243	2
3	513	1102.411024622887	3
3	519	1110.248847979331	2
3	522	1115.662036455481	3
3	527	1127.991864436109	1
3	532	1150.403494908239	1
3	534	1157.698185414769	2
3	537	1160.726672716901	3
3	542	1179.987550244786	1
3	545	1190.406193379886	1
3	548	1192.060187505366	1
3	561	1214.542207979603	1
3	564	1230.587609546064	2
3	568	1239.074375508244	3
3	578	1257.072305290322	1
3	580	1258.154433461831	2
3	582	1258.463916101759	3
3	587	1268.084140595639	3
3	589	1269.559912571375	4
3	596	1279.343956200392	1
3	598	1281.438934440836	2
3	607	1293.39115214529	1
3	609	1294.09831111435	2
3	621	1306.377084729727	3
3	624	1308.790255576544	4
3	626	1312.306243155178	5
3	633	1325.552127347144	6
3	635	1329.476278199886	7
3	637	1331.977731951153	8
3	639	1335.18914020612	9
3	644	1345.473493177319	10
3	651	1353.837422051082	9
3	653	1355.903882210185	10
3	655	1356.72186603143	11
3	658	1361.4761275669	11
3	662	1367.411236736202	10
3	677	1399.696189430956	1
3	683	1417.078528100198	1
3	685	1420.290782061921	2
3	693	1438.259455455825	1
3	695	1444.792201787484	2
3	697	1449.871614903672	3
3	706	1460.060926220485	3
3	711	1464.592283923065	4
3	714	1476.202711998038	5
3	718	1478.069516448218	6
3	723	1485.640289736562	7
3	725	1487.04370975529	8
3	735	1512.283199849435	6
3	739	1514.492181875754	7
3	745	1525.749158143837	5
3	752	1532.577202008577	4
3	758	1538.005236612714	1
3	761	1551.435827516609	1
3	764	1561.172855466474	1
3	766	1562.687982903677	2
3	770	1576.644626109085	1
3	773	1577.971520441329	1
3	775	1578.224976662378	2
3	779	1580.245655261544	1
3	782	1584.930820075336	1
3	785	1598.806839497624	1
3	788	1609.425566048026	1
3	791	1624.066798678646	1
3	795	1627.508938156312	2
3	800	1644.804533826314	1
3	808	1656.941765470321	1
3	814	1667.440571028196	1
3	828	1696.918963719115	2
3	837	1719.112607261954	3
3	842	1730.314919826024	1
3	845	1747.308895643383	1
3	847	1748.047353153453	2
3	853	1758.501417219979	2
3	855	1759.620362943869	3
3	858	1761.129210365635	3
3	860	1763.813737269511	4
3	863	1770.185782847709	4
3	869	1778.687776808715	1
3	873	1781.263490443706	2
3	877	1783.647511303199	2
3	880	1791.920343721064	2
3	887	1809.927053426328	1
3	890	1824.121326190655	1
3	896	1828.799173711548	1
3	902	1836.776512552437	1
3	907	1863.001971466587	1
3	911	1877.221133022566	1
3	917	1886.960024108163	1
3	920	1894.963428843149	1
3	923	1898.466332015644	1
3	926	1905.001104474535	1
3	929	1918.282732109325	1
3	932	1930.581653249306	1
3	935	1935.826789934323	1
3	938	1942.879357732617	1
3	941	1951.691519557266	1
3	943	1951.845844740435	2
3	947	1955.941756291918	1
3	953	1981.415149903608	1
3	956	1991.932271441198	1
3	965	2036.820239663622	1
3	970	2055.395634036457	1
3	974	2066.336908056797	1
3	977	2068.572735745909	1
3	980	2073.629401755589	1
3	986	2090.373689927269	1
3	989	2091.510531786147	1
3	992	2094.509784816636	1
3	998	2103.10888607586	1
3	1003	2109.544519618569	1
3	1007	2121.370922174609	1
3	1010	2121.865282291356	1
3	1013	2140.760935507749	1
3	1016	2148.408502014201	1
3	1018	2150.88545136286	2
3	1022	2153.152701023359	1
3	1028	2156.826185249186	1
3	1030	2158.885137271309	2
3	1036	2167.645034195839	1
3	1043	2180.820140528645	1
3	1046	2190.617248134383	1
3	1051	2208.631005398133	1
3	1054	2213.327587140208	2
3	1058	2229.887447686045	1
3	1064	2260.949383513056	1
3	1067	2299.27861517504	1
3	1073	2325.819276184382	1
3	1079	2354.169776292782	1
3	1082	2363.140470416597	1
3	1088	2372.742441384221	1
3	1091	2376.357023247149	1
3	1094	2387.929246926715	1
3	1096	2388.368622764903	2
3	1100	2399.324458944691	1
3	1103	2416.76104363929	1
3	1106	2420.683923370384	1
3	1112	2433.483901769592	1
3	1114	2436.064121627286	2
3	1118	2449.110225251561	1
3	1124	2452.839439866003	1
3	1130	2485.429838161415	1
4	148	355.05946736505	0
4	150	355.994389466737	0
4	157	370.780850023652	0
4	159	378.073138151461	0
4	161	386.01824043156	0
4	162	391.243783333498	0
4	164	397.684376195028	0
4	165	398.319211991523	0
4	167	407.278190585379	0
4	169	407.91544005567	1
4	170	413.563785244136	1
4	171	414.04623406603	0
4	173	417.79778371846	0
4	174	418.07503692795	0
4	176	419.657785982005	0
4	180	424.276063284641	1
4	182	427.851978737396	1
4	183	436.67578734016	0
4	185	445.699346670034	0
4	186	446.01404981748	0
4	188	447.543103794211	0
4	189	447.654100173929	0
4	191	460.516704985146	0
4	192	461.240010226726	0
4	197	474.19422053615	0
4	198	474.280812636268	0
4	200	481.095683169202	0
4	201	482.282398342804	0
4	203	486.127831312219	0
4	204	488.029153634998	0
4	208	490.485140357307	0
4	210	497.60601240254	0
4	212	501.288951545055	0
4	213	501.358547703275	0
4	217	505.002956299096	0
4	221	508.839663443019	1
4	227	513.738271046524	2
4	229	514.458292495847	3
4	235	525.229499277953	4
4	237	525.730885217399	5
4	245	537.391873471516	6
4	252	543.219500807899	7
4	256	548.535664666951	8
4	259	557.056262824135	8
4	260	558.085588331252	7
4	262	560.623706455632	7
4	263	560.757162929498	7
4	264	561.2942829273	6
4	265	568.327386563589	5
4	267	568.939460714816	5
4	268	569.109647007578	5
4	269	570.214892292295	4
4	273	578.908791434031	3
4	275	584.468749162211	3
4	276	586.260271558492	3
4	277	588.145278005445	2
4	278	593.487545642465	1
4	279	597.772951985858	0
4	281	599.791279867924	0
4	282	600.93036751388	0
4	286	602.50064407349	0
4	288	605.710991502695	0
4	290	605.718975695784	0
4	291	608.491063605446	0
4	293	616.248476632966	0
4	294	616.391044173876	0
4	296	619.18447714698	0
4	297	619.960887700883	0
4	305	639.624648878793	0
4	307	641.806301898067	1
4	308	642.545848186468	1
4	309	642.688115794622	0
4	311	644.169706261645	0
4	315	652.225082579977	0
4	319	658.230766056464	0
4	322	659.622136286692	1
4	323	661.325775895032	1
4	324	663.633912406477	0
4	326	665.804613480816	0
4	327	668.243505523873	0
4	329	682.178400840308	0
4	330	682.502084435822	0
4	332	700.87674194091	0
4	334	701.285677243009	1
4	335	705.847610825016	1
4	336	706.446019362214	0
4	338	717.967404583469	0
4	339	718.687895620731	0
4	341	722.446726874082	0
4	342	724.217064572639	0
4	347	739.610347347772	0
4	348	749.232306799399	0
4	350	750.885863105092	0
4	351	752.504377824962	0
4	355	769.247020053464	0
4	357	775.604586104589	0
4	359	786.806884617963	0
4	360	787.019179029365	0
4	362	796.034432044079	0
4	363	797.951411261966	0
4	365	801.770196139294	0
4	367	802.643361737249	1
4	368	802.874251853147	1
4	369	803.323643636667	0
4	371	803.466342464771	0
4	372	806.769445693416	0
4	374	821.989938605393	0
4	375	822.130924429024	0
4	377	822.971999659924	0
4	379	825.692127493628	1
4	380	826.255938247739	1
4	381	826.617865470006	0
4	388	837.481048809211	0
4	390	837.528711359265	1
4	394	853.367451096851	2
4	396	864.80791871467	3
4	400	868.699468202168	4
4	404	873.381047357969	4
4	405	875.786264855852	3
4	406	875.89381796932	2
4	407	876.548004796565	1
4	408	877.507954896841	0
4	410	892.215476562267	0
4	411	894.991768399609	0
4	413	896.95419122637	0
4	417	906.625949606559	0
4	419	908.783784786466	0
4	420	916.046749715889	0
4	422	921.983408396422	0
4	424	923.077491675642	1
4	425	924.323871059312	1
4	426	926.178777863576	0
4	428	926.313872219769	0
4	429	926.514616656712	0
4	431	928.366526091904	0
4	432	928.660657450211	0
4	434	931.138786419577	0
4	435	931.91096600149	0
4	443	951.775819964726	0
4	444	951.797098714264	0
4	446	954.938401825785	0
4	447	957.14561185341	0
4	449	960.15791517345	0
4	451	961.941637758824	1
4	452	965.769771603256	1
4	453	967.14860843909	0
4	458	973.955373969978	0
4	460	974.438970779056	1
4	461	976.144789820296	1
4	463	976.208487875792	1
4	464	978.66196049244	1
4	465	979.457166916344	0
4	472	994.275476802733	0
4	474	998.967850855492	1
4	476	999.118710565787	1
4	477	1001.535466076377	0
4	482	1021.422423220967	0
4	483	1023.626684941886	0
4	485	1025.61861987627	0
4	489	1034.732109192486	1
4	491	1038.782605635946	2
4	493	1043.159900290471	3
4	495	1052.060487097904	3
4	496	1060.369776823678	2
4	497	1063.137791142194	1
4	498	1063.151719238052	0
4	500	1064.460086608793	0
4	502	1065.265403748812	1
4	503	1067.243972943741	1
4	504	1070.159752378608	0
4	506	1093.886914810011	0
4	508	1095.796884728062	1
4	509	1097.75593394522	1
4	511	1100.441881947243	1
4	513	1102.411024622887	2
4	514	1103.462073396471	2
4	515	1107.476607603554	1
4	519	1110.248847979331	1
4	522	1115.662036455481	2
4	523	1116.189681765357	2
4	524	1116.290411362431	1
4	525	1119.021410248512	0
4	527	1127.991864436109	0
4	528	1128.188385502399	0
4	532	1150.403494908239	0
4	534	1157.698185414769	1
4	537	1160.726672716901	2
4	538	1161.87620771563	2
4	539	1167.309136307614	1
4	540	1167.750348340937	0
4	542	1179.987550244786	0
4	543	1184.7966411899	0
4	545	1190.406193379886	0
4	546	1191.141138867733	0
4	548	1192.060187505366	0
4	549	1194.650758887766	0
4	561	1214.542207979603	0
4	564	1230.587609546064	1
4	568	1239.074375508244	2
4	574	1248.457966623778	2
4	575	1248.886140646801	1
4	576	1255.460059970329	0
4	578	1257.072305290322	0
4	580	1258.154433461831	1
4	582	1258.463916101759	2
4	583	1262.802298573934	2
4	587	1268.084140595639	2
4	589	1269.559912571375	3
4	591	1275.778087884677	3
4	592	1277.439489830773	2
4	593	1277.983572328308	1
4	594	1278.943183552564	0
4	596	1279.343956200392	0
4	598	1281.438934440836	1
4	602	1289.206170295051	1
4	603	1290.323732461272	0
4	607	1293.39115214529	0
4	609	1294.09831111435	1
4	621	1306.377084729727	2
4	624	1308.790255576544	3
4	626	1312.306243155178	4
4	633	1325.552127347144	5
4	635	1329.476278199886	6
4	637	1331.977731951153	7
4	639	1335.18914020612	8
4	644	1345.473493177319	9
4	648	1351.927235519813	9
4	649	1353.580612568926	8
4	651	1353.837422051082	8
4	653	1355.903882210185	9
4	655	1356.72186603143	10
4	656	1357.482005203756	10
4	658	1361.4761275669	10
4	659	1363.730459879845	10
4	660	1367.136259676079	9
4	662	1367.411236736202	9
4	663	1367.754257362366	9
4	664	1368.148767328319	8
4	665	1368.559096788744	7
4	666	1372.470566459207	6
4	667	1372.541120407108	5
4	668	1373.96212366278	4
4	669	1374.54969337366	3
4	670	1379.875210733063	2
4	674	1394.338131075077	1
4	675	1397.291334000798	0
4	677	1399.696189430956	0
4	678	1402.075402443528	0
4	683	1417.078528100198	0
4	685	1420.290782061921	1
4	686	1428.496949249682	1
4	687	1429.074524592268	0
4	693	1438.259455455825	0
4	695	1444.792201787484	1
4	697	1449.871614903672	2
4	700	1454.450343701601	2
4	706	1460.060926220485	2
4	711	1464.592283923065	3
4	714	1476.202711998038	4
4	718	1478.069516448218	5
4	723	1485.640289736562	6
4	725	1487.04370975529	7
4	731	1509.446094372045	7
4	732	1512.054730566692	6
4	733	1512.188546296725	5
4	735	1512.283199849435	5
4	739	1514.492181875754	6
4	741	1524.457204481954	6
4	742	1525.211654038378	5
4	743	1525.546216815962	4
4	745	1525.749158143837	4
4	746	1526.847823166875	4
4	750	1531.960058945468	3
4	752	1532.577202008577	3
4	753	1534.339275538639	3
4	754	1534.416198156743	2
4	755	1537.044318608922	1
4	756	1537.852278556332	0
4	758	1538.005236612714	0
4	759	1541.675484870842	0
4	761	1551.435827516609	0
4	762	1553.570091147365	0
4	764	1561.172855466474	0
4	766	1562.687982903677	1
4	767	1570.462176201731	1
4	768	1576.565530878965	0
4	770	1576.644626109085	0
4	771	1577.26656519979	0
4	773	1577.971520441329	0
4	775	1578.224976662378	1
4	776	1579.192095729716	1
4	777	1579.302909514311	0
4	779	1580.245655261544	0
4	780	1580.314455094141	0
4	782	1584.930820075336	0
4	783	1586.719710272574	0
4	785	1598.806839497624	0
4	786	1600.109269067743	0
4	788	1609.425566048026	0
4	789	1612.906005929333	0
4	791	1624.066798678646	0
4	795	1627.508938156312	1
4	797	1633.378399387397	1
4	798	1634.711460317317	0
4	800	1644.804533826314	0
4	801	1646.362309571139	0
4	808	1656.941765470321	0
4	810	1658.515716736725	0
4	814	1667.440571028196	0
4	828	1696.918963719115	1
4	837	1719.112607261954	2
4	838	1719.461869845552	2
4	839	1720.840222033524	1
4	840	1722.685873696855	0
4	842	1730.314919826024	0
4	843	1734.829872656363	0
4	845	1747.308895643383	0
4	847	1748.047353153453	1
4	851	1758.413850128296	1
4	853	1758.501417219979	1
4	855	1759.620362943869	2
4	856	1759.777450699742	2
4	858	1761.129210365635	2
4	860	1763.813737269511	3
4	861	1770.030897479715	3
4	863	1770.185782847709	3
4	864	1771.688172878476	3
4	865	1772.279923009685	2
4	866	1774.263424000628	1
4	867	1774.80599634363	0
4	869	1778.687776808715	0
4	873	1781.263490443706	1
4	875	1782.299514930253	1
4	877	1783.647511303199	1
4	878	1790.769986426819	1
4	880	1791.920343721064	1
4	881	1792.713493136982	1
4	882	1794.113712006146	0
4	887	1809.927053426328	0
4	888	1810.505039988498	0
4	890	1824.121326190655	0
4	891	1824.122813673515	0
4	896	1828.799173711548	0
4	900	1835.50901491629	0
4	902	1836.776512552437	0
4	903	1840.050440878623	0
4	907	1863.001971466587	0
4	909	1868.834196353236	0
4	911	1877.221133022566	0
4	912	1878.842745598503	0
4	917	1886.960024108163	0
4	918	1888.736478495937	0
4	920	1894.963428843149	0
4	921	1895.212105627058	0
4	923	1898.466332015644	0
4	924	1900.499935819127	0
4	926	1905.001104474535	0
4	927	1905.631735139961	0
4	929	1918.282732109325	0
4	930	1918.634805482457	0
4	932	1930.581653249306	0
4	933	1931.535731411098	0
4	935	1935.826789934323	0
4	936	1941.349396768186	0
4	938	1942.879357732617	0
4	939	1943.353816898678	0
4	941	1951.691519557266	0
4	943	1951.845844740435	1
4	944	1952.51592861775	1
4	945	1954.920763580672	0
4	947	1955.941756291918	0
4	948	1958.613824682181	0
4	953	1981.415149903608	0
4	954	1982.872628565699	0
4	956	1991.932271441198	0
4	957	1993.229949484233	0
4	965	2036.820239663622	0
4	966	2037.384100598866	0
4	970	2055.395634036457	0
4	972	2062.184217413682	0
4	974	2066.336908056797	0
4	975	2066.697959485803	0
4	977	2068.572735745909	0
4	978	2070.526510020609	0
4	980	2073.629401755589	0
4	981	2074.10446757548	0
4	986	2090.373689927269	0
4	987	2090.877400056036	0
4	989	2091.510531786147	0
4	990	2092.624010657849	0
4	992	2094.509784816636	0
4	993	2094.682954801999	0
4	998	2103.10888607586	0
4	999	2103.208195614364	0
4	1003	2109.544519618569	0
4	1005	2118.154802632516	0
4	1007	2121.370922174609	0
4	1008	2121.578858234272	0
4	1010	2121.865282291356	0
4	1011	2124.317192609166	0
4	1013	2140.760935507749	0
4	1014	2143.095681582423	0
4	1016	2148.408502014201	0
4	1018	2150.88545136286	1
4	1019	2150.975499893997	1
4	1020	2151.159953322069	0
4	1022	2153.152701023359	0
4	1023	2153.560233397949	0
4	1028	2156.826185249186	0
4	1030	2158.885137271309	1
4	1031	2162.199647637293	1
4	1032	2164.060632015767	0
4	1036	2167.645034195839	0
4	1038	2172.068103399063	0
4	1043	2180.820140528645	0
4	1044	2182.302391605934	0
4	1046	2190.617248134383	0
4	1047	2191.286351115279	0
4	1051	2208.631005398133	0
4	1054	2213.327587140208	1
4	1055	2216.647251284172	1
4	1056	2217.70798696445	0
4	1058	2229.887447686045	0
4	1059	2236.04534695514	0
4	1064	2260.949383513056	0
4	1065	2260.970449814532	0
4	1067	2299.27861517504	0
4	1068	2300.052782465222	0
4	1073	2325.819276184382	0
4	1074	2328.13561369147	0
4	1079	2354.169776292782	0
4	1080	2354.311175501893	0
4	1082	2363.140470416597	0
4	1083	2366.233321310977	0
4	1088	2372.742441384221	0
4	1089	2375.863404616821	0
4	1091	2376.357023247149	0
4	1092	2377.135094069591	0
4	1094	2387.929246926715	0
4	1096	2388.368622764903	1
4	1097	2392.650203107337	1
4	1098	2393.256625705987	0
4	1100	2399.324458944691	0
4	1101	2400.244112717249	0
4	1103	2416.76104363929	0
4	1104	2416.931740667924	0
4	1106	2420.683923370384	0
4	1107	2423.06725835782	0
4	1112	2433.483901769592	0
4	1114	2436.064121627286	1
4	1115	2436.803688055634	1
4	1116	2442.087139422094	0
4	1118	2449.110225251561	0
4	1119	2449.22419619963	0
4	1124	2452.839439866003	0
4	1125	2455.067334572379	0
4	1130	2485.429838161415	0
4	1131	2486.665593549933	0
5	149	355.234957148056	17
5	153	359.601323760454	18
5	158	376.604513839375	19
5	181	427.625190107073	20
5	195	470.055219099707	21
5	209	495.533859992509	22
5	222	509.380543972085	23
5	225	513.397481993815	24
5	238	528.14846014183	25
5	241	535.520168142736	26
5	250	541.617614045256	27
5	253	546.823330896409	28
5	254	548.276033152219	29
5	257	552.423354274662	30
5	258	554.048558227707	31
5	272	578.708725978218	32
5	287	603.048833145662	33
5	302	623.312725323997	34
5	303	623.775514456228	35
5	314	651.574212194976	36
5	320	658.498016789084	37
5	345	736.631905603406	38
5	356	772.956489092589	39
5	386	832.084235689485	40
5	401	869.708038973638	41
5	402	872.217186197593	42
5	403	873.067023519333	43
5	416	906.058937386884	44
5	438	933.555949632523	45
5	441	939.040782405726	46
5	456	973.137617073512	47
5	468	987.491051566223	48
5	475	998.98733540028	49
5	480	1016.602754939575	50
5	494	1047.461437729863	51
5	520	1113.621691236613	52
5	535	1157.734940807631	53
5	554	1201.557482907776	54
5	555	1208.090998229455	55
5	562	1227.096688861015	56
5	571	1243.405832947714	57
5	572	1246.274865932309	58
5	573	1246.720616134271	59
5	590	1274.768549982331	60
5	601	1282.810099482965	61
5	618	1298.294435649831	62
5	619	1304.317239088538	63
5	622	1307.090084539414	64
5	627	1315.92484113241	65
5	642	1343.036165414318	66
5	645	1348.629972671147	67
5	646	1350.785852798235	68
5	647	1350.972115952691	69
5	673	1392.216063043291	70
5	681	1414.366547870212	71
5	698	1452.606357255023	72
5	699	1453.096060114614	73
5	709	1464.193529024495	74
5	712	1475.64236497073	75
5	721	1480.905334247555	76
5	728	1497.927375492147	77
5	729	1501.180008506103	78
5	730	1508.349101713036	79
5	740	1519.518468483332	80
5	749	1530.457083057754	81
5	796	1631.468441287402	82
5	806	1655.839988929356	83
5	809	1657.286311414843	84
5	815	1672.321663513372	85
5	818	1675.648405974112	86
5	823	1678.39688832282	87
5	826	1687.498560033863	88
5	831	1702.23295380425	89
5	834	1707.029610587871	90
5	835	1709.909000715347	91
5	850	1752.243059334305	92
5	874	1782.045710407393	93
5	885	1803.573274782576	94
5	894	1827.08715121635	95
5	899	1834.504431711958	96
5	908	1868.487279996237	97
5	915	1885.649815574593	98
5	951	1964.941783272595	99
5	962	2032.313472936383	100
5	963	2033.39842386356	101
5	971	2060.448008835701	102
5	984	2081.415186189532	103
5	996	2101.074653323877	104
5	1004	2114.985262053194	105
5	1026	2156.387466766789	106
5	1037	2171.219808344083	107
5	1041	2180.00307711338	108
5	1052	2210.363850461026	109
5	1062	2250.998991285835	110
5	1071	2315.238156551455	111
5	1077	2349.981298101126	112
5	1086	2371.99028739213	113
5	1110	2431.229172941408	114
5	1122	2452.257036162289	115
5	1128	2476.303549925659	116
6	149	355.234957148056	2.577349708926
6	153	359.601323760454	0.307624201826
6	158	376.604513839375	14.914843283452
6	181	427.625190107073	4.114969501487
6	195	470.055219099707	5.7448892751
6	209	495.533859992509	5.222502368347
6	222	509.380543972085	6.127578677953
6	225	513.397481993815	5.610096585462
6	238	528.14846014183	18.687552918142
6	241	535.520168142736	19.929330489056
6	250	541.617614045256	22.805307235874
6	253	546.823330896409	18.033673002646
6	254	548.276033152219	11.654413475341
6	257	552.423354274662	12.546983043715
6	258	554.048558227707	14.036580637564
6	272	578.708725978218	2.299435871264
6	287	603.048833145662	1.401849346821
6	302	623.312725323997	2.745331986197
6	303	623.775514456228	1.862305018246
6	314	651.574212194976	5.222168799616
6	320	658.498016789084	1.118376721315
6	345	736.631905603406	3.457584913769
6	356	772.956489092589	7.09940055373
6	386	832.084235689485	0.720403884935
6	401	869.708038973638	37.745409603892
6	402	872.217186197593	21.376586152402
6	403	873.067023519333	7.305238102623
6	416	906.058937386884	4.835453027422
6	438	933.555949632523	1.37162733381
6	441	939.040782405726	1.111196875099
6	456	973.137617073512	1.7949672968
6	468	987.491051566223	4.418505941042
6	475	998.98733540028	7.560267670164
6	480	1016.602754939575	0.997239905731
6	494	1047.461437729863	21.650295935093
6	520	1113.621691236613	3.822719221846
6	535	1157.734940807631	8.277806883605
6	554	1201.557482907776	5.030786453194
6	555	1208.090998229455	11.521543500707
6	562	1227.096688861015	16.811544365574
6	571	1243.405832947714	29.419077139764
6	572	1246.274865932309	14.644800453322
6	573	1246.720616134271	5.41243638766
6	590	1274.768549982331	11.57875333836
6	601	1282.810099482965	1.296927263436
6	618	1298.294435649831	6.197822701225
6	619	1304.317239088538	9.424601107778
6	622	1307.090084539414	11.367050786147
6	627	1315.92484113241	19.496094776188
6	642	1343.036165414318	45.095161235633
6	645	1348.629972671147	26.481947330257
6	646	1350.785852798235	27.665354747829
6	647	1350.972115952691	12.67915570131
6	673	1392.216063043291	7.297381552236
6	681	1414.366547870212	1.846583813687
6	698	1452.606357255023	22.961556955175
6	699	1453.096060114614	20.152236316413
6	709	1464.193529024495	9.367835156253
6	712	1475.64236497073	19.405163063016
6	721	1480.905334247555	17.404060948736
6	728	1497.927375492147	21.032174789811
6	729	1501.180008506103	22.527519826393
6	730	1508.349101713036	14.40625721658
6	740	1519.518468483332	6.450083985507
6	749	1530.457083057754	0.140751573147
6	796	1631.468441287402	5.192626968331
6	806	1655.839988929356	7.749459346668
6	809	1657.286311414843	8.879477550344
6	815	1672.321663513372	12.231087387132
6	818	1675.648405974112	1.909659982014
6	823	1678.39688832282	1.694939268827
6	826	1687.498560033863	9.687999715382
6	831	1702.23295380425	19.869001526356
6	834	1707.029610587871	5.328821937635
6	835	1709.909000715347	3.240816713439
6	850	1752.243059334305	3.66103321485
6	874	1782.045710407393	2.950375793984
6	885	1803.573274782576	2.309615733899
6	894	1827.08715121635	1.213014327472
6	899	1834.504431711958	4.209471429879
6	908	1868.487279996237	23.345877820551
6	915	1885.649815574593	0.074937617309
6	951	1964.941783272595	2.067174476245
6	962	2032.313472936383	7.704847269313
6	963	2033.39842386356	2.578638928701
6	971	2060.448008835701	5.162349890607
6	984	2081.415186189532	0.063588569983
6	996	2101.074653323877	4.292480063278
6	1004	2114.985262053194	8.897360063495
6	1026	2156.387466766789	2.243172759917
6	1037	2171.219808344083	3.85514650585
6	1041	2180.00307711338	3.010726017204
6	1052	2210.363850461026	3.472444220507
6	1062	2250.998991285835	3.486911929821
6	1071	2315.238156551455	8.313943590109
6	1077	2349.981298101126	1.794932016578
6	1086	2371.99028739213	1.83354100275
6	1110	2431.229172941408	6.117905212673
6	1122	2452.257036162289	0.63083780472
6	1128	2476.303549925659	6.826941371813
7	149	355.234957148056	0.175489783006
7	158	376.604513839375	5.823663815723
7	161	386.01824043156	0
7	164	397.684376195028	0
7	167	407.278190585379	0
7	170	413.563785244136	5.648345188466
7	173	417.79778371846	0
7	176	419.657785982005	0
7	181	427.625190107073	4.114969501487
7	182	427.851978737396	3.575915452755
7	185	445.699346670034	0
7	188	447.543103794211	0
7	191	460.516704985146	0
7	197	474.19422053615	0
7	200	481.095683169202	0
7	203	486.127831312219	0
7	209	495.533859992509	5.048719635202
7	212	501.288951545055	0
7	258	554.048558227707	49.045601928611
7	259	557.056262824135	48.216599381116
7	260	558.085588331252	44.347317284728
7	263	560.757162929498	46.298870433651
7	264	561.2942829273	36.064783649347
7	265	568.327386563589	42.59650134619
7	268	569.109647007578	31.717773536062
7	269	570.214892292295	26.995391484396
7	272	578.708725978218	30.173061311267
7	273	578.908791434031	18.285084978399
7	276	586.260271558492	17.320810843676
7	277	588.145278005445	11.735987898491
7	278	593.487545642465	9.018796480254
7	281	599.791279867924	0
7	287	603.048833145662	0.548189072172
7	290	605.718975695784	0
7	293	616.248476632966	0
7	296	619.18447714698	0
7	305	639.624648878793	0
7	308	642.545848186468	0.739546288401
7	311	644.169706261645	0
7	314	651.574212194976	5.222168799616
7	320	658.498016789084	0.26725073262
7	323	661.325775895032	1.70363960834
7	326	665.804613480816	0
7	329	682.178400840308	0
7	332	700.87674194091	0
7	335	705.847610825016	4.561933582007
7	338	717.967404583469	0
7	341	722.446726874082	0
7	347	739.610347347772	0
7	350	750.885863105092	0
7	356	772.956489092589	3.709469039125
7	359	786.806884617963	0
7	362	796.034432044079	0
7	365	801.770196139294	0
7	368	802.874251853147	0.230890115898
7	371	803.466342464771	0
7	374	821.989938605393	0
7	377	822.971999659924	0
7	380	826.255938247739	0.563810754111
7	403	873.067023519333	35.585974710122
7	404	873.381047357969	35.852335998704
7	405	875.786264855852	22.418813759001
7	406	875.89381796932	11.08589925465
7	407	876.548004796565	7.848536594397
7	410	892.215476562267	0
7	413	896.95419122637	0
7	416	906.058937386884	4.835453027422
7	419	908.783784786466	0
7	422	921.983408396422	0
7	425	924.323871059312	1.24637938367
7	428	926.313872219769	0
7	431	928.366526091904	0
7	434	931.138786419577	0
7	443	951.775819964726	0
7	446	954.938401825785	0
7	449	960.15791517345	0
7	452	965.769771603256	3.828133844432
7	458	973.955373969978	0
7	461	976.144789820296	1.70581904124
7	464	978.66196049244	2.453472616648
7	475	998.98733540028	4.711858597547
7	476	999.118710565787	0.150859710295
7	482	1021.422423220967	0
7	485	1025.61861987627	0
7	494	1047.461437729863	21.650295935093
7	495	1052.060487097904	17.328377905418
7	496	1060.369776823678	21.587171187732
7	497	1063.137791142194	19.977890851723
7	500	1064.460086608793	0
7	503	1067.243972943741	1.978569194929
7	506	1093.886914810011	0
7	509	1097.75593394522	1.959049217158
7	514	1103.462073396471	3.020191449228
7	515	1107.476607603554	5.065582980667
7	520	1113.621691236613	3.822719221846
7	523	1116.189681765357	5.940833786026
7	524	1116.290411362431	0.62837490695
7	527	1127.991864436109	0
7	535	1157.734940807631	7.331445899392
7	538	1161.87620771563	4.178022300861
7	539	1167.309136307614	6.582463590713
7	542	1179.987550244786	0
7	545	1190.406193379886	0
7	548	1192.060187505366	0
7	573	1246.720616134271	32.178408154668
7	574	1248.457966623778	17.870357077714
7	575	1248.886140646801	9.811765138557
7	578	1257.072305290322	0
7	583	1262.802298573934	4.647865112103
7	590	1274.768549982331	16.304633880572
7	591	1275.778087884677	12.588291240706
7	592	1277.439489830773	9.355349235134
7	593	1277.983572328308	8.423659756933
7	596	1279.343956200392	0
7	601	1282.810099482965	1.371165042129
7	602	1289.206170295051	7.692998075522
7	647	1350.972115952691	57.580963807401
7	648	1351.927235519813	57.828924405463
7	649	1353.580612568926	47.203527839199
7	656	1357.482005203756	48.691749627212
7	659	1363.730459879845	51.424216724667
7	660	1367.136259676079	41.584132328935
7	663	1367.754257362366	38.27797916248
7	664	1368.148767328319	36.171035377166
7	665	1368.559096788744	33.369956582624
7	666	1372.470566459207	26.997073281888
7	667	1372.541120407108	18.703698356026
7	668	1373.96212366278	18.058241452595
7	669	1374.54969337366	17.82782734223
7	670	1379.875210733063	18.399083166163
7	673	1392.216063043291	24.804826307089
7	674	1394.338131075077	9.419449584022
7	677	1399.696189430956	0
7	683	1417.078528100198	0
7	686	1428.496949249682	8.206167187761
7	699	1453.096060114614	14.836604658789
7	700	1454.450343701601	9.658141914117
7	730	1508.349101713036	58.477486809364
7	731	1509.446094372045	54.620400503803
7	732	1512.054730566692	51.993804346207
7	733	1512.188546296725	47.59626237366
7	740	1519.518468483332	43.315756485294
7	741	1524.457204481954	46.387688033736
7	742	1525.211654038378	39.571364301816
7	743	1525.546216815962	38.502507060672
7	746	1526.847823166875	14.56462331744
7	749	1530.457083057754	17.388698559929
7	750	1531.960058945468	17.467877069714
7	753	1534.339275538639	8.590117394802
7	754	1534.416198156743	4.099866672136
7	755	1537.044318608922	4.467116600345
7	758	1538.005236612714	0
7	761	1551.435827516609	0
7	764	1561.172855466474	0
7	767	1570.462176201731	7.774193298054
7	770	1576.644626109085	0
7	773	1577.971520441329	0
7	776	1579.192095729716	0.967119067338
7	779	1580.245655261544	0
7	782	1584.930820075336	0
7	785	1598.806839497624	0
7	788	1609.425566048026	0
7	791	1624.066798678646	0
7	796	1631.468441287402	5.192626968331
7	797	1633.378399387397	5.869461231085
7	800	1644.804533826314	0
7	809	1657.286311414843	0.344545944522
7	815	1672.321663513372	4.881092485176
7	818	1675.648405974112	1.909659982014
7	835	1709.909000715347	33.207051661354
7	838	1719.461869845552	22.542906126437
7	839	1720.840222033524	1.72761477157
7	842	1730.314919826024	0
7	845	1747.308895643383	0
7	850	1752.243059334305	4.195706180852
7	851	1758.413850128296	9.831824008841
7	856	1759.777450699742	1.276033479763
7	861	1770.030897479715	10.410534535846
7	864	1771.688172878476	10.558962512841
7	865	1772.279923009685	8.466185740174
7	866	1774.263424000628	4.077641152919
7	869	1778.687776808715	0
7	874	1782.045710407393	2.950375793984
7	875	1782.299514930253	1.036024486547
7	878	1790.769986426819	7.12247512362
7	881	1792.713493136982	0.793149415918
7	887	1809.927053426328	0
7	890	1824.121326190655	0
7	896	1828.799173711548	0
7	899	1834.504431711958	4.209471429879
7	902	1836.776512552437	0
7	908	1868.487279996237	5.48530852965
7	911	1877.221133022566	0
7	917	1886.960024108163	0
7	920	1894.963428843149	0
7	923	1898.466332015644	0
7	926	1905.001104474535	0
7	929	1918.282732109325	0
7	932	1930.581653249306	0
7	935	1935.826789934323	0
7	938	1942.879357732617	0
7	941	1951.691519557266	0
7	944	1952.51592861775	0.670083877315
7	947	1955.941756291918	0
7	953	1981.415149903608	0
7	956	1991.932271441198	0
7	965	2036.820239663622	0
7	971	2060.448008835701	5.052374799244
7	974	2066.336908056797	0
7	977	2068.572735745909	0
7	980	2073.629401755589	0
7	986	2090.373689927269	0
7	989	2091.510531786147	0
7	992	2094.509784816636	0
7	998	2103.10888607586	0
7	1004	2114.985262053194	5.440742434625
7	1007	2121.370922174609	0
7	1010	2121.865282291356	0
7	1013	2140.760935507749	0
7	1016	2148.408502014201	0
7	1019	2150.975499893997	0.090048531137
7	1022	2153.152701023359	0
7	1028	2156.826185249186	0
7	1031	2162.199647637293	3.314510365984
7	1037	2171.219808344083	3.574774148244
7	1043	2180.820140528645	0
7	1046	2190.617248134383	0
7	1052	2210.363850461026	1.732845062893
7	1055	2216.647251284172	3.319664143964
7	1058	2229.887447686045	0
7	1064	2260.949383513056	0
7	1067	2299.27861517504	0
7	1073	2325.819276184382	0
7	1079	2354.169776292782	0
7	1082	2363.140470416597	0
7	1088	2372.742441384221	0
7	1091	2376.357023247149	0
7	1094	2387.929246926715	0
7	1097	2392.650203107337	4.281580342434
7	1100	2399.324458944691	0
7	1103	2416.76104363929	0
7	1106	2420.683923370384	0
7	1112	2433.483901769592	0
7	1115	2436.803688055634	0.739566428348
7	1118	2449.110225251561	0
7	1124	2452.839439866003	0
7	1130	2485.429838161415	0
8	150	355.994389466737	33
8	159	378.073138151461	34
8	162	391.243783333498	35
8	165	398.319211991523	36
8	170	413.563785244136	37
8	171	414.04623406603	38
8	174	418.07503692795	39
8	182	427.851978737396	40
8	183	436.67578734016	41
8	186	446.01404981748	42
8	189	447.654100173929	43
8	192	461.240010226726	44
8	198	474.280812636268	45
8	201	482.282398342804	46
8	204	488.029153634998	47
8	210	497.60601240254	48
8	213	501.358547703275	49
8	259	557.056262824135	50
8	260	558.085588331252	51
8	263	560.757162929498	52
8	264	561.2942829273	53
8	265	568.327386563589	54
8	268	569.109647007578	55
8	269	570.214892292295	56
8	273	578.908791434031	57
8	276	586.260271558492	58
8	277	588.145278005445	59
8	278	593.487545642465	60
8	279	597.772951985858	61
8	282	600.93036751388	62
8	288	605.710991502695	63
8	291	608.491063605446	64
8	294	616.391044173876	65
8	297	619.960887700883	66
8	308	642.545848186468	67
8	309	642.688115794622	68
8	315	652.225082579977	69
8	323	661.325775895032	70
8	324	663.633912406477	71
8	327	668.243505523873	72
8	330	682.502084435822	73
8	335	705.847610825016	74
8	336	706.446019362214	75
8	339	718.687895620731	76
8	342	724.217064572639	77
8	348	749.232306799399	78
8	351	752.504377824962	79
8	357	775.604586104589	80
8	360	787.019179029365	81
8	363	797.951411261966	82
8	368	802.874251853147	83
8	369	803.323643636667	84
8	372	806.769445693416	85
8	375	822.130924429024	86
8	380	826.255938247739	87
8	381	826.617865470006	88
8	404	873.381047357969	89
8	405	875.786264855852	90
8	406	875.89381796932	91
8	407	876.548004796565	92
8	408	877.507954896841	93
8	411	894.991768399609	94
8	417	906.625949606559	95
8	420	916.046749715889	96
8	425	924.323871059312	97
8	426	926.178777863576	98
8	429	926.514616656712	99
8	432	928.660657450211	100
8	435	931.91096600149	101
8	444	951.797098714264	102
8	447	957.14561185341	103
8	452	965.769771603256	104
8	453	967.14860843909	105
8	461	976.144789820296	106
8	464	978.66196049244	107
8	465	979.457166916344	108
8	476	999.118710565787	109
8	477	1001.535466076377	110
8	483	1023.626684941886	111
8	495	1052.060487097904	112
8	496	1060.369776823678	113
8	497	1063.137791142194	114
8	498	1063.151719238052	115
8	503	1067.243972943741	116
8	504	1070.159752378608	117
8	509	1097.75593394522	118
8	514	1103.462073396471	119
8	515	1107.476607603554	120
8	523	1116.189681765357	121
8	524	1116.290411362431	122
8	525	1119.021410248512	123
8	528	1128.188385502399	124
8	538	1161.87620771563	125
8	539	1167.309136307614	126
8	540	1167.750348340937	127
8	543	1184.7966411899	128
8	546	1191.141138867733	129
8	549	1194.650758887766	130
8	574	1248.457966623778	131
8	575	1248.886140646801	132
8	576	1255.460059970329	133
8	583	1262.802298573934	134
8	591	1275.778087884677	135
8	592	1277.439489830773	136
8	593	1277.983572328308	137
8	594	1278.943183552564	138
8	602	1289.206170295051	139
8	603	1290.323732461272	140
8	648	1351.927235519813	141
8	649	1353.580612568926	142
8	656	1357.482005203756	143
8	659	1363.730459879845	144
8	660	1367.136259676079	145
8	663	1367.754257362366	146
8	664	1368.148767328319	147
8	665	1368.559096788744	148
8	666	1372.470566459207	149
8	667	1372.541120407108	150
8	668	1373.96212366278	151
8	669	1374.54969337366	152
8	670	1379.875210733063	153
8	674	1394.338131075077	154
8	675	1397.291334000798	155
8	678	1402.075402443528	156
8	686	1428.496949249682	157
8	687	1429.074524592268	158
8	700	1454.450343701601	159
8	731	1509.446094372045	160
8	732	1512.054730566692	161
8	733	1512.188546296725	162
8	741	1524.457204481954	163
8	742	1525.211654038378	164
8	743	1525.546216815962	165
8	746	1526.847823166875	166
8	750	1531.960058945468	167
8	753	1534.339275538639	168
8	754	1534.416198156743	169
8	755	1537.044318608922	170
8	756	1537.852278556332	171
8	759	1541.675484870842	172
8	762	1553.570091147365	173
8	767	1570.462176201731	174
8	768	1576.565530878965	175
8	771	1577.26656519979	176
8	776	1579.192095729716	177
8	777	1579.302909514311	178
8	780	1580.314455094141	179
8	783	1586.719710272574	180
8	786	1600.109269067743	181
8	789	1612.906005929333	182
8	797	1633.378399387397	183
8	798	1634.711460317317	184
8	801	1646.362309571139	185
8	810	1658.515716736725	186
8	838	1719.461869845552	187
8	839	1720.840222033524	188
8	840	1722.685873696855	189
8	843	1734.829872656363	190
8	851	1758.413850128296	191
8	856	1759.777450699742	192
8	861	1770.030897479715	193
8	864	1771.688172878476	194
8	865	1772.279923009685	195
8	866	1774.263424000628	196
8	867	1774.80599634363	197
8	875	1782.299514930253	198
8	878	1790.769986426819	199
8	881	1792.713493136982	200
8	882	1794.113712006146	201
8	888	1810.505039988498	202
8	891	1824.122813673515	203
8	900	1835.50901491629	204
8	903	1840.050440878623	205
8	909	1868.834196353236	206
8	912	1878.842745598503	207
8	918	1888.736478495937	208
8	921	1895.212105627058	209
8	924	1900.499935819127	210
8	927	1905.631735139961	211
8	930	1918.634805482457	212
8	933	1931.535731411098	213
8	936	1941.349396768186	214
8	939	1943.353816898678	215
8	944	1952.51592861775	216
8	945	1954.920763580672	217
8	948	1958.613824682181	218
8	954	1982.872628565699	219
8	957	1993.229949484233	220
8	966	2037.384100598866	221
8	972	2062.184217413682	222
8	975	2066.697959485803	223
8	978	2070.526510020609	224
8	981	2074.10446757548	225
8	987	2090.877400056036	226
8	990	2092.624010657849	227
8	993	2094.682954801999	228
8	999	2103.208195614364	229
8	1005	2118.154802632516	230
8	1008	2121.578858234272	231
8	1011	2124.317192609166	232
8	1014	2143.095681582423	233
8	1019	2150.975499893997	234
8	1020	2151.159953322069	235
8	1023	2153.560233397949	236
8	1031	2162.199647637293	237
8	1032	2164.060632015767	238
8	1038	2172.068103399063	239
8	1044	2182.302391605934	240
8	1047	2191.286351115279	241
8	1055	2216.647251284172	242
8	1056	2217.70798696445	243
8	1059	2236.04534695514	244
8	1065	2260.970449814532	245
8	1068	2300.052782465222	246
8	1074	2328.13561369147	247
8	1080	2354.311175501893	248
8	1083	2366.233321310977	249
8	1089	2375.863404616821	250
8	1092	2377.135094069591	251
8	1097	2392.650203107337	252
8	1098	2393.256625705987	253
8	1101	2400.244112717249	254
8	1104	2416.931740667924	255
8	1107	2423.06725835782	256
8	1115	2436.803688055634	257
8	1116	2442.087139422094	258
8	1119	2449.22419619963	259
8	1125	2455.067334572379	260
8	1131	2486.665593549933	261
9	150	355.994389466737	0.934922101687
9	159	378.073138151461	7.292288127809
9	162	391.243783333498	5.225542901938
9	165	398.319211991523	0.634835796495
9	170	413.563785244136	6.285594658757
9	171	414.04623406603	6.13079401036
9	174	418.07503692795	0.27725320949
9	182	427.851978737396	4.34175813181
9	183	436.67578734016	12.399724055519
9	186	446.01404981748	0.314703147446
9	189	447.654100173929	0.110996379718
9	192	461.240010226726	0.72330524158
9	198	474.280812636268	0.086592100118
9	201	482.282398342804	1.186715173602
9	204	488.029153634998	1.901322322779
9	210	497.60601240254	7.120872045233
9	213	501.358547703275	0.06959615822
9	259	557.056262824135	52.053306525039
9	260	558.085588331252	49.245924888233
9	263	560.757162929498	47.018891882974
9	264	561.2942829273	46.835990431453
9	265	568.327386563589	43.097887285636
9	268	569.109647007578	43.378761790179
9	269	570.214892292295	32.823018820779
9	273	578.908791434031	30.37312676708
9	276	586.260271558492	25.63656510286
9	277	588.145278005445	19.205817290629
9	278	593.487545642465	17.078255535511
9	279	597.772951985858	13.304202823647
9	282	600.93036751388	1.139087645956
9	288	605.710991502695	3.210347429205
9	291	608.491063605446	2.772087909662
9	294	616.391044173876	0.14256754091
9	297	619.960887700883	0.776410553903
9	308	642.545848186468	2.921199307675
9	309	642.688115794622	0.881813896555
9	315	652.225082579977	5.873039184617
9	323	661.325775895032	3.095009838568
9	324	663.633912406477	4.011776119785
9	327	668.243505523873	2.438892043057
9	330	682.502084435822	0.323683595514
9	335	705.847610825016	4.970868884106
9	336	706.446019362214	5.160342119205
9	339	718.687895620731	0.720491037262
9	342	724.217064572639	1.770337698557
9	348	749.232306799399	9.621959451627
9	351	752.504377824962	1.61851471987
9	357	775.604586104589	6.357566051125
9	360	787.019179029365	0.212294411402
9	363	797.951411261966	1.916979217887
9	368	802.874251853147	1.104055713853
9	369	803.323643636667	0.680281899418
9	372	806.769445693416	3.303103228645
9	375	822.130924429024	0.140985823631
9	380	826.255938247739	3.283938587815
9	381	826.617865470006	0.925737976378
9	404	873.381047357969	35.899998548758
9	405	875.786264855852	38.257553496587
9	406	875.89381796932	22.526366872469
9	407	876.548004796565	11.740086081895
9	408	877.507954896841	8.808486694673
9	411	894.991768399609	2.776291837342
9	417	906.625949606559	5.402465247097
9	420	916.046749715889	7.262964929423
9	425	924.323871059312	2.34046266289
9	426	926.178777863576	3.101286187934
9	429	926.514616656712	0.200744436943
9	432	928.660657450211	0.294131358307
9	435	931.91096600149	0.772179581913
9	444	951.797098714264	0.021278749538
9	447	957.14561185341	2.207210027625
9	452	965.769771603256	5.611856429806
9	453	967.14860843909	5.206970680266
9	461	976.144789820296	2.189415850318
9	464	978.66196049244	4.222989713384
9	465	979.457166916344	3.248679040552
9	476	999.118710565787	4.843233763054
9	477	1001.535466076377	2.567615220885
9	483	1023.626684941886	2.204261720919
9	495	1052.060487097904	26.249345303134
9	496	1060.369776823678	25.637667631192
9	497	1063.137791142194	24.355185506248
9	498	1063.151719238052	19.991818947581
9	503	1067.243972943741	2.783886334948
9	504	1070.159752378608	4.894348629796
9	509	1097.75593394522	3.869019135209
9	514	1103.462073396471	7.665188668409
9	515	1107.476607603554	7.034725656311
9	523	1116.189681765357	6.39070975059
9	524	1116.290411362431	6.0415633831
9	525	1119.021410248512	3.359373793031
9	528	1128.188385502399	0.19652106629
9	538	1161.87620771563	11.472712807391
9	539	1167.309136307614	9.610950892845
9	540	1167.750348340937	7.023675624036
9	543	1184.7966411899	4.809090945114
9	546	1191.141138867733	0.734945487847
9	549	1194.650758887766	2.5905713824
9	574	1248.457966623778	33.915758644175
9	575	1248.886140646801	18.298531100737
9	576	1255.460059970329	16.385684462085
9	583	1262.802298573934	5.729993283612
9	591	1275.778087884677	17.314171782918
9	592	1277.439489830773	14.249693186802
9	593	1277.983572328308	9.899431732669
9	594	1278.943183552564	9.383270981189
9	602	1289.206170295051	7.767235854215
9	603	1290.323732461272	8.810560241743
9	648	1351.927235519813	58.536083374523
9	649	1353.580612568926	59.482301454576
9	656	1357.482005203756	51.104920474029
9	659	1363.730459879845	54.940204303301
9	660	1367.136259676079	54.830016520901
9	663	1367.754257362366	42.202130015222
9	664	1368.148767328319	38.672489128433
9	665	1368.559096788744	36.581364837591
9	666	1372.470566459207	37.281426253087
9	667	1372.541120407108	27.067627229789
9	668	1373.96212366278	20.124701611698
9	669	1374.54969337366	18.645811163475
9	670	1379.875210733063	23.153344701633
9	674	1394.338131075077	26.926894338875
9	675	1397.291334000798	12.372652509743
9	678	1402.075402443528	2.379213012572
9	686	1428.496949249682	11.418421149484
9	687	1429.074524592268	8.783742530347
9	700	1454.450343701601	16.190888245776
9	731	1509.446094372045	59.574479468373
9	732	1512.054730566692	57.22903669845
9	733	1512.188546296725	52.12762007624
9	741	1524.457204481954	48.254492483916
9	742	1525.211654038378	47.14213759016
9	743	1525.546216815962	39.9059270794
9	746	1526.847823166875	39.804113411585
9	750	1531.960058945468	18.891674447643
9	753	1534.339275538639	19.847093662885
9	754	1534.416198156743	8.667040012906
9	755	1537.044318608922	6.727987124315
9	756	1537.852278556332	5.275076547755
9	759	1541.675484870842	3.670248258128
9	762	1553.570091147365	2.134263630756
9	767	1570.462176201731	9.289320735257
9	768	1576.565530878965	13.877547975288
9	771	1577.26656519979	0.621939090705
9	776	1579.192095729716	1.220575288387
9	777	1579.302909514311	1.077932851933
9	780	1580.314455094141	0.068799832597
9	783	1586.719710272574	1.788890197238
9	786	1600.109269067743	1.302429570119
9	789	1612.906005929333	3.480439881307
9	797	1633.378399387397	7.102585068326
9	798	1634.711460317317	7.202522161005
9	801	1646.362309571139	1.557775744825
9	810	1658.515716736725	1.573951266404
9	838	1719.461869845552	42.759920791559
9	839	1720.840222033524	23.921258314409
9	840	1722.685873696855	3.573266434901
9	843	1734.829872656363	4.514952830339
9	851	1758.413850128296	10.366496974843
9	856	1759.777450699742	11.195424580287
9	861	1770.030897479715	11.529480259736
9	864	1771.688172878476	12.067809934607
9	865	1772.279923009685	11.15071264405
9	866	1774.263424000628	10.449686731117
9	867	1774.80599634363	4.620213495921
9	875	1782.299514930253	3.204180316844
9	878	1790.769986426819	9.506495983113
9	881	1792.713493136982	9.065981833783
9	882	1794.113712006146	2.193368285082
9	888	1810.505039988498	0.57798656217
9	891	1824.122813673515	0.00148748286
9	900	1835.50901491629	5.214054634211
9	903	1840.050440878623	3.273928326186
9	909	1868.834196353236	5.832224886649
9	912	1878.842745598503	1.621612575937
9	918	1888.736478495937	1.776454387774
9	921	1895.212105627058	0.248676783909
9	924	1900.499935819127	2.033603803483
9	927	1905.631735139961	0.630630665426
9	930	1918.634805482457	0.352073373132
9	933	1931.535731411098	0.954078161792
9	936	1941.349396768186	5.522606833863
9	939	1943.353816898678	0.474459166061
9	944	1952.51592861775	0.824409060484
9	945	1954.920763580672	3.074918840237
9	948	1958.613824682181	2.672068390263
9	954	1982.872628565699	1.457478662091
9	957	1993.229949484233	1.297678043035
9	966	2037.384100598866	0.563860935244
9	972	2062.184217413682	6.788583377225
9	975	2066.697959485803	0.361051429006
9	978	2070.526510020609	1.9537742747
9	981	2074.10446757548	0.475065819891
9	987	2090.877400056036	0.503710128767
9	990	2092.624010657849	1.113478871702
9	993	2094.682954801999	0.173169985363
9	999	2103.208195614364	0.099309538504
9	1005	2118.154802632516	8.610283013947
9	1008	2121.578858234272	0.207936059663
9	1011	2124.317192609166	2.45191031781
9	1014	2143.095681582423	2.334746074674
9	1019	2150.975499893997	2.566997879796
9	1020	2151.159953322069	0.274501959209
9	1023	2153.560233397949	0.40753237459
9	1031	2162.199647637293	5.373462388107
9	1032	2164.060632015767	5.175494744458
9	1038	2172.068103399063	4.423069203224
9	1044	2182.302391605934	1.482251077289
9	1047	2191.286351115279	0.669102980896
9	1055	2216.647251284172	8.016245886039
9	1056	2217.70798696445	4.380399824242
9	1059	2236.04534695514	6.157899269095
9	1065	2260.970449814532	0.021066301476
9	1068	2300.052782465222	0.774167290182
9	1074	2328.13561369147	2.316337507088
9	1080	2354.311175501893	0.141399209111
9	1083	2366.233321310977	3.09285089438
9	1089	2375.863404616821	3.1209632326
9	1092	2377.135094069591	0.778070822442
9	1097	2392.650203107337	4.720956180622
9	1098	2393.256625705987	4.888002941084
9	1101	2400.244112717249	0.919653772558
9	1104	2416.931740667924	0.170697028634
9	1107	2423.06725835782	2.383334987436
9	1115	2436.803688055634	3.319786286042
9	1116	2442.087139422094	6.023017794808
9	1119	2449.22419619963	0.113970948069
9	1125	2455.067334572379	2.227894706376
9	1131	2486.665593549933	1.235755388518
10	178	423.510220605586	6
10	271	576.409290106954	7
10	313	646.35204339536	8
10	415	901.223484359462	9
10	487	1025.81114179477	10
10	517	1109.798972014767	11
10	585	1263.189796643971	12
10	600	1281.513172219529	13
10	672	1384.918681491055	14
10	702	1454.825693868242	15
10	737	1513.068384497825	16
10	748	1530.316331484607	17
10	793	1626.275814319071	18
10	817	1673.738745992098	19
10	820	1676.701949053993	20
10	849	1748.582026119455	21
10	871	1779.095334613409	22
10	898	1830.294960282079	23
11	1138	2500	0.1044
12	1138	2500	0.0464

