file 59894 1678273393                                           
version 2
run experiments_easy_game_mode1-378-20230308-12:03:13-20298
attr configname experiments_easy_game_mode1
attr datetime 20230308-12:03:13
attr experiment experiments_easy_game_mode1
attr inifile omnetpp.ini
attr iterationvars "$0=5.5, $1=1, $2=0"
attr iterationvarsf 5.5,1,0-
attr measurement "$0=5.5, $1=1, $2=0"
attr network Network
attr processid 20298
attr repetition 18
attr replication #18
attr resultdir results
attr runnumber 378
attr seedset 18
param *.boss.arrival_mean 20
param *.boss.service_mean 5.5
param *.minion.arrival_mean 10
param *.minion.service_mean 1
param *.player.recover_rate_x 0
param **.minion.arrival_distribution 0
param **.minion.service_distribution 0
param **.boss.arrival_distribution 0
param **.boss.service_distribution 0

vector 0 Network.player boss_jobs_number_stat:vector ETV
attr source signal_boss_jobs_number
vector 1 Network.player boss_jobs_queue_number_stat:vector ETV
attr source signal_boss_jobs_queue_number
vector 2 Network.player boss_waiting_time_stat:vector ETV
attr source signal_boss_waiting_time
vector 3 Network.player minion_jobs_number_stat:vector ETV
attr source signal_minion_jobs_number
vector 4 Network.player minion_jobs_queue_number_stat:vector ETV
attr source signal_minion_jobs_queue_number
vector 5 Network.player boss_defeated_stat:vector ETV
attr source signal_boss_defeated
vector 6 Network.player boss_response_time_stat:vector ETV
attr source signal_boss_response_time
vector 7 Network.player minion_waiting_time_stat:vector ETV
attr source signal_minion_waiting_time
vector 8 Network.player minion_defeated_stat:vector ETV
attr source signal_minion_defeated
vector 9 Network.player minion_response_time_stat:vector ETV
attr source signal_minion_response_time
vector 10 Network.player minion_recovered_stat:vector ETV
attr source signal_minion_recovered
vector 11 Network.player minion_throughput:vector ETV
attr source signal_minion_throughput
vector 12 Network.player boss_throughput:vector ETV
attr source signal_boss_throughput
0	2013 2644 146 1137 352.65760743913 2494.636027121347 103 1 5 163 347
1	4657 5213 146 1137 352.65760743913 2494.636027121347 203 0 4 117 243
2	9870 3061 146 1133 352.65760743913 2490.238705866935 101 0 25.509474620741 325.67549249554 4595.3658966663
3	12931 5886 148 1130 355.05946736505 2485.429838161415 229 1 10 406 1430
4	18817 11774 148 1131 355.05946736505 2485.924140316822 458 0 9 354 1694
5	30591 2686 149 1128 355.234957148056 2476.303549925659 100 17 116 6650 525550
6	33277 3887 149 1128 355.234957148056 2476.303549925659 100 0.063588569983 45.095161235633 913.52368596329 15949.840073101
7	37164 7339 149 1130 355.234957148056 2485.429838161415 236 0 57.580963807401 1376.4707938106 45519.288683359
8	44503 6280 150 1131 355.538730075528 2485.924140316822 229 33 261 33663 5949191
9	50783 8882 150 1131 355.538730075528 2485.924140316822 229 0.000594993144 57.96301163425 1571.3514727931 48247.368092147
10	59665 188 487 850 1025.81114179477 1748.582026119455 7 2 8 35 203
11	59853 20 1138 1138 2500 2500 1 0.1044 0.1044 0.1044 0.01089936
12	59873 20 1138 1138 2500 2500 1 0.0464 0.0464 0.0464 0.00215296

