file 61525 1678273386                                           
version 2
run experiments_easy_game_mode1-343-20230308-12:03:06-20123
attr configname experiments_easy_game_mode1
attr datetime 20230308-12:03:06
attr experiment experiments_easy_game_mode1
attr inifile omnetpp.ini
attr iterationvars "$0=5, $1=3.5, $2=100"
attr iterationvarsf 5,3.5,100-
attr measurement "$0=5, $1=3.5, $2=100"
attr network Network
attr processid 20123
attr repetition 13
attr replication #13
attr resultdir results
attr runnumber 343
attr seedset 13
param *.boss.arrival_mean 20
param *.boss.service_mean 5
param *.minion.arrival_mean 10
param *.minion.service_mean 3.5
param *.player.recover_rate_x 100
param **.minion.arrival_distribution 0
param **.minion.service_distribution 0
param **.boss.arrival_distribution 0
param **.boss.service_distribution 0

vector 0 Network.player boss_jobs_number_stat:vector ETV
attr source signal_boss_jobs_number
vector 1 Network.player boss_jobs_queue_number_stat:vector ETV
attr source signal_boss_jobs_queue_number
vector 2 Network.player minion_jobs_number_stat:vector ETV
attr source signal_minion_jobs_number
vector 3 Network.player minion_jobs_queue_number_stat:vector ETV
attr source signal_minion_jobs_queue_number
vector 4 Network.player boss_defeated_stat:vector ETV
attr source signal_boss_defeated
vector 5 Network.player boss_response_time_stat:vector ETV
attr source signal_boss_response_time
vector 6 Network.player boss_waiting_time_stat:vector ETV
attr source signal_boss_waiting_time
vector 7 Network.player minion_waiting_time_stat:vector ETV
attr source signal_minion_waiting_time
vector 8 Network.player minion_recovered_stat:vector ETV
attr source signal_minion_recovered
vector 9 Network.player minion_defeated_stat:vector ETV
attr source signal_minion_defeated
vector 10 Network.player minion_response_time_stat:vector ETV
attr source signal_minion_response_time
vector 11 Network.player minion_throughput:vector ETV
attr source signal_minion_throughput
vector 12 Network.player boss_throughput:vector ETV
attr source signal_boss_throughput
0	2021 2654 161 1121 350.881313172297 2490.461691942782 103 1 4 135 213
1	4675 5295 161 1121 350.881313172297 2490.461691942782 206 0 3 64 92
2	9970 5627 163 1123 354.220807892071 2494.009934103584 219 1 8 437 1237
3	15597 11199 163 1123 354.220807892071 2494.009934103584 436 0 7 431 1151
4	26796 2766 164 1117 354.914696827784 2486.93993547745 103 19 121 7210 595752
5	29562 3992 164 1117 354.914696827784 2486.93993547745 103 0.09927872076 26.721852590477 653.77252332766 7313.2884714937
6	33554 2987 164 1121 354.914696827784 2490.461691942782 103 0 17.350474652557 134.62771300143 1251.986244888
7	36541 9082 165 1117 356.768685712741 2486.93993547745 264 0 38.590571778485 1581.8959899077 25390.965513862
8	45623 1257 169 1121 360.818519535049 2490.461691942782 47 5 51 1316 45496
9	46880 5940 176 1112 369.386944630071 2476.24315735703 217 34 250 30814 5227096
10	52820 8667 176 1112 369.386944630071 2476.24315735703 217 0.100676187747 40.25204283586 1997.1388387665 33551.888381493
11	61487 17 1124 1124 2500 2500 1 0.1 0.1 0.1 0.01
12	61504 20 1124 1124 2500 2500 1 0.0484 0.0484 0.0484 0.00234256

