version 2
run experiments_easy_game_mode1-2080-20230308-12:09:06-29190
attr configname experiments_easy_game_mode1
attr datetime 20230308-12:09:06
attr experiment experiments_easy_game_mode1
attr inifile omnetpp.ini
attr iterationvars "$0=7.5, $1=3, $2=100"
attr iterationvarsf 7.5,3,100-
attr measurement "$0=7.5, $1=3, $2=100"
attr network Network
attr processid 29190
attr repetition 10
attr replication #10
attr resultdir results
attr runnumber 2080
attr seedset 10
param *.boss.arrival_mean 20
param *.boss.service_mean 7.5
param *.minion.arrival_mean 10
param *.minion.service_mean 3
param *.player.recover_rate_x 100
param **.minion.arrival_distribution 0
param **.minion.service_distribution 0
param **.boss.arrival_distribution 0
param **.boss.service_distribution 0

vector 0 Network.player boss_defeated_stat:vector ETV
attr source signal_boss_defeated
vector 1 Network.player boss_jobs_queue_number_stat:vector ETV
attr source signal_boss_jobs_queue_number
vector 2 Network.player boss_response_time_stat:vector ETV
attr source signal_boss_response_time
vector 3 Network.player boss_waiting_time_stat:vector ETV
attr source signal_boss_waiting_time
vector 4 Network.player minion_waiting_time_stat:vector ETV
attr source signal_minion_waiting_time
vector 5 Network.player minion_defeated_stat:vector ETV
attr source signal_minion_defeated
vector 6 Network.player minion_jobs_queue_number_stat:vector ETV
attr source signal_minion_jobs_queue_number
vector 7 Network.player minion_response_time_stat:vector ETV
attr source signal_minion_response_time
vector 8 Network.player minion_jobs_number_stat:vector ETV
attr source signal_minion_jobs_number
vector 9 Network.player boss_jobs_number_stat:vector ETV
attr source signal_boss_jobs_number
vector 10 Network.player minion_recovered_stat:vector ETV
attr source signal_minion_recovered
vector 11 Network.player minion_throughput:vector ETV
attr source signal_minion_throughput
vector 12 Network.player boss_throughput:vector ETV
attr source signal_boss_throughput
0	171	350.339574637241	20
0	172	354.107906231878	21
0	173	355.303608237819	22
0	202	431.972235419015	23
0	210	445.512010539533	24
0	219	483.357431394352	25
0	240	541.681946590173	26
0	245	542.159990930503	27
0	256	565.375231896442	28
0	259	580.485990711724	29
0	292	648.937944787318	30
0	293	650.811305667692	31
0	304	673.991702786367	32
0	305	677.885523837591	33
0	312	698.818137099651	34
0	319	710.024296545488	35
0	320	711.411671259677	36
0	325	719.225532745605	37
0	328	723.257754795724	38
0	339	739.875500506847	39
0	349	748.796113280387	40
0	369	773.960723463372	41
0	374	781.228894331829	42
0	377	807.903596758447	43
0	378	811.782063123068	44
0	379	815.432658610389	45
0	413	869.195975986532	46
0	424	892.369341229275	47
0	425	898.443040985839	48
0	426	902.869199837656	49
0	429	907.070779605892	50
0	435	921.244472706343	51
0	447	933.331160962918	52
0	451	937.30315995264	53
0	459	948.260249344931	54
0	469	977.793144474388	55
0	480	1044.149481010377	56
0	483	1063.106391990656	57
0	500	1085.042925639535	58
0	501	1087.324609974072	59
0	515	1116.323197180358	60
0	519	1132.03872578022	61
0	538	1158.907710122538	62
0	539	1164.784073581496	63
0	550	1174.935689619984	64
0	551	1179.776891612773	65
0	558	1192.839211647599	66
0	591	1239.19551973331	67
0	603	1289.955630043847	68
0	649	1384.732113700258	69
0	650	1388.522097263209	70
0	665	1423.602093656803	71
0	674	1439.156190090307	72
0	681	1457.228549236898	73
0	688	1482.041363090958	74
0	691	1487.628704672554	75
0	702	1499.518551222614	76
0	703	1500.342321338241	77
0	704	1501.287891894887	78
0	705	1502.784643780968	79
0	714	1523.585668445738	80
0	717	1546.52414735366	81
0	718	1547.773616703221	82
0	719	1551.755729523067	83
0	729	1569.17719967997	84
0	738	1584.196754684643	85
0	741	1591.239572524412	86
0	753	1625.254691767184	87
0	759	1629.114977256289	88
0	770	1640.232280770182	89
0	781	1659.36276854361	90
0	782	1661.780428343927	91
0	802	1706.901178926561	92
0	807	1723.930496088814	93
0	810	1725.016643872779	94
0	813	1726.75510694211	95
0	820	1738.996982716281	96
0	824	1744.307792413566	97
0	836	1775.849083482228	98
0	845	1813.702847824821	99
0	846	1819.404456378277	100
0	857	1841.755049328555	101
0	877	1871.474336208068	102
0	902	1902.975178493318	103
0	911	1917.469654796987	104
0	924	1972.776800213541	105
0	942	1987.88502995906	106
0	956	2025.679898990701	107
0	972	2077.457268790868	108
0	982	2101.917233162379	109
0	998	2124.413004121452	110
0	1013	2172.975910836518	111
0	1017	2177.451694481158	112
0	1022	2187.232686092375	113
0	1026	2200.116913858813	114
0	1029	2209.325794926415	115
0	1036	2226.107653559201	116
0	1037	2233.161258486974	117
0	1052	2280.791986884517	118
0	1064	2294.484443600071	119
0	1090	2338.922785368081	120
0	1093	2340.653597136966	121
0	1106	2375.761333346074	122
0	1107	2377.427052906972	123
0	1123	2402.168753840978	124
0	1138	2432.293934629709	125
0	1143	2443.511992479009	126
0	1147	2449.452105280742	127
1	171	350.339574637241	2
1	172	354.107906231878	1
1	173	355.303608237819	0
1	199	419.824288542282	0
1	202	431.972235419015	0
1	209	445.426883461239	0
1	210	445.512010539533	0
1	218	481.155473799364	0
1	219	483.357431394352	0
1	239	536.946986058516	0
1	240	541.681946590173	0
1	242	541.720738592907	0
1	244	541.736319955185	1
1	245	542.159990930503	1
1	247	545.749899725905	1
1	256	565.375231896442	1
1	259	580.485990711724	0
1	287	642.852204457678	0
1	289	646.904432915695	1
1	292	648.937944787318	1
1	293	650.811305667692	0
1	301	666.123998518003	0
1	303	673.379073049835	1
1	304	673.991702786367	1
1	305	677.885523837591	0
1	311	692.296201596188	0
1	312	698.818137099651	0
1	316	707.174758416955	0
1	318	707.316586279335	1
1	319	710.024296545488	1
1	320	711.411671259677	0
1	322	718.627327699064	0
1	324	719.093978241006	1
1	325	719.225532745605	1
1	328	723.257754795724	0
1	330	725.978438086876	0
1	339	739.875500506847	0
1	342	740.857761909457	0
1	349	748.796113280387	0
1	354	759.785179545867	0
1	362	769.99705848	1
1	366	773.001749095169	2
1	368	773.957541426202	3
1	369	773.960723463372	3
1	373	780.867851638882	3
1	374	781.228894331829	3
1	377	807.903596758447	2
1	378	811.782063123068	1
1	379	815.432658610389	0
1	400	853.673845421965	0
1	404	862.799389841877	1
1	412	868.098797839271	2
1	413	869.195975986532	2
1	419	880.277491819915	2
1	421	882.177038103687	3
1	424	892.369341229275	3
1	425	898.443040985839	2
1	426	902.869199837656	1
1	429	907.070779605892	0
1	434	912.935758198835	0
1	435	921.244472706343	0
1	444	932.202672012874	0
1	447	933.331160962918	0
1	450	936.657389288969	0
1	451	937.30315995264	0
1	458	946.297682443241	0
1	459	948.260249344931	0
1	464	960.738265453186	0
1	469	977.793144474388	0
1	479	1042.502595974247	0
1	480	1044.149481010377	0
1	482	1060.452690583967	0
1	483	1063.106391990656	0
1	491	1073.028472791389	0
1	493	1073.979749661901	1
1	500	1085.042925639535	1
1	501	1087.324609974072	0
1	514	1113.293494763991	0
1	515	1116.323197180358	0
1	518	1132.000155132253	0
1	519	1132.03872578022	0
1	533	1154.808071207918	0
1	537	1158.547296278815	1
1	538	1158.907710122538	1
1	539	1164.784073581496	0
1	541	1170.522199205898	0
1	545	1171.867477851254	1
1	547	1172.13455232041	2
1	550	1174.935689619984	2
1	551	1179.776891612773	1
1	558	1192.839211647599	0
1	590	1231.608305717097	0
1	591	1239.19551973331	0
1	602	1288.624242739881	0
1	603	1289.955630043847	0
1	644	1356.036850805122	0
1	646	1372.606487445524	1
1	649	1384.732113700258	1
1	650	1388.522097263209	0
1	656	1405.653119015198	0
1	658	1415.389328740932	1
1	662	1422.655085990457	2
1	664	1422.976987813847	3
1	665	1423.602093656803	3
1	669	1425.03253417898	3
1	673	1430.283059070374	4
1	674	1439.156190090307	4
1	680	1453.338074498799	4
1	681	1457.228549236898	4
1	683	1458.853815662555	4
1	687	1470.455632448849	5
1	688	1482.041363090958	5
1	691	1487.628704672554	4
1	699	1493.449335598144	4
1	701	1496.052380205525	5
1	702	1499.518551222614	5
1	703	1500.342321338241	4
1	704	1501.287891894887	3
1	705	1502.784643780968	2
1	713	1514.884379549808	2
1	714	1523.585668445738	2
1	716	1528.555324124831	2
1	717	1546.52414735366	2
1	718	1547.773616703221	1
1	719	1551.755729523067	0
1	724	1564.373909976404	0
1	726	1565.073784446035	1
1	728	1568.88161662372	2
1	729	1569.17719967997	2
1	738	1584.196754684643	1
1	741	1591.239572524412	0
1	752	1616.890074396541	0
1	753	1625.254691767184	0
1	756	1626.810805176556	0
1	759	1629.114977256289	0
1	765	1632.799960695581	0
1	769	1636.823592669957	1
1	770	1640.232280770182	1
1	780	1658.548708404319	1
1	781	1659.36276854361	1
1	782	1661.780428343927	0
1	791	1686.708174305305	0
1	793	1694.179105853179	1
1	801	1705.252233173425	2
1	802	1706.901178926561	2
1	806	1719.93445107556	2
1	807	1723.930496088814	2
1	809	1724.59685573388	2
1	810	1725.016643872779	2
1	813	1726.75510694211	1
1	820	1738.996982716281	0
1	823	1740.42133159935	0
1	824	1744.307792413566	0
1	829	1757.194056480443	0
1	831	1761.281828584842	1
1	833	1761.918109262225	2
1	836	1775.849083482228	2
1	845	1813.702847824821	1
1	846	1819.404456378277	0
1	856	1831.77425238343	0
1	857	1841.755049328555	0
1	876	1868.713537013691	0
1	877	1871.474336208068	0
1	899	1898.558444776125	0
1	902	1902.975178493318	0
1	910	1910.506246022932	0
1	911	1917.469654796987	0
1	923	1966.608133512492	0
1	924	1972.776800213541	0
1	935	1976.663636876505	0
1	942	1987.88502995906	0
1	955	2021.706676798273	0
1	956	2025.679898990701	0
1	971	2073.959348802285	0
1	972	2077.457268790868	0
1	977	2092.180436930985	0
1	982	2101.917233162379	0
1	993	2118.166042985004	0
1	998	2124.413004121452	0
1	1012	2169.154750841632	0
1	1013	2172.975910836518	0
1	1016	2177.061307273094	0
1	1017	2177.451694481158	0
1	1019	2178.914416394662	0
1	1022	2187.232686092375	0
1	1025	2195.814478513715	0
1	1026	2200.116913858813	0
1	1028	2200.177172437229	0
1	1029	2209.325794926415	0
1	1031	2214.891347264506	0
1	1033	2215.816986545285	1
1	1036	2226.107653559201	1
1	1037	2233.161258486974	0
1	1051	2280.78927417951	0
1	1052	2280.791986884517	0
1	1063	2288.659915777357	0
1	1064	2294.484443600071	0
1	1083	2325.886460952761	0
1	1087	2335.729066720743	1
1	1090	2338.922785368081	1
1	1093	2340.653597136966	0
1	1099	2363.241703758442	0
1	1101	2369.572912620892	1
1	1106	2375.761333346074	1
1	1107	2377.427052906972	0
1	1116	2385.090107213244	0
1	1123	2402.168753840978	0
1	1133	2420.381264551342	0
1	1138	2432.293934629709	0
1	1142	2438.055371942036	0
1	1143	2443.511992479009	0
1	1146	2446.879911890008	0
1	1147	2449.452105280742	0
2	171	350.339574637241	2.163722427035
2	172	354.107906231878	5.516067770428
2	173	355.303608237819	5.550465777996
2	202	431.972235419015	12.147946876733
2	210	445.512010539533	0.085127078294
2	219	483.357431394352	2.201957594988
2	240	541.681946590173	4.734960531657
2	245	542.159990930503	0.439252337596
2	256	565.375231896442	23.638911941257
2	259	580.485990711724	34.736090985819
2	292	648.937944787318	6.08574032964
2	293	650.811305667692	3.906872751997
2	304	673.991702786367	7.867704268364
2	305	677.885523837591	4.506450787756
2	312	698.818137099651	6.521935503463
2	319	710.024296545488	2.849538128533
2	320	711.411671259677	4.095084980342
2	325	719.225532745605	0.598205046541
2	328	723.257754795724	4.163776554718
2	339	739.875500506847	13.897062419971
2	349	748.796113280387	7.93835137093
2	369	773.960723463372	14.175543917505
2	374	781.228894331829	11.231835851829
2	377	807.903596758447	34.901847663278
2	378	811.782063123068	37.824521696866
2	379	815.432658610389	34.564806971507
2	413	869.195975986532	15.522130564567
2	424	892.369341229275	29.569951387398
2	425	898.443040985839	30.344243146568
2	426	902.869199837656	22.591708017741
2	429	907.070779605892	24.893741502205
2	435	921.244472706343	8.308714507508
2	447	933.331160962918	1.128488950044
2	451	937.30315995264	0.645770663671
2	459	948.260249344931	1.96256690169
2	469	977.793144474388	17.054879021202
2	480	1044.149481010377	1.64688503613
2	483	1063.106391990656	2.653701406689
2	500	1085.042925639535	12.014452848146
2	501	1087.324609974072	13.344860312171
2	515	1116.323197180358	3.029702416367
2	519	1132.03872578022	0.038570647967
2	538	1158.907710122538	4.09963891462
2	539	1164.784073581496	6.236777302681
2	550	1174.935689619984	4.413490414086
2	551	1179.776891612773	7.909413761519
2	558	1192.839211647599	20.704659327189
2	591	1239.19551973331	7.587214016213
2	603	1289.955630043847	1.331387303966
2	649	1384.732113700258	28.695262895136
2	650	1388.522097263209	15.915609817685
2	665	1423.602093656803	17.948974641605
2	674	1439.156190090307	23.766861349375
2	681	1457.228549236898	34.573463246441
2	688	1482.041363090958	59.064375277111
2	691	1487.628704672554	62.596170493574
2	702	1499.518551222614	69.23549215224
2	703	1500.342321338241	47.004246839442
2	704	1501.287891894887	42.434076232332
2	705	1502.784643780968	32.329011332119
2	714	1523.585668445738	30.136332847594
2	717	1546.52414735366	50.471767148135
2	718	1547.773616703221	32.889237153413
2	719	1551.755729523067	23.200405398236
2	729	1569.17719967997	4.803289703566
2	738	1584.196754684643	19.122970238608
2	741	1591.239572524412	22.357955900692
2	753	1625.254691767184	8.364617370643
2	759	1629.114977256289	2.304172079733
2	770	1640.232280770182	7.432320074601
2	781	1659.36276854361	22.539175873653
2	782	1661.780428343927	3.231719939608
2	802	1706.901178926561	20.193004621256
2	807	1723.930496088814	29.751390235635
2	810	1725.016643872779	19.764410699354
2	813	1726.75510694211	6.82065586655
2	820	1738.996982716281	14.400126982401
2	824	1744.307792413566	3.886460814216
2	836	1775.849083482228	18.655027001785
2	845	1813.702847824821	52.421019239979
2	846	1819.404456378277	57.486347116052
2	857	1841.755049328555	9.980796945125
2	877	1871.474336208068	2.760799194377
2	902	1902.975178493318	4.416733717193
2	911	1917.469654796987	6.963408774055
2	924	1972.776800213541	6.168666701049
2	942	1987.88502995906	11.221393082555
2	956	2025.679898990701	3.973222192428
2	972	2077.457268790868	3.497919988583
2	982	2101.917233162379	9.736796231394
2	998	2124.413004121452	6.246961136448
2	1013	2172.975910836518	3.821159994886
2	1017	2177.451694481158	0.390387208064
2	1022	2187.232686092375	8.318269697713
2	1026	2200.116913858813	4.302435345098
2	1029	2209.325794926415	9.148622489186
2	1036	2226.107653559201	11.216306294695
2	1037	2233.161258486974	17.344271941689
2	1052	2280.791986884517	0.002712705007
2	1064	2294.484443600071	5.824527822714
2	1090	2338.922785368081	13.03632441532
2	1093	2340.653597136966	4.924530416223
2	1106	2375.761333346074	12.519629587632
2	1107	2377.427052906972	7.85414028608
2	1123	2402.168753840978	17.078646627734
2	1138	2432.293934629709	11.912670078367
2	1143	2443.511992479009	5.456620536973
2	1147	2449.452105280742	2.572193390734
3	171	350.339574637241	1.747736175791
3	172	354.107906231878	4.354763772055
3	199	419.824288542282	0
3	209	445.426883461239	0
3	218	481.155473799364	0
3	239	536.946986058516	0
3	242	541.720738592907	0
3	245	542.159990930503	0.423670975318
3	256	565.375231896442	19.625332170537
3	287	642.852204457678	0
3	292	648.937944787318	2.033511871623
3	301	666.123998518003	0
3	304	673.991702786367	0.612629736532
3	311	692.296201596188	0
3	316	707.174758416955	0
3	319	710.024296545488	2.707710266153
3	322	718.627327699064	0
3	325	719.225532745605	0.131554504599
3	330	725.978438086876	0
3	342	740.857761909457	0
3	354	759.785179545867	0
3	369	773.960723463372	3.963664983372
3	374	781.228894331829	8.22714523666
3	377	807.903596758447	33.946055332245
3	378	811.782063123068	30.914211484186
3	400	853.673845421965	0
3	413	869.195975986532	6.396586144655
3	424	892.369341229275	24.270543390004
3	425	898.443040985839	18.165549165924
3	426	902.869199837656	20.692161733969
3	434	912.935758198835	0
3	444	932.202672012874	0
3	450	936.657389288969	0
3	458	946.297682443241	0
3	464	960.738265453186	0
3	479	1042.502595974247	0
3	482	1060.452690583967	0
3	491	1073.028472791389	0
3	500	1085.042925639535	11.063175977634
3	514	1113.293494763991	0
3	518	1132.000155132253	0
3	533	1154.808071207918	0
3	538	1158.907710122538	0.360413843723
3	541	1170.522199205898	0
3	550	1174.935689619984	3.06821176873
3	551	1179.776891612773	7.642339292363
3	590	1231.608305717097	0
3	602	1288.624242739881	0
3	644	1356.036850805122	0
3	649	1384.732113700258	12.125626254734
3	656	1405.653119015198	0
3	665	1423.602093656803	8.212764915871
3	674	1439.156190090307	16.50110409985
3	681	1457.228549236898	34.251561423051
3	688	1482.041363090958	57.008828911978
3	691	1487.628704672554	57.34564560218
3	702	1499.518551222614	46.180476723815
3	703	1500.342321338241	41.488505675686
3	704	1501.287891894887	30.832259446038
3	705	1502.784643780968	9.335308182824
3	714	1523.585668445738	27.533288240213
3	717	1546.52414735366	31.639767803852
3	718	1547.773616703221	19.21829257839
3	724	1564.373909976404	0
3	729	1569.17719967997	4.103415233935
3	738	1584.196754684643	15.315138060923
3	752	1616.890074396541	0
3	756	1626.810805176556	0
3	765	1632.799960695581	0
3	770	1640.232280770182	3.408688100225
3	781	1659.36276854361	0.814060139291
3	791	1686.708174305305	0
3	802	1706.901178926561	12.722073073382
3	807	1723.930496088814	18.678262915389
3	810	1725.016643872779	5.082192797219
3	813	1726.75510694211	2.15825120823
3	823	1740.42133159935	0
3	829	1757.194056480443	0
3	836	1775.849083482228	14.567254897386
3	845	1813.702847824821	51.784738562596
3	856	1831.77425238343	0
3	876	1868.713537013691	0
3	899	1898.558444776125	0
3	910	1910.506246022932	0
3	923	1966.608133512492	0
3	935	1976.663636876505	0
3	955	2021.706676798273	0
3	971	2073.959348802285	0
3	977	2092.180436930985	0
3	993	2118.166042985004	0
3	1012	2169.154750841632	0
3	1016	2177.061307273094	0
3	1019	2178.914416394662	0
3	1025	2195.814478513715	0
3	1028	2200.177172437229	0
3	1031	2214.891347264506	0
3	1036	2226.107653559201	10.290667013916
3	1051	2280.78927417951	0
3	1063	2288.659915777357	0
3	1083	2325.886460952761	0
3	1090	2338.922785368081	3.193718647338
3	1099	2363.241703758442	0
3	1106	2375.761333346074	6.188420725182
3	1116	2385.090107213244	0
3	1133	2420.381264551342	0
3	1142	2438.055371942036	0
3	1146	2446.879911890008	0
4	173	355.303608237819	5.963464587778
4	176	367.376450425266	0
4	179	384.176460755635	0
4	182	386.436038687455	0
4	185	391.952056832985	0
4	188	395.813839015567	1.947723193608
4	191	404.473974224828	0
4	194	410.436848643051	0
4	197	418.962261761174	0
4	202	431.972235419015	12.147946876733
4	203	435.210534053969	5.167863002235
4	206	441.443807283647	0
4	212	473.00260902335	0
4	215	475.369278079737	0
4	221	493.286867919828	0
4	224	501.939221806893	0
4	227	509.038289566614	0
4	230	518.619025209951	0
4	233	528.562184431506	0
4	236	530.409486620472	0
4	259	580.485990711724	32.056303473846
4	262	583.114361048662	30.262170202344
4	263	586.720101737258	27.93793908119
4	264	587.036287852935	27.251162801183
4	269	595.882522054269	21.7303387632
4	272	599.939382341426	18.162241608201
4	273	602.866674459136	10.958150992212
4	274	603.127265482786	7.881380563097
4	275	604.308472574813	4.563778830512
4	278	614.054973155262	0
4	281	614.297599075603	0.095807935904
4	284	639.373022439287	0
4	293	650.811305667692	3.629752240202
4	296	658.412344747376	0
4	299	662.241880940892	0
4	305	677.885523837591	11.761525319588
4	312	698.818137099651	19.083047429858
4	313	703.138496031547	21.83698116016
4	314	704.128184693625	11.831983097437
4	320	711.411671259677	4.236912842722
4	328	723.257754795724	4.63042709666
4	339	739.875500506847	20.12144363638
4	340	740.522377043868	14.543938956992
4	349	748.796113280387	21.081572465193
4	350	751.414547569279	22.851388917764
4	351	753.325494328305	22.686172475676
4	352	759.506789802639	21.454872734138
4	379	815.432658610389	74.574896700932
4	382	821.76810917593	78.624896851229
4	385	826.440627452619	80.396760247233
4	386	829.127548671178	80.338810290393
4	389	829.865586717173	70.080407171306
4	390	834.289451905335	73.11597612071
4	391	838.676002935718	77.129091920235
4	392	839.952801867379	77.793040805337
4	397	847.171868641681	76.60619255929
4	398	851.006887195002	71.950498804811
4	429	907.070779605892	102.40539187109
4	430	908.381267901615	87.239790781979
4	431	908.696475989283	85.582005981291
4	432	910.548838487263	80.714935929352
4	435	921.244472706343	79.267723333078
4	436	922.085192853262	77.331233043448
4	437	924.473094080464	70.799248658499
4	438	929.533997939085	72.049924265247
4	441	930.530627399771	66.440101342412
4	442	931.919442941003	67.513349466494
4	447	933.331160962918	68.921110447307
4	448	933.500806673044	60.348254077356
4	451	937.30315995264	57.122639291789
4	452	942.162958237173	50.01982494098
4	453	942.62510182113	36.723957684273
4	454	942.895268474893	29.959510276058
4	455	944.828503406083	14.864170868551
4	456	945.814314920018	13.611642907144
4	459	948.260249344931	15.243173456222
4	460	949.867019824898	13.209630535929
4	461	954.489217650214	8.191535206973
4	469	977.793144474388	10.754692103753
4	470	980.027534374216	9.260772789525
4	473	988.829171470794	0
4	476	1033.712953239657	0
4	485	1063.897103797653	0
4	488	1067.205057491134	0
4	501	1087.324609974072	13.060762952972
4	502	1090.855587052971	14.785164867828
4	503	1095.174709233796	16.941386406035
4	506	1100.820633055485	0
4	509	1101.542520841805	0
4	512	1111.342333799117	0
4	515	1116.323197180358	3.029702416367
4	521	1137.351662066246	0
4	524	1143.757808395093	0
4	527	1148.722540957953	0
4	530	1151.992584731014	1.386984439227
4	539	1164.784073581496	8.933102533332
4	558	1192.839211647599	22.317012441701
4	563	1197.587530946256	25.823318925447
4	566	1199.860797655424	26.222379662459
4	567	1203.291515113176	20.247527571862
4	570	1207.908085187853	23.44448488917
4	573	1213.871030313324	27.576339456301
4	576	1214.738307421011	21.310513869401
4	581	1222.01278904633	28.060560024939
4	586	1225.102361827328	26.983697077846
4	587	1230.170086669047	25.928743430125
4	588	1230.413319469666	20.066998980987
4	591	1239.19551973331	24.86289578194
4	592	1239.651898722694	24.821057559178
4	593	1239.734311546017	19.785224623828
4	594	1241.685158439429	18.770862637618
4	595	1242.512212413643	19.218941613292
4	596	1244.434626619254	12.826320902157
4	599	1249.477198132567	0.788993295611
4	605	1290.898130123353	0
4	608	1292.134440060981	0.311277937819
4	611	1294.576402543527	0
4	614	1304.070144681555	0
4	617	1306.027610017938	0.186694874424
4	620	1319.757161600396	0
4	623	1323.432945874271	0
4	626	1329.748623566149	0
4	629	1331.472350562202	0.789844726939
4	632	1340.718512005517	0
4	635	1345.187440574485	0
4	638	1350.785968730655	0
4	641	1352.286864856484	1.414684005666
4	650	1388.522097263209	5.915075070596
4	653	1400.916642425074	0
4	719	1551.755729523067	129.64837291927
4	720	1553.180751212283	128.20913664635
4	721	1563.570708625452	137.34117993453
4	722	1564.254034019149	112.78233031601
4	741	1591.239572524412	138.96173823985
4	742	1592.598286076006	129.63311240171
4	743	1597.12628703239	111.60976378379
4	744	1600.7685861266	113.04604767278
4	745	1604.844494132089	117.00039843874
4	748	1608.854346651555	118.93493973236
4	749	1613.250499585873	109.63700385877
4	750	1616.693149416996	112.38992140665
4	753	1625.254691767184	119.51596778485
4	754	1625.571470002912	61.197560026508
4	759	1629.114977256289	57.335165533606
4	760	1630.739646276121	57.361046210681
4	761	1631.366059817346	56.498685073806
4	782	1661.780428343927	80.830326802567
4	783	1663.951252111717	74.53923981658
4	784	1669.804499863785	63.0296083222
4	785	1675.605768871476	58.715694474935
4	786	1676.296537085205	49.485731908649
4	789	1679.245978421267	52.334925209402
4	820	1738.996982716281	106.94935970176
4	821	1739.096444697632	106.29648400205
4	824	1744.307792413566	110.50508748154
4	825	1745.871336169041	101.32379155374
4	826	1746.511131409523	101.31131014369
4	827	1754.70875472347	104.67088952578
4	846	1819.404456378277	169.12145211937
4	851	1822.306576106323	145.10275743494
4	854	1826.673377708595	139.96520340329
4	857	1841.755049328555	147.52679588213
4	858	1842.025936469511	146.27308634913
4	859	1844.269302725409	147.34073473495
4	860	1845.603644770762	128.53634695548
4	863	1852.807226540856	127.06920360882
4	866	1854.508039862228	121.97423744093
4	867	1856.220421420412	120.50137399539
4	868	1856.665922485936	119.51883891908
4	869	1858.700270199564	118.27893860021
4	872	1861.957934041146	104.7638775607
4	873	1866.102623553412	97.169871723072
4	874	1868.241508749173	78.408970113879
4	877	1871.474336208068	71.272411162233
4	878	1871.740814464725	70.342990545356
4	879	1872.221887997149	58.8046200982
4	882	1873.04015093916	52.194198889055
4	883	1875.521863402466	54.412863360393
4	884	1876.983570669234	52.535331871703
4	885	1879.256319157351	47.482066773921
4	888	1882.455179937364	30.691803950449
4	889	1884.338036318832	30.574935267567
4	892	1890.829609949973	29.213875585331
4	893	1892.569141618171	23.85560460448
4	894	1894.439883743631	21.837062545611
4	895	1894.837281032935	15.481207446051
4	896	1895.631961495507	8.943599812183
4	902	1902.975178493318	0.533159441194
4	905	1905.861314486726	0
4	908	1909.777407995839	0
4	911	1917.469654796987	6.963408774055
4	914	1922.182695436346	0
4	917	1930.15861388626	0
4	920	1963.91214132306	0
4	926	1973.318976600654	0
4	929	1973.486125512329	0.124815744765
4	932	1975.116582120982	0
4	942	1987.88502995906	10.312062885799
4	943	1989.052879945727	9.976244754431
4	946	1989.437536622653	4.175593331769
4	947	1989.996920045168	0.693465184928
4	950	2015.354681933544	0
4	953	2020.548439221487	0
4	956	2025.679898990701	3.973222192428
4	959	2026.327218669903	0.601403932765
4	962	2032.01908448859	0
4	965	2055.502620266609	0
4	968	2060.575503583687	0
4	974	2084.709706378142	0
4	982	2101.917233162379	8.977388613543
4	985	2102.695632544295	3.658543129352
4	986	2103.956194357057	1.365056746038
4	989	2116.368780264422	0
4	998	2124.413004121452	7.930403072683
4	999	2124.697710970439	6.531667985435
4	1000	2128.227598941831	8.903535300119
4	1001	2129.433704699246	5.75943005399
4	1004	2138.040682945383	0
4	1007	2150.885637978048	0
4	1010	2167.367114672204	0
4	1013	2172.975910836518	3.821159994886
4	1022	2187.232686092375	1.197792094498
4	1037	2233.161258486974	11.934178556653
4	1040	2238.889269602652	0
4	1043	2254.483068097837	0
4	1046	2271.075409916749	0
4	1049	2280.771826103366	0
4	1052	2280.791986884517	0.002712705007
4	1055	2283.864084695993	0
4	1058	2285.228315646586	0.858565805296
4	1061	2288.442495856882	0
4	1064	2294.484443600071	5.824527822714
4	1067	2297.580246024688	0
4	1070	2309.781809862415	0
4	1079	2320.875769193888	8.102956439016
4	1080	2321.497270806804	7.975947578549
4	1081	2321.894063463113	3.561496009417
4	1093	2340.653597136966	21.785044684791
4	1094	2349.412632111859	23.526171159098
4	1095	2360.355720750878	32.448989317875
4	1096	2360.653722579092	23.787822145358
4	1097	2362.940560297522	23.136735798291
4	1107	2377.427052906972	14.18534914853
4	1108	2378.946809887661	7.799043067653
4	1109	2379.60149021312	8.449455833153
4	1112	2380.887203781705	0
4	1123	2402.168753840978	18.979769581171
4	1124	2402.30511779973	17.215010586486
4	1127	2410.389808372167	23.992134612498
4	1128	2411.095828853625	19.977196643185
4	1129	2414.799940824505	14.208634926122
4	1138	2432.293934629709	24.778006277782
4	1143	2443.511992479009	25.381983763009
4	1144	2445.204655047099	24.823390495757
4	1147	2449.452105280742	25.573278141289
4	1148	2453.909038768679	23.875469395332
4	1149	2454.616513073544	19.07145533471
4	1152	2458.913128291729	20.857756349693
4	1153	2459.054079951711	12.174168061703
4	1154	2460.504974429879	2.813516260284
4	1157	2461.752620942596	0.613666952452
4	1160	2465.086479799181	2.792825218288
4	1163	2473.557527797445	0
4	1166	2474.41331895417	0
4	1169	2483.314383275376	0
4	1172	2487.898238471302	0
5	174	355.730857246879	36
5	177	371.479249331814	37
5	180	385.687767853134	38
5	183	387.959592815707	39
5	188	395.813839015567	40
5	189	398.625052965338	41
5	192	406.593690398492	42
5	195	414.34774732149	43
5	203	435.210534053969	44
5	204	436.853822696762	45
5	207	443.961159120593	46
5	213	474.504780562163	47
5	216	477.017232649788	48
5	222	494.079634116009	49
5	225	502.785574720811	50
5	228	510.786675848843	51
5	231	522.204470801191	52
5	234	529.962713016461	53
5	237	530.757938256741	54
5	262	583.114361048662	55
5	263	586.720101737258	56
5	264	587.036287852935	57
5	269	595.882522054269	58
5	272	599.939382341426	59
5	273	602.866674459136	60
5	274	603.127265482786	61
5	275	604.308472574813	62
5	276	604.713266080618	63
5	281	614.297599075603	64
5	282	615.467370460907	65
5	285	641.747840381421	66
5	294	653.900753265425	67
5	297	660.297436316615	68
5	313	703.138496031547	69
5	314	704.128184693625	70
5	340	740.522377043868	71
5	350	751.414547569279	72
5	351	753.325494328305	73
5	352	759.506789802639	74
5	382	821.76810917593	75
5	385	826.440627452619	76
5	386	829.127548671178	77
5	389	829.865586717173	78
5	390	834.289451905335	79
5	391	838.676002935718	80
5	392	839.952801867379	81
5	397	847.171868641681	82
5	398	851.006887195002	83
5	430	908.381267901615	84
5	431	908.696475989283	85
5	432	910.548838487263	86
5	436	922.085192853262	87
5	437	924.473094080464	88
5	438	929.533997939085	89
5	441	930.530627399771	90
5	442	931.919442941003	91
5	448	933.500806673044	92
5	452	942.162958237173	93
5	453	942.62510182113	94
5	454	942.895268474893	95
5	455	944.828503406083	96
5	456	945.814314920018	97
5	460	949.867019824898	98
5	461	954.489217650214	99
5	462	959.680272095962	100
5	470	980.027534374216	101
5	471	983.095393986177	102
5	474	995.762776779079	103
5	477	1034.559123552918	104
5	486	1066.664459894177	105
5	489	1068.597026339897	106
5	502	1090.855587052971	107
5	503	1095.174709233796	108
5	504	1096.171053118109	109
5	507	1101.364778147199	110
5	510	1102.513516043366	111
5	516	1117.924102397743	112
5	522	1137.86149103825	113
5	525	1145.637998512846	114
5	530	1151.992584731014	115
5	531	1152.550114371806	116
5	563	1197.587530946256	117
5	566	1199.860797655424	118
5	567	1203.291515113176	119
5	570	1207.908085187853	120
5	573	1213.871030313324	121
5	576	1214.738307421011	122
5	581	1222.01278904633	123
5	586	1225.102361827328	124
5	587	1230.170086669047	125
5	588	1230.413319469666	126
5	592	1239.651898722694	127
5	593	1239.734311546017	128
5	594	1241.685158439429	129
5	595	1242.512212413643	130
5	596	1244.434626619254	131
5	599	1249.477198132567	132
5	600	1250.406272922532	133
5	608	1292.134440060981	134
5	609	1293.569570597175	135
5	612	1297.152172299351	136
5	617	1306.027610017938	137
5	618	1311.213240666759	138
5	621	1320.920416301698	139
5	624	1327.860796631077	140
5	629	1331.472350562202	141
5	630	1331.885533812383	142
5	633	1343.169675743488	143
5	636	1345.612655199793	144
5	641	1352.286864856484	145
5	642	1354.413447301826	146
5	651	1391.112216464291	147
5	654	1404.986024668252	148
5	720	1553.180751212283	149
5	721	1563.570708625452	150
5	722	1564.254034019149	151
5	742	1592.598286076006	152
5	743	1597.12628703239	153
5	744	1600.7685861266	154
5	745	1604.844494132089	155
5	748	1608.854346651555	156
5	749	1613.250499585873	157
5	750	1616.693149416996	158
5	754	1625.571470002912	159
5	760	1630.739646276121	160
5	761	1631.366059817346	161
5	783	1663.951252111717	162
5	784	1669.804499863785	163
5	785	1675.605768871476	164
5	786	1676.296537085205	165
5	789	1679.245978421267	166
5	821	1739.096444697632	167
5	825	1745.871336169041	168
5	826	1746.511131409523	169
5	827	1754.70875472347	170
5	851	1822.306576106323	171
5	854	1826.673377708595	172
5	858	1842.025936469511	173
5	859	1844.269302725409	174
5	860	1845.603644770762	175
5	863	1852.807226540856	176
5	866	1854.508039862228	177
5	867	1856.220421420412	178
5	868	1856.665922485936	179
5	869	1858.700270199564	180
5	872	1861.957934041146	181
5	873	1866.102623553412	182
5	874	1868.241508749173	183
5	878	1871.740814464725	184
5	879	1872.221887997149	185
5	882	1873.04015093916	186
5	883	1875.521863402466	187
5	884	1876.983570669234	188
5	885	1879.256319157351	189
5	888	1882.455179937364	190
5	889	1884.338036318832	191
5	892	1890.829609949973	192
5	893	1892.569141618171	193
5	894	1894.439883743631	194
5	895	1894.837281032935	195
5	896	1895.631961495507	196
5	897	1895.813984899975	197
5	903	1904.507889297054	198
5	906	1907.085194791181	199
5	912	1920.945764400894	200
5	915	1925.290202980785	201
5	918	1931.372427259008	202
5	921	1965.217777093738	203
5	929	1973.486125512329	204
5	930	1974.832686220878	205
5	933	1976.342487130503	206
5	943	1989.052879945727	207
5	946	1989.437536622653	208
5	947	1989.996920045168	209
5	948	1993.229294642759	210
5	951	2016.599324292175	211
5	959	2026.327218669903	212
5	960	2028.810781940547	213
5	963	2033.014932919381	214
5	966	2059.12576351891	215
5	969	2061.14608872246	216
5	975	2089.674096046875	217
5	985	2102.695632544295	218
5	986	2103.956194357057	219
5	987	2109.934214677232	220
5	999	2124.697710970439	221
5	1000	2128.227598941831	222
5	1001	2129.433704699246	223
5	1002	2134.420033775068	224
5	1005	2138.901529903878	225
5	1008	2153.127805678858	226
5	1014	2175.09927138484	227
5	1023	2188.477097902818	228
5	1038	2234.746023540831	229
5	1041	2240.307772748515	230
5	1044	2254.749648788223	231
5	1047	2272.836864619207	232
5	1053	2283.440245989398	233
5	1058	2285.228315646586	234
5	1059	2286.22398927637	235
5	1065	2296.320950808632	236
5	1068	2298.33703375823	237
5	1079	2320.875769193888	238
5	1080	2321.497270806804	239
5	1081	2321.894063463113	240
5	1094	2349.412632111859	241
5	1095	2360.355720750878	242
5	1096	2360.653722579092	243
5	1097	2362.940560297522	244
5	1108	2378.946809887661	245
5	1109	2379.60149021312	246
5	1110	2380.029373635762	247
5	1124	2402.30511779973	248
5	1127	2410.389808372167	249
5	1128	2411.095828853625	250
5	1129	2414.799940824505	251
5	1144	2445.204655047099	252
5	1148	2453.909038768679	253
5	1149	2454.616513073544	254
5	1152	2458.913128291729	255
5	1153	2459.054079951711	256
5	1154	2460.504974429879	257
5	1157	2461.752620942596	258
5	1160	2465.086479799181	259
5	1161	2467.681742604707	260
5	1164	2473.847099183419	261
5	1167	2481.409561259546	262
5	1170	2486.29391514126	263
5	1173	2493.549980572547	264
6	174	355.730857246879	0
6	176	367.376450425266	0
6	177	371.479249331814	0
6	179	384.176460755635	0
6	180	385.687767853134	0
6	182	386.436038687455	0
6	183	387.959592815707	0
6	185	391.952056832985	0
6	187	393.866115821959	1
6	188	395.813839015567	1
6	189	398.625052965338	0
6	191	404.473974224828	0
6	192	406.593690398492	0
6	194	410.436848643051	0
6	195	414.34774732149	0
6	197	418.962261761174	0
6	201	430.042671051734	1
6	203	435.210534053969	1
6	204	436.853822696762	0
6	206	441.443807283647	0
6	207	443.961159120593	0
6	212	473.00260902335	0
6	213	474.504780562163	0
6	215	475.369278079737	0
6	216	477.017232649788	0
6	221	493.286867919828	0
6	222	494.079634116009	0
6	224	501.939221806893	0
6	225	502.785574720811	0
6	227	509.038289566614	0
6	228	510.786675848843	0
6	230	518.619025209951	0
6	231	522.204470801191	0
6	233	528.562184431506	0
6	234	529.962713016461	0
6	236	530.409486620472	0
6	237	530.757938256741	0
6	249	548.429687237878	0
6	251	552.852190846318	1
6	253	558.782162656068	2
6	255	559.785125051752	3
6	258	574.152183291069	4
6	261	581.777140733225	5
6	262	583.114361048662	5
6	263	586.720101737258	4
6	264	587.036287852935	3
6	266	591.908523466924	3
6	268	595.245884919689	4
6	269	595.882522054269	4
6	271	599.744693744301	4
6	272	599.939382341426	4
6	273	602.866674459136	3
6	274	603.127265482786	2
6	275	604.308472574813	1
6	276	604.713266080618	0
6	278	614.054973155262	0
6	280	614.201791139699	1
6	281	614.297599075603	1
6	282	615.467370460907	0
6	284	639.373022439287	0
6	285	641.747840381421	0
6	291	647.18155342749	0
6	294	653.900753265425	0
6	296	658.412344747376	0
6	297	660.297436316615	0
6	299	662.241880940892	0
6	307	679.735089669793	1
6	309	681.301514871387	2
6	313	703.138496031547	2
6	314	704.128184693625	1
6	327	719.754056870467	1
6	332	727.714540815194	2
6	334	728.563158651515	3
6	336	730.639321852629	4
6	338	738.051917068501	5
6	340	740.522377043868	5
6	344	743.143212324701	5
6	346	746.043867205386	6
6	348	748.788738380785	7
6	350	751.414547569279	7
6	351	753.325494328305	6
6	352	759.506789802639	5
6	356	761.173475784625	5
6	358	761.546911015483	6
6	360	762.159761062042	7
6	364	770.565676082391	8
6	371	779.056388390191	9
6	376	804.665387734801	10
6	381	821.141477119636	11
6	382	821.76810917593	11
6	384	823.114470007992	11
6	385	826.440627452619	11
6	386	829.127548671178	10
6	388	829.833902557911	10
6	389	829.865586717173	10
6	390	834.289451905335	9
6	391	838.676002935718	8
6	392	839.952801867379	7
6	394	841.976749373265	7
6	396	844.753959809814	8
6	397	847.171868641681	8
6	398	851.006887195002	7
6	402	857.484073673838	7
6	406	864.090526057359	8
6	408	864.406093474509	9
6	410	864.410050515611	10
6	415	873.152552595688	11
6	417	880.180520660851	12
6	423	892.143133296193	13
6	428	905.901144136857	14
6	430	908.381267901615	14
6	431	908.696475989283	13
6	432	910.548838487263	12
6	436	922.085192853262	11
6	437	924.473094080464	10
6	438	929.533997939085	9
6	440	929.964332537532	9
6	441	930.530627399771	9
6	442	931.919442941003	8
6	446	933.017075888709	8
6	448	933.500806673044	8
6	452	942.162958237173	7
6	453	942.62510182113	6
6	454	942.895268474893	5
6	455	944.828503406083	4
6	456	945.814314920018	3
6	460	949.867019824898	2
6	461	954.489217650214	1
6	462	959.680272095962	0
6	466	967.038452370635	0
6	468	970.766761584691	1
6	470	980.027534374216	1
6	471	983.095393986177	0
6	473	988.829171470794	0
6	474	995.762776779079	0
6	476	1033.712953239657	0
6	477	1034.559123552918	0
6	485	1063.897103797653	0
6	486	1066.664459894177	0
6	488	1067.205057491134	0
6	489	1068.597026339897	0
6	495	1074.2638470211	0
6	497	1076.070422185143	1
6	499	1078.233322827761	2
6	502	1090.855587052971	2
6	503	1095.174709233796	1
6	504	1096.171053118109	0
6	506	1100.820633055485	0
6	507	1101.364778147199	0
6	509	1101.542520841805	0
6	510	1102.513516043366	0
6	512	1111.342333799117	0
6	516	1117.924102397743	0
6	521	1137.351662066246	0
6	522	1137.86149103825	0
6	524	1143.757808395093	0
6	525	1145.637998512846	0
6	527	1148.722540957953	0
6	529	1150.605600291787	1
6	530	1151.992584731014	1
6	531	1152.550114371806	0
6	535	1155.850971048164	0
6	543	1171.764212020809	1
6	549	1173.638417992965	2
6	553	1183.043987541314	3
6	555	1184.463600298683	4
6	557	1186.294690857023	5
6	560	1193.42779355161	6
6	562	1193.952229021391	7
6	563	1197.587530946256	7
6	565	1198.118664749482	7
6	566	1199.860797655424	7
6	567	1203.291515113176	6
6	569	1204.241343238922	6
6	570	1207.908085187853	6
6	572	1210.346320488679	6
6	573	1213.871030313324	6
6	575	1214.33262395137	6
6	576	1214.738307421011	6
6	578	1214.830841163516	6
6	580	1219.949086922189	7
6	581	1222.01278904633	7
6	583	1222.914295801811	7
6	585	1223.293270800351	8
6	586	1225.102361827328	8
6	587	1230.170086669047	7
6	588	1230.413319469666	6
6	592	1239.651898722694	5
6	593	1239.734311546017	4
6	594	1241.685158439429	3
6	595	1242.512212413643	2
6	596	1244.434626619254	1
6	598	1248.688204836956	1
6	599	1249.477198132567	1
6	600	1250.406272922532	0
6	605	1290.898130123353	0
6	607	1291.823162123162	1
6	608	1292.134440060981	1
6	609	1293.569570597175	0
6	611	1294.576402543527	0
6	612	1297.152172299351	0
6	614	1304.070144681555	0
6	616	1305.840915143514	1
6	617	1306.027610017938	1
6	618	1311.213240666759	0
6	620	1319.757161600396	0
6	621	1320.920416301698	0
6	623	1323.432945874271	0
6	624	1327.860796631077	0
6	626	1329.748623566149	0
6	628	1330.682505835263	1
6	629	1331.472350562202	1
6	630	1331.885533812383	0
6	632	1340.718512005517	0
6	633	1343.169675743488	0
6	635	1345.187440574485	0
6	636	1345.612655199793	0
6	638	1350.785968730655	0
6	640	1350.872180850818	1
6	641	1352.286864856484	1
6	642	1354.413447301826	0
6	648	1382.607022192613	0
6	651	1391.112216464291	0
6	653	1400.916642425074	0
6	654	1404.986024668252	0
6	660	1422.107356603794	0
6	667	1424.971614565931	1
6	671	1426.229528690923	2
6	676	1451.471703703142	3
6	678	1452.277834284563	4
6	685	1462.965173674297	5
6	690	1485.516523248597	6
6	693	1487.722538453823	7
6	695	1487.844095693352	8
6	697	1489.919406919192	9
6	707	1503.613495727106	10
6	709	1504.303228010345	11
6	711	1505.738723982334	12
6	720	1553.180751212283	12
6	721	1563.570708625452	11
6	722	1564.254034019149	10
6	731	1571.779811722683	10
6	733	1573.37860006544	11
6	735	1574.86737474354	12
6	737	1580.95010154136	13
6	740	1589.412012295137	14
6	742	1592.598286076006	14
6	743	1597.12628703239	13
6	744	1600.7685861266	12
6	745	1604.844494132089	11
6	747	1606.774891541585	11
6	748	1608.854346651555	11
6	749	1613.250499585873	10
6	750	1616.693149416996	9
6	754	1625.571470002912	8
6	758	1626.911053211865	8
6	760	1630.739646276121	8
6	761	1631.366059817346	7
6	763	1632.047623014525	7
6	767	1633.802704932022	8
6	772	1644.547544615298	9
6	774	1645.199821265832	10
6	776	1650.037865197686	11
6	778	1650.283004258902	12
6	783	1663.951252111717	12
6	784	1669.804499863785	11
6	785	1675.605768871476	10
6	786	1676.296537085205	9
6	788	1677.203818671379	9
6	789	1679.245978421267	9
6	795	1694.228253446423	9
6	797	1695.752850120378	10
6	799	1696.928567990461	11
6	804	1717.067297815278	12
6	812	1725.738022932032	13
6	815	1732.5338024213	14
6	817	1735.719047425022	15
6	819	1737.147083566854	16
6	821	1739.096444697632	16
6	825	1745.871336169041	15
6	826	1746.511131409523	14
6	827	1754.70875472347	13
6	835	1768.93275183034	13
6	838	1789.832538635294	14
6	840	1800.201925045835	15
6	842	1801.397823919369	16
6	844	1813.417267898949	17
6	848	1820.845952050105	18
6	850	1821.109000042073	19
6	851	1822.306576106323	19
6	853	1824.448238797531	19
6	854	1826.673377708595	19
6	858	1842.025936469511	18
6	859	1844.269302725409	17
6	860	1845.603644770762	16
6	862	1851.763375986915	16
6	863	1852.807226540856	16
6	865	1853.763101051265	16
6	866	1854.508039862228	16
6	867	1856.220421420412	15
6	868	1856.665922485936	14
6	869	1858.700270199564	13
6	871	1861.615734364642	13
6	872	1861.957934041146	13
6	873	1866.102623553412	12
6	874	1868.241508749173	11
6	878	1871.740814464725	10
6	879	1872.221887997149	9
6	881	1872.60282119802	9
6	882	1873.04015093916	9
6	883	1875.521863402466	8
6	884	1876.983570669234	7
6	885	1879.256319157351	6
6	887	1879.356073586884	6
6	888	1882.455179937364	6
6	889	1884.338036318832	5
6	891	1886.688361683324	5
6	892	1890.829609949973	5
6	893	1892.569141618171	4
6	894	1894.439883743631	3
6	895	1894.837281032935	2
6	896	1895.631961495507	1
6	897	1895.813984899975	0
6	901	1902.442019052124	0
6	903	1904.507889297054	0
6	905	1905.861314486726	0
6	906	1907.085194791181	0
6	908	1909.777407995839	0
6	912	1920.945764400894	0
6	914	1922.182695436346	0
6	915	1925.290202980785	0
6	917	1930.15861388626	0
6	918	1931.372427259008	0
6	920	1963.91214132306	0
6	921	1965.217777093738	0
6	926	1973.318976600654	0
6	928	1973.361309767564	1
6	929	1973.486125512329	1
6	930	1974.832686220878	0
6	932	1975.116582120982	0
6	933	1976.342487130503	0
6	937	1977.572967073261	0
6	939	1979.076635191296	1
6	941	1985.261943290884	2
6	943	1989.052879945727	2
6	945	1989.30345486024	2
6	946	1989.437536622653	2
6	947	1989.996920045168	1
6	948	1993.229294642759	0
6	950	2015.354681933544	0
6	951	2016.599324292175	0
6	953	2020.548439221487	0
6	958	2025.725814737138	1
6	959	2026.327218669903	1
6	960	2028.810781940547	0
6	962	2032.01908448859	0
6	963	2033.014932919381	0
6	965	2055.502620266609	0
6	966	2059.12576351891	0
6	968	2060.575503583687	0
6	969	2061.14608872246	0
6	974	2084.709706378142	0
6	975	2089.674096046875	0
6	979	2092.939844548836	0
6	981	2099.037089414943	1
6	984	2102.591137611019	2
6	985	2102.695632544295	2
6	986	2103.956194357057	1
6	987	2109.934214677232	0
6	989	2116.368780264422	0
6	991	2116.482601048769	1
6	995	2119.324063641712	2
6	997	2123.674274645256	3
6	999	2124.697710970439	3
6	1000	2128.227598941831	2
6	1001	2129.433704699246	1
6	1002	2134.420033775068	0
6	1004	2138.040682945383	0
6	1005	2138.901529903878	0
6	1007	2150.885637978048	0
6	1008	2153.127805678858	0
6	1010	2167.367114672204	0
6	1014	2175.09927138484	0
6	1021	2186.034893997877	0
6	1023	2188.477097902818	0
6	1035	2221.227079930321	0
6	1038	2234.746023540831	0
6	1040	2238.889269602652	0
6	1041	2240.307772748515	0
6	1043	2254.483068097837	0
6	1044	2254.749648788223	0
6	1046	2271.075409916749	0
6	1047	2272.836864619207	0
6	1049	2280.771826103366	0
6	1053	2283.440245989398	0
6	1055	2283.864084695993	0
6	1057	2284.36974984129	1
6	1058	2285.228315646586	1
6	1059	2286.22398927637	0
6	1061	2288.442495856882	0
6	1065	2296.320950808632	0
6	1067	2297.580246024688	0
6	1068	2298.33703375823	0
6	1070	2309.781809862415	0
6	1072	2312.772812754872	1
6	1074	2313.521323228255	2
6	1076	2318.332567453696	3
6	1078	2318.868552452175	4
6	1079	2320.875769193888	4
6	1080	2321.497270806804	3
6	1081	2321.894063463113	2
6	1085	2327.906731433003	2
6	1089	2336.865900433734	3
6	1092	2339.803824499231	4
6	1094	2349.412632111859	4
6	1095	2360.355720750878	3
6	1096	2360.653722579092	2
6	1097	2362.940560297522	1
6	1103	2371.147766820008	1
6	1105	2371.152034379967	2
6	1108	2378.946809887661	2
6	1109	2379.60149021312	1
6	1110	2380.029373635762	0
6	1112	2380.887203781705	0
6	1114	2383.188984259807	1
6	1118	2386.397673759669	2
6	1120	2391.11863221044	3
6	1122	2400.591305898383	4
6	1124	2402.30511779973	4
6	1126	2407.515928351927	4
6	1127	2410.389808372167	4
6	1128	2411.095828853625	3
6	1129	2414.799940824505	2
6	1131	2418.130008716	2
6	1135	2423.878827139453	3
6	1137	2430.033569373347	4
6	1140	2435.545057738834	5
6	1144	2445.204655047099	5
6	1148	2453.909038768679	4
6	1149	2454.616513073544	3
6	1151	2457.691458169595	3
6	1152	2458.913128291729	3
6	1153	2459.054079951711	2
6	1154	2460.504974429879	1
6	1156	2461.138953990144	1
6	1157	2461.752620942596	1
6	1159	2462.293654580893	1
6	1160	2465.086479799181	1
6	1161	2467.681742604707	0
6	1163	2473.557527797445	0
6	1164	2473.847099183419	0
6	1166	2474.41331895417	0
6	1167	2481.409561259546	0
6	1169	2483.314383275376	0
6	1170	2486.29391514126	0
6	1172	2487.898238471302	0
6	1173	2493.549980572547	0
7	174	355.730857246879	6.390713596838
7	177	371.479249331814	4.102798906548
7	180	385.687767853134	1.511307097499
7	183	387.959592815707	1.523554128252
7	188	395.813839015567	3.861782182582
7	189	398.625052965338	4.758937143379
7	192	406.593690398492	2.119716173664
7	195	414.34774732149	3.910898678439
7	203	435.210534053969	15.386245511687
7	204	436.853822696762	6.811151645028
7	207	443.961159120593	2.517351836946
7	213	474.504780562163	1.502171538813
7	216	477.017232649788	1.647954570051
7	222	494.079634116009	0.792766196181
7	225	502.785574720811	0.846352913918
7	228	510.786675848843	1.748386282229
7	231	522.204470801191	3.58544559124
7	234	529.962713016461	1.400528584955
7	237	530.757938256741	0.348451636269
7	262	583.114361048662	34.684673810784
7	263	586.720101737258	33.86791089094
7	264	587.036287852935	28.254125196867
7	269	595.882522054269	36.097397002517
7	272	599.939382341426	25.787199050357
7	273	602.866674459136	21.089533725911
7	274	603.127265482786	11.218742015862
7	275	604.308472574813	9.062587655124
7	276	604.713266080618	4.968572336317
7	281	614.297599075603	0.242625920341
7	282	615.467370460907	1.265579321208
7	285	641.747840381421	2.374817942134
7	294	653.900753265425	6.719199837935
7	297	660.297436316615	1.885091569239
7	313	703.138496031547	23.403406361754
7	314	704.128184693625	22.826669822238
7	340	740.522377043868	20.768320173401
7	350	751.414547569279	23.700006754085
7	351	753.325494328305	24.76233567679
7	352	759.506789802639	28.86746795001
7	382	821.76810917593	80.910347266473
7	385	826.440627452619	83.297415127918
7	386	829.127548671178	83.083681465792
7	389	829.865586717173	81.076848336388
7	390	834.289451905335	74.504272359468
7	391	838.676002935718	77.502527151093
7	392	839.952801867379	78.405890851896
7	397	847.171868641681	85.012107579639
7	398	851.006887195002	80.441211112611
7	430	908.381267901615	103.71588016681
7	431	908.696475989283	87.554998869647
7	432	910.548838487263	87.434368479271
7	436	922.085192853262	80.108443479997
7	437	924.473094080464	79.71913427065
7	438	929.533997939085	75.86015251712
7	441	930.530627399771	73.046553725933
7	442	931.919442941003	67.828916883644
7	448	933.500806673044	69.090756157433
7	452	942.162958237173	61.982437576322
7	453	942.62510182113	50.481968524937
7	454	942.895268474893	36.994124338036
7	455	944.828503406083	31.892745207248
7	456	945.814314920018	15.849982382486
7	460	949.867019824898	16.849943936189
7	461	954.489217650214	17.831828361245
7	462	959.680272095962	13.382589652721
7	470	980.027534374216	12.989082003581
7	471	983.095393986177	12.328632401486
7	474	995.762776779079	6.933605308285
7	477	1034.559123552918	0.846170313261
7	486	1066.664459894177	2.767356096524
7	489	1068.597026339897	1.391968848763
7	502	1090.855587052971	16.591740031871
7	503	1095.174709233796	19.104287048653
7	504	1096.171053118109	17.937730290348
7	507	1101.364778147199	0.544145091714
7	510	1102.513516043366	0.970995201561
7	516	1117.924102397743	4.630607633752
7	522	1137.86149103825	0.509828972004
7	525	1145.637998512846	1.880190117753
7	530	1151.992584731014	3.270043773061
7	531	1152.550114371806	1.944514080019
7	563	1197.587530946256	27.065331740358
7	566	1199.860797655424	28.096585634615
7	567	1203.291515113176	29.653097120211
7	570	1207.908085187853	24.864097646539
7	573	1213.871030313324	29.407430014641
7	576	1214.738307421011	28.443616563988
7	581	1222.01278904633	28.58499549472
7	586	1225.102361827328	31.150132805937
7	587	1230.170086669047	32.051421919565
7	588	1230.413319469666	26.171976230744
7	592	1239.651898722694	25.319274771324
7	593	1239.734311546017	24.903470382501
7	594	1241.685158439429	21.73607151724
7	595	1242.512212413643	19.597916611832
7	596	1244.434626619254	21.141355818903
7	599	1249.477198132567	17.86889241547
7	600	1250.406272922532	1.718068085576
7	608	1292.134440060981	1.236309937628
7	609	1293.569570597175	1.746408474013
7	612	1297.152172299351	2.575769755824
7	617	1306.027610017938	1.957465336383
7	618	1311.213240666759	5.372325523245
7	621	1320.920416301698	1.163254701302
7	624	1327.860796631077	4.427850756806
7	629	1331.472350562202	1.723726996053
7	630	1331.885533812383	1.20302797712
7	633	1343.169675743488	2.451163737971
7	636	1345.612655199793	0.425214625308
7	641	1352.286864856484	1.500896125829
7	642	1354.413447301826	3.541266451008
7	651	1391.112216464291	8.505194271678
7	654	1404.986024668252	4.069382243178
7	720	1553.180751212283	131.07339460849
7	721	1563.570708625452	138.59909405952
7	722	1564.254034019149	138.02450532823
7	742	1592.598286076006	140.32045179144
7	743	1597.12628703239	134.16111335809
7	744	1600.7685861266	115.252062878
7	745	1604.844494132089	117.12195567827
7	748	1608.854346651555	121.0102509582
7	749	1613.250499585873	123.33109266668
7	750	1616.693149416996	113.07965368989
7	754	1625.571470002912	119.83274602058
7	760	1630.739646276121	58.959834553438
7	761	1631.366059817346	57.987459751906
7	783	1663.951252111717	83.001150570357
7	784	1669.804499863785	80.392487568648
7	785	1675.605768871476	68.830877329891
7	786	1676.296537085205	59.406462688664
7	789	1679.245978421267	52.435173244711
7	821	1739.096444697632	107.04882168311
7	825	1745.871336169041	112.06863123702
7	826	1746.511131409523	101.96358679422
7	827	1754.70875472347	109.50893345764
7	851	1822.306576106323	172.02357184742
7	854	1826.673377708595	149.46955903722
7	858	1842.025936469511	147.79768302309
7	859	1844.269302725409	148.51645260503
7	860	1845.603644770762	148.6750767803
7	863	1852.807226540856	135.73992872558
7	866	1854.508039862228	128.7700169302
7	867	1856.220421420412	123.68661899911
7	868	1856.665922485936	120.94687506091
7	869	1858.700270199564	121.55318663271
7	872	1861.957934041146	121.5366024418
7	873	1866.102623553412	108.90856707297
7	874	1868.241508749173	99.308756918833
7	878	1871.740814464725	71.53888941889
7	879	1872.221887997149	70.82406407778
7	882	1873.04015093916	59.622883040211
7	883	1875.521863402466	54.675911352361
7	884	1876.983570669234	55.874570627161
7	885	1879.256319157351	54.80808035982
7	888	1882.455179937364	50.680927553934
7	889	1884.338036318832	32.574660331917
7	892	1890.829609949973	37.066508898708
7	893	1892.569141618171	30.953407253529
7	894	1894.439883743631	25.72634672994
7	895	1894.837281032935	22.234459834915
7	896	1895.631961495507	16.275887908623
7	897	1895.813984899975	9.125623216651
7	903	1904.507889297054	2.06587024493
7	906	1907.085194791181	1.223880304455
7	912	1920.945764400894	10.439518377962
7	915	1925.290202980785	3.107507544439
7	918	1931.372427259008	1.213813372748
7	921	1965.217777093738	1.305635770678
7	929	1973.486125512329	0.167148911675
7	930	1974.832686220878	1.471376453314
7	933	1976.342487130503	1.225905009521
7	943	1989.052879945727	11.479912872466
7	946	1989.437536622653	10.360901431357
7	947	1989.996920045168	4.734976754284
7	948	1993.229294642759	3.925839782519
7	951	2016.599324292175	1.244642358631
7	959	2026.327218669903	4.62054187163
7	960	2028.810781940547	3.084967203409
7	963	2033.014932919381	0.995848430791
7	966	2059.12576351891	3.623143252301
7	969	2061.14608872246	0.570585138773
7	975	2089.674096046875	4.964389668733
7	985	2102.695632544295	9.755787995459
7	986	2103.956194357057	4.919104942114
7	987	2109.934214677232	7.343077066213
7	999	2124.697710970439	8.21510992167
7	1000	2128.227598941831	10.061555956827
7	1001	2129.433704699246	10.109641057534
7	1002	2134.420033775068	10.745759129812
7	1005	2138.901529903878	0.860846958495
7	1008	2153.127805678858	2.24216770081
7	1014	2175.09927138484	5.944520543208
7	1023	2188.477097902818	2.442203904941
7	1038	2234.746023540831	13.51894361051
7	1041	2240.307772748515	1.418503145863
7	1044	2254.749648788223	0.266580690386
7	1047	2272.836864619207	1.761454702458
7	1053	2283.440245989398	2.650971809888
7	1058	2285.228315646586	1.364230950593
7	1059	2286.22398927637	1.85423943508
7	1065	2296.320950808632	7.661035031275
7	1068	2298.33703375823	0.756787733542
7	1079	2320.875769193888	11.093959331473
7	1080	2321.497270806804	8.724458051932
7	1081	2321.894063463113	8.372740234858
7	1094	2349.412632111859	30.544079659684
7	1095	2360.355720750878	34.469259798117
7	1096	2360.653722579092	32.746991146089
7	1097	2362.940560297522	26.074659863788
7	1108	2378.946809887661	15.705106129219
7	1109	2379.60149021312	8.453723393112
7	1110	2380.029373635762	8.877339255795
7	1124	2402.30511779973	19.116133539923
7	1127	2410.389808372167	25.299701158923
7	1128	2411.095828853625	24.698155093956
7	1129	2414.799940824505	23.681308614065
7	1144	2445.204655047099	27.074646331099
7	1148	2453.909038768679	30.030211629226
7	1149	2454.616513073544	24.582943700197
7	1152	2458.913128291729	23.368070552895
7	1153	2459.054079951711	20.998708009675
7	1154	2460.504974429879	13.625062539871
7	1157	2461.752620942596	4.061162773001
7	1160	2465.086479799181	3.947525809037
7	1161	2467.681742604707	5.388088023814
7	1164	2473.847099183419	0.289571385974
7	1167	2481.409561259546	6.996242305376
7	1170	2486.29391514126	2.979531865884
7	1173	2493.549980572547	5.651742101245
8	176	367.376450425266	1
8	179	384.176460755635	1
8	182	386.436038687455	1
8	185	391.952056832985	1
8	187	393.866115821959	2
8	191	404.473974224828	1
8	194	410.436848643051	1
8	197	418.962261761174	1
8	201	430.042671051734	2
8	206	441.443807283647	1
8	212	473.00260902335	1
8	215	475.369278079737	1
8	221	493.286867919828	1
8	224	501.939221806893	1
8	227	509.038289566614	1
8	230	518.619025209951	1
8	233	528.562184431506	1
8	236	530.409486620472	1
8	249	548.429687237878	1
8	251	552.852190846318	2
8	253	558.782162656068	3
8	255	559.785125051752	4
8	258	574.152183291069	5
8	261	581.777140733225	6
8	266	591.908523466924	4
8	268	595.245884919689	5
8	271	599.744693744301	5
8	278	614.054973155262	1
8	280	614.201791139699	2
8	284	639.373022439287	1
8	291	647.18155342749	1
8	296	658.412344747376	1
8	299	662.241880940892	1
8	307	679.735089669793	2
8	309	681.301514871387	3
8	327	719.754056870467	2
8	332	727.714540815194	3
8	334	728.563158651515	4
8	336	730.639321852629	5
8	338	738.051917068501	6
8	344	743.143212324701	6
8	346	746.043867205386	7
8	348	748.788738380785	8
8	356	761.173475784625	6
8	358	761.546911015483	7
8	360	762.159761062042	8
8	364	770.565676082391	9
8	371	779.056388390191	10
8	376	804.665387734801	11
8	381	821.141477119636	12
8	384	823.114470007992	12
8	388	829.833902557911	11
8	394	841.976749373265	8
8	396	844.753959809814	9
8	402	857.484073673838	8
8	406	864.090526057359	9
8	408	864.406093474509	10
8	410	864.410050515611	11
8	415	873.152552595688	12
8	417	880.180520660851	13
8	423	892.143133296193	14
8	428	905.901144136857	15
8	440	929.964332537532	10
8	446	933.017075888709	9
8	466	967.038452370635	1
8	468	970.766761584691	2
8	473	988.829171470794	1
8	476	1033.712953239657	1
8	485	1063.897103797653	1
8	488	1067.205057491134	1
8	495	1074.2638470211	1
8	497	1076.070422185143	2
8	499	1078.233322827761	3
8	506	1100.820633055485	1
8	509	1101.542520841805	1
8	512	1111.342333799117	1
8	521	1137.351662066246	1
8	524	1143.757808395093	1
8	527	1148.722540957953	1
8	529	1150.605600291787	2
8	535	1155.850971048164	1
8	543	1171.764212020809	2
8	549	1173.638417992965	3
8	553	1183.043987541314	4
8	555	1184.463600298683	5
8	557	1186.294690857023	6
8	560	1193.42779355161	7
8	562	1193.952229021391	8
8	565	1198.118664749482	8
8	569	1204.241343238922	7
8	572	1210.346320488679	7
8	575	1214.33262395137	7
8	578	1214.830841163516	7
8	580	1219.949086922189	8
8	583	1222.914295801811	8
8	585	1223.293270800351	9
8	598	1248.688204836956	2
8	605	1290.898130123353	1
8	607	1291.823162123162	2
8	611	1294.576402543527	1
8	614	1304.070144681555	1
8	616	1305.840915143514	2
8	620	1319.757161600396	1
8	623	1323.432945874271	1
8	626	1329.748623566149	1
8	628	1330.682505835263	2
8	632	1340.718512005517	1
8	635	1345.187440574485	1
8	638	1350.785968730655	1
8	640	1350.872180850818	2
8	648	1382.607022192613	1
8	653	1400.916642425074	1
8	660	1422.107356603794	1
8	667	1424.971614565931	2
8	671	1426.229528690923	3
8	676	1451.471703703142	4
8	678	1452.277834284563	5
8	685	1462.965173674297	6
8	690	1485.516523248597	7
8	693	1487.722538453823	8
8	695	1487.844095693352	9
8	697	1489.919406919192	10
8	707	1503.613495727106	11
8	709	1504.303228010345	12
8	711	1505.738723982334	13
8	731	1571.779811722683	11
8	733	1573.37860006544	12
8	735	1574.86737474354	13
8	737	1580.95010154136	14
8	740	1589.412012295137	15
8	747	1606.774891541585	12
8	758	1626.911053211865	9
8	763	1632.047623014525	8
8	767	1633.802704932022	9
8	772	1644.547544615298	10
8	774	1645.199821265832	11
8	776	1650.037865197686	12
8	778	1650.283004258902	13
8	788	1677.203818671379	10
8	795	1694.228253446423	10
8	797	1695.752850120378	11
8	799	1696.928567990461	12
8	804	1717.067297815278	13
8	812	1725.738022932032	14
8	815	1732.5338024213	15
8	817	1735.719047425022	16
8	819	1737.147083566854	17
8	835	1768.93275183034	14
8	838	1789.832538635294	15
8	840	1800.201925045835	16
8	842	1801.397823919369	17
8	844	1813.417267898949	18
8	848	1820.845952050105	19
8	850	1821.109000042073	20
8	853	1824.448238797531	20
8	862	1851.763375986915	17
8	865	1853.763101051265	17
8	871	1861.615734364642	14
8	881	1872.60282119802	10
8	887	1879.356073586884	7
8	891	1886.688361683324	6
8	901	1902.442019052124	1
8	905	1905.861314486726	1
8	908	1909.777407995839	1
8	914	1922.182695436346	1
8	917	1930.15861388626	1
8	920	1963.91214132306	1
8	926	1973.318976600654	1
8	928	1973.361309767564	2
8	932	1975.116582120982	1
8	937	1977.572967073261	1
8	939	1979.076635191296	2
8	941	1985.261943290884	3
8	945	1989.30345486024	3
8	950	2015.354681933544	1
8	953	2020.548439221487	1
8	958	2025.725814737138	2
8	962	2032.01908448859	1
8	965	2055.502620266609	1
8	968	2060.575503583687	1
8	974	2084.709706378142	1
8	979	2092.939844548836	1
8	981	2099.037089414943	2
8	984	2102.591137611019	3
8	989	2116.368780264422	1
8	991	2116.482601048769	2
8	995	2119.324063641712	3
8	997	2123.674274645256	4
8	1004	2138.040682945383	1
8	1007	2150.885637978048	1
8	1010	2167.367114672204	1
8	1021	2186.034893997877	1
8	1035	2221.227079930321	1
8	1040	2238.889269602652	1
8	1043	2254.483068097837	1
8	1046	2271.075409916749	1
8	1049	2280.771826103366	1
8	1055	2283.864084695993	1
8	1057	2284.36974984129	2
8	1061	2288.442495856882	1
8	1067	2297.580246024688	1
8	1070	2309.781809862415	1
8	1072	2312.772812754872	2
8	1074	2313.521323228255	3
8	1076	2318.332567453696	4
8	1078	2318.868552452175	5
8	1085	2327.906731433003	3
8	1089	2336.865900433734	4
8	1092	2339.803824499231	5
8	1103	2371.147766820008	2
8	1105	2371.152034379967	3
8	1112	2380.887203781705	1
8	1114	2383.188984259807	2
8	1118	2386.397673759669	3
8	1120	2391.11863221044	4
8	1122	2400.591305898383	5
8	1126	2407.515928351927	5
8	1131	2418.130008716	3
8	1135	2423.878827139453	4
8	1137	2430.033569373347	5
8	1140	2435.545057738834	6
8	1151	2457.691458169595	4
8	1156	2461.138953990144	2
8	1159	2462.293654580893	2
8	1163	2473.557527797445	1
8	1166	2474.41331895417	1
8	1169	2483.314383275376	1
8	1172	2487.898238471302	1
9	199	419.824288542282	1
9	209	445.426883461239	1
9	218	481.155473799364	1
9	239	536.946986058516	1
9	242	541.720738592907	1
9	244	541.736319955185	2
9	247	545.749899725905	2
9	287	642.852204457678	1
9	289	646.904432915695	2
9	301	666.123998518003	1
9	303	673.379073049835	2
9	311	692.296201596188	1
9	316	707.174758416955	1
9	318	707.316586279335	2
9	322	718.627327699064	1
9	324	719.093978241006	2
9	330	725.978438086876	1
9	342	740.857761909457	1
9	354	759.785179545867	1
9	362	769.99705848	2
9	366	773.001749095169	3
9	368	773.957541426202	4
9	373	780.867851638882	4
9	400	853.673845421965	1
9	404	862.799389841877	2
9	412	868.098797839271	3
9	419	880.277491819915	3
9	421	882.177038103687	4
9	434	912.935758198835	1
9	444	932.202672012874	1
9	450	936.657389288969	1
9	458	946.297682443241	1
9	464	960.738265453186	1
9	479	1042.502595974247	1
9	482	1060.452690583967	1
9	491	1073.028472791389	1
9	493	1073.979749661901	2
9	514	1113.293494763991	1
9	518	1132.000155132253	1
9	533	1154.808071207918	1
9	537	1158.547296278815	2
9	541	1170.522199205898	1
9	545	1171.867477851254	2
9	547	1172.13455232041	3
9	590	1231.608305717097	1
9	602	1288.624242739881	1
9	644	1356.036850805122	1
9	646	1372.606487445524	2
9	656	1405.653119015198	1
9	658	1415.389328740932	2
9	662	1422.655085990457	3
9	664	1422.976987813847	4
9	669	1425.03253417898	4
9	673	1430.283059070374	5
9	680	1453.338074498799	5
9	683	1458.853815662555	5
9	687	1470.455632448849	6
9	699	1493.449335598144	5
9	701	1496.052380205525	6
9	713	1514.884379549808	3
9	716	1528.555324124831	3
9	724	1564.373909976404	1
9	726	1565.073784446035	2
9	728	1568.88161662372	3
9	752	1616.890074396541	1
9	756	1626.810805176556	1
9	765	1632.799960695581	1
9	769	1636.823592669957	2
9	780	1658.548708404319	2
9	791	1686.708174305305	1
9	793	1694.179105853179	2
9	801	1705.252233173425	3
9	806	1719.93445107556	3
9	809	1724.59685573388	3
9	823	1740.42133159935	1
9	829	1757.194056480443	1
9	831	1761.281828584842	2
9	833	1761.918109262225	3
9	856	1831.77425238343	1
9	876	1868.713537013691	1
9	899	1898.558444776125	1
9	910	1910.506246022932	1
9	923	1966.608133512492	1
9	935	1976.663636876505	1
9	955	2021.706676798273	1
9	971	2073.959348802285	1
9	977	2092.180436930985	1
9	993	2118.166042985004	1
9	1012	2169.154750841632	1
9	1016	2177.061307273094	1
9	1019	2178.914416394662	1
9	1025	2195.814478513715	1
9	1028	2200.177172437229	1
9	1031	2214.891347264506	1
9	1033	2215.816986545285	2
9	1051	2280.78927417951	1
9	1063	2288.659915777357	1
9	1083	2325.886460952761	1
9	1087	2335.729066720743	2
9	1099	2363.241703758442	1
9	1101	2369.572912620892	2
9	1116	2385.090107213244	1
9	1133	2420.381264551342	1
9	1142	2438.055371942036	1
9	1146	2446.879911890008	1
10	199	419.824288542282	4
10	301	666.123998518003	5
10	311	692.296201596188	6
10	316	707.174758416955	7
10	322	718.627327699064	8
10	330	725.978438086876	9
10	342	740.857761909457	10
10	354	759.785179545867	11
10	400	853.673845421965	12
10	434	912.935758198835	13
10	444	932.202672012874	14
10	450	936.657389288969	15
10	458	946.297682443241	16
10	514	1113.293494763991	17
10	541	1170.522199205898	18
10	590	1231.608305717097	19
10	724	1564.373909976404	20
10	752	1616.890074396541	21
10	756	1626.810805176556	22
10	765	1632.799960695581	23
10	791	1686.708174305305	24
10	823	1740.42133159935	25
10	829	1757.194056480443	26
10	856	1831.77425238343	27
10	876	1868.713537013691	28
10	910	1910.506246022932	29
10	955	2021.706676798273	30
10	993	2118.166042985004	31
10	1012	2169.154750841632	32
10	1051	2280.78927417951	33
10	1063	2288.659915777357	34
10	1083	2325.886460952761	35
10	1099	2363.241703758442	36
10	1116	2385.090107213244	37
10	1133	2420.381264551342	38
10	1142	2438.055371942036	39
10	1146	2446.879911890008	40
11	1174	2500	0.1056
12	1174	2500	0.0508

