version 2
run experiments_easy_game_mode1-260-20230308-12:02:48-19704
attr configname experiments_easy_game_mode1
attr datetime 20230308-12:02:48
attr experiment experiments_easy_game_mode1
attr inifile omnetpp.ini
attr iterationvars "$0=5, $1=3, $2=0"
attr iterationvarsf 5,3,0-
attr measurement "$0=5, $1=3, $2=0"
attr network Network
attr processid 19704
attr repetition 20
attr replication #20
attr resultdir results
attr runnumber 260
attr seedset 20
param *.boss.arrival_mean 20
param *.boss.service_mean 5
param *.minion.arrival_mean 10
param *.minion.service_mean 3
param *.player.recover_rate_x 0
param **.minion.arrival_distribution 0
param **.minion.service_distribution 0
param **.boss.arrival_distribution 0
param **.boss.service_distribution 0

vector 0 Network.player minion_jobs_number_stat:vector ETV
attr source signal_minion_jobs_number
vector 1 Network.player minion_jobs_queue_number_stat:vector ETV
attr source signal_minion_jobs_queue_number
vector 2 Network.player minion_defeated_stat:vector ETV
attr source signal_minion_defeated
vector 3 Network.player minion_response_time_stat:vector ETV
attr source signal_minion_response_time
vector 4 Network.player minion_waiting_time_stat:vector ETV
attr source signal_minion_waiting_time
vector 5 Network.player boss_jobs_number_stat:vector ETV
attr source signal_boss_jobs_number
vector 6 Network.player boss_jobs_queue_number_stat:vector ETV
attr source signal_boss_jobs_queue_number
vector 7 Network.player boss_waiting_time_stat:vector ETV
attr source signal_boss_waiting_time
vector 8 Network.player boss_defeated_stat:vector ETV
attr source signal_boss_defeated
vector 9 Network.player boss_response_time_stat:vector ETV
attr source signal_boss_response_time
vector 10 Network.player minion_recovered_stat:vector ETV
attr source signal_minion_recovered
vector 11 Network.player minion_throughput:vector ETV
attr source signal_minion_throughput
vector 12 Network.player boss_throughput:vector ETV
attr source signal_boss_throughput
0	127	351.622388343199	2
0	131	371.419553612551	1
0	134	388.135003504805	1
0	137	394.479227275449	1
0	140	399.146306525564	1
0	143	413.988822543821	1
0	148	430.577270026162	1
0	155	450.445530522083	1
0	157	450.56620835316	2
0	164	475.408713424463	1
0	172	486.437007536756	1
0	176	498.555997115429	1
0	178	501.988285982108	2
0	182	509.703364310223	1
0	188	513.600066459183	1
0	190	514.15713359022	2
0	195	519.564998877551	3
0	200	533.215908580677	1
0	206	539.878935897855	1
0	209	548.938819146463	1
0	218	577.529618033691	1
0	220	579.557974420931	2
0	227	592.731171202488	1
0	229	593.55058864071	2
0	239	630.689373670167	1
0	241	633.071072181035	2
0	245	641.718310486527	1
0	247	648.166646602557	2
0	250	655.40025492798	2
0	252	656.341103306491	3
0	255	662.230043902784	3
0	260	665.788337476499	1
0	266	685.86729107709	1
0	268	686.196119499708	2
0	272	695.910049851226	1
0	275	707.471093698592	1
0	278	715.006932308413	1
0	281	722.581718362881	1
0	283	723.270042358771	2
0	287	734.751374974229	1
0	290	741.211472674072	1
0	293	753.920601265808	1
0	295	756.594634923728	2
0	301	764.623435358197	1
0	303	772.160604516826	2
0	307	774.071990694695	2
0	312	775.152744174367	2
0	319	785.307600720807	1
0	322	786.942921322346	2
0	329	797.09977832489	1
0	335	826.761855315949	1
0	338	828.290630599038	1
0	344	864.900909431776	1
0	347	869.296317033724	1
0	349	870.095271929389	2
0	356	877.303564958754	1
0	362	894.524278214403	1
0	366	897.031583970565	2
0	370	897.990713342699	3
0	384	910.282773328017	4
0	387	922.829214870719	5
0	390	928.517990817427	6
0	398	937.661194746362	1
0	400	938.921492845077	2
0	402	940.807101129187	3
0	404	940.888475363258	4
0	411	953.439267330921	3
0	416	968.490972588345	1
0	419	971.503727450048	1
0	421	984.186528692564	2
0	431	1005.612945911564	1
0	437	1024.854099848457	1
0	442	1030.420885112026	2
0	444	1030.957897223123	3
0	456	1055.219178313221	2
0	462	1059.382982854219	3
0	464	1059.677862170415	4
0	470	1072.85833096112	1
0	473	1086.246841942987	1
0	476	1089.551555733131	1
0	479	1101.151465513359	1
0	482	1106.996923130926	1
0	494	1137.352345430937	1
0	496	1141.436760111395	2
0	503	1151.179425746158	1
0	507	1152.175517040964	2
0	518	1187.17272262204	1
0	521	1189.424970695631	1
0	524	1192.533627381932	1
0	530	1203.302241465891	1
0	537	1220.812244237658	1
0	542	1234.347939546879	1
0	554	1269.088791886225	1
0	557	1272.714705661772	1
0	560	1283.334619908255	1
0	563	1288.530882385772	1
0	569	1297.094530094093	1
0	572	1311.989261226055	1
0	578	1336.754811539309	1
0	581	1339.732416055611	1
0	584	1364.47486934779	1
0	591	1389.302338466047	1
0	593	1389.356319300211	2
0	600	1394.566364497482	3
0	604	1403.518675238298	4
0	606	1404.694806600534	5
0	608	1404.852961057188	6
0	620	1430.727179762105	1
0	625	1433.091413502472	1
0	629	1437.020347705088	2
0	636	1449.90412542955	3
0	640	1465.955019363685	4
0	642	1467.506373875806	5
0	644	1469.215140595482	6
0	648	1481.167644321588	7
0	651	1490.291597345038	8
0	653	1495.266496138839	9
0	668	1537.269121263159	1
0	674	1546.184688885546	1
0	676	1551.133470663509	2
0	680	1574.451870873792	1
0	682	1576.661279157441	2
0	686	1582.588381782212	1
0	689	1615.450621114488	1
0	695	1638.486088535091	1
0	698	1648.236390267948	1
0	703	1656.34415129383	1
0	716	1672.905130772566	1
0	719	1691.838251683883	1
0	729	1729.356735850355	1
0	734	1735.632081704876	1
0	737	1750.571729774423	1
0	742	1752.749879502452	1
0	744	1754.497168605077	2
0	747	1758.131037364403	3
0	749	1763.258324434591	4
0	758	1772.330127963047	3
0	766	1794.719592688274	4
0	775	1815.399537977048	5
0	777	1819.198265695798	6
0	784	1853.15170595002	5
0	788	1857.616409104527	6
0	791	1860.184358818221	7
0	796	1866.431420662804	5
0	803	1881.681538224715	1
0	806	1885.810627302625	1
0	809	1889.141712582087	1
0	812	1903.688043812331	1
0	815	1917.695757394173	1
0	818	1922.988217533722	1
0	821	1927.579023849307	1
0	824	1938.968957736981	1
0	826	1939.109767001134	2
0	830	1946.899267347758	1
0	836	1964.178587675239	1
0	847	1991.361850611606	1
0	850	1992.765572211126	2
0	854	1996.788229995003	1
0	856	2002.047557914531	2
0	869	2033.308601769378	2
0	871	2035.061598774934	3
0	883	2061.650522616734	1
0	887	2075.881688337426	1
0	894	2081.250934196827	2
0	899	2092.21891531825	1
0	901	2093.546632012052	2
0	907	2110.232550114886	2
0	911	2125.025042442512	1
0	914	2135.780505177154	1
0	917	2143.432189153927	1
0	920	2147.368887047278	1
0	927	2158.697907223824	2
0	935	2169.793596511885	1
0	938	2177.966476356023	1
0	944	2192.237003296487	1
0	946	2192.526528785365	2
0	948	2193.89219335034	3
0	954	2198.863269161615	2
0	956	2199.80173145826	3
0	962	2207.823081186459	3
0	964	2210.260514635551	4
0	966	2211.473737698128	5
0	973	2229.269808158822	2
0	977	2241.463295715837	1
0	980	2243.450415741441	1
0	985	2251.410543237281	1
0	987	2252.303868267804	2
0	991	2261.212790082337	2
0	993	2263.19599754186	3
0	995	2264.838738721981	4
0	997	2269.089093589709	5
0	1000	2270.340727560053	5
0	1007	2275.468221962577	6
0	1013	2287.788219280594	4
0	1019	2293.884694717913	1
0	1022	2307.12418334048	1
0	1025	2317.934288927024	1
0	1027	2319.079817402268	2
0	1034	2340.056222556711	1
0	1036	2342.415901409725	2
0	1038	2342.550957990015	3
0	1043	2348.3582601627	1
0	1046	2362.338393119318	1
0	1048	2363.923299114632	2
0	1053	2376.652841269851	3
0	1064	2402.150942015303	1
0	1066	2404.652442841859	2
0	1070	2434.371982535805	1
0	1075	2448.40079655025	1
0	1077	2451.235542157211	2
0	1081	2453.828115139602	3
0	1085	2454.607073960215	4
0	1087	2456.032009824172	5
0	1091	2460.057925107308	6
0	1094	2461.573896518026	7
0	1096	2468.858740301552	8
0	1098	2470.076086231798	9
1	127	351.622388343199	1
1	128	351.860495289431	1
1	129	354.22291280066	0
1	131	371.419553612551	0
1	132	373.252789457473	0
1	134	388.135003504805	0
1	135	388.603454977809	0
1	137	394.479227275449	0
1	138	394.781115174446	0
1	140	399.146306525564	0
1	141	400.933982432963	0
1	143	413.988822543821	0
1	144	418.533360105775	0
1	148	430.577270026162	0
1	153	435.337171006094	0
1	155	450.445530522083	0
1	157	450.56620835316	1
1	158	455.540400021769	1
1	159	459.332532852656	0
1	164	475.408713424463	0
1	165	476.912869746282	0
1	172	486.437007536756	0
1	174	495.933254446434	0
1	176	498.555997115429	0
1	178	501.988285982108	1
1	179	506.539363591507	1
1	180	509.480425549567	0
1	182	509.703364310223	0
1	183	511.757362414228	0
1	188	513.600066459183	0
1	190	514.15713359022	1
1	195	519.564998877551	2
1	196	524.943362372421	2
1	197	525.288045015018	1
1	198	532.019355601087	0
1	200	533.215908580677	0
1	204	537.518902969369	0
1	206	539.878935897855	0
1	207	541.060893143147	0
1	209	548.938819146463	0
1	210	552.3185866714	0
1	218	577.529618033691	0
1	220	579.557974420931	1
1	224	590.841567452162	1
1	225	591.796365304242	0
1	227	592.731171202488	0
1	229	593.55058864071	1
1	230	596.446142746854	1
1	231	597.170749600494	0
1	239	630.689373670167	0
1	241	633.071072181035	1
1	242	638.352802334698	1
1	243	638.453204241804	0
1	245	641.718310486527	0
1	247	648.166646602557	1
1	248	655.180002344314	1
1	250	655.40025492798	1
1	252	656.341103306491	2
1	253	660.213917527214	2
1	255	662.230043902784	2
1	256	664.105578147226	2
1	257	664.126827566201	1
1	258	665.332766186931	0
1	260	665.788337476499	0
1	264	676.47233222389	0
1	266	685.86729107709	0
1	268	686.196119499708	1
1	269	686.804013914502	1
1	270	688.417115754617	0
1	272	695.910049851226	0
1	273	696.234717880502	0
1	275	707.471093698592	0
1	276	709.625559034275	0
1	278	715.006932308413	0
1	279	715.622122591222	0
1	281	722.581718362881	0
1	283	723.270042358771	1
1	284	726.827217277797	1
1	285	727.494538047591	0
1	287	734.751374974229	0
1	288	734.786939266796	0
1	290	741.211472674072	0
1	291	743.810326470574	0
1	293	753.920601265808	0
1	295	756.594634923728	1
1	296	763.276574590104	1
1	297	764.166651640454	0
1	301	764.623435358197	0
1	303	772.160604516826	1
1	305	773.707559645754	1
1	307	774.071990694695	1
1	308	774.910488587367	1
1	312	775.152744174367	1
1	314	777.842556809871	1
1	315	778.096464687222	0
1	319	785.307600720807	0
1	322	786.942921322346	1
1	323	787.14356113983	1
1	324	790.908617298875	0
1	329	797.09977832489	0
1	330	798.976875290281	0
1	335	826.761855315949	0
1	336	827.787108594393	0
1	338	828.290630599038	0
1	339	834.682338195062	0
1	344	864.900909431776	0
1	345	867.088545431987	0
1	347	869.296317033724	0
1	349	870.095271929389	1
1	350	870.480994601513	1
1	354	873.889830853602	0
1	356	877.303564958754	0
1	357	877.419860347508	0
1	362	894.524278214403	0
1	366	897.031583970565	1
1	370	897.990713342699	2
1	384	910.282773328017	3
1	387	922.829214870719	4
1	390	928.517990817427	5
1	391	929.070724188911	5
1	392	929.723124757944	4
1	393	930.982761881302	3
1	394	933.873144626299	2
1	395	934.386089262236	1
1	396	934.574772046597	0
1	398	937.661194746362	0
1	400	938.921492845077	1
1	402	940.807101129187	2
1	404	940.888475363258	3
1	405	943.063079115324	3
1	406	946.312580074456	2
1	411	953.439267330921	2
1	412	954.665398114113	2
1	413	954.928529035625	1
1	414	956.681920166527	0
1	416	968.490972588345	0
1	417	969.005889165324	0
1	419	971.503727450048	0
1	421	984.186528692564	1
1	425	991.483750649573	1
1	426	992.450098913594	0
1	431	1005.612945911564	0
1	432	1017.321792224355	0
1	437	1024.854099848457	0
1	442	1030.420885112026	1
1	444	1030.957897223123	2
1	448	1037.79316304863	2
1	449	1039.210884371262	1
1	456	1055.219178313221	1
1	462	1059.382982854219	2
1	464	1059.677862170415	3
1	465	1061.146200256166	3
1	466	1061.293732202519	2
1	467	1061.333473326094	1
1	468	1065.381028660852	0
1	470	1072.85833096112	0
1	471	1076.904218681081	0
1	473	1086.246841942987	0
1	474	1086.313657086572	0
1	476	1089.551555733131	0
1	477	1090.500357369862	0
1	479	1101.151465513359	0
1	480	1102.244514080721	0
1	482	1106.996923130926	0
1	483	1107.91664179822	0
1	494	1137.352345430937	0
1	496	1141.436760111395	1
1	500	1148.237962257867	1
1	501	1149.680946604605	0
1	503	1151.179425746158	0
1	507	1152.175517040964	1
1	512	1157.781691283084	1
1	513	1157.993424680383	0
1	518	1187.17272262204	0
1	519	1187.193655241105	0
1	521	1189.424970695631	0
1	522	1191.998633240707	0
1	524	1192.533627381932	0
1	528	1203.185587622205	0
1	530	1203.302241465891	0
1	531	1203.607026953179	0
1	537	1220.812244237658	0
1	540	1230.25575897253	0
1	542	1234.347939546879	0
1	543	1241.65870355135	0
1	554	1269.088791886225	0
1	555	1269.666936957355	0
1	557	1272.714705661772	0
1	558	1278.934272200589	0
1	560	1283.334619908255	0
1	561	1287.275236338226	0
1	563	1288.530882385772	0
1	564	1289.38780141148	0
1	569	1297.094530094093	0
1	570	1298.80776876364	0
1	572	1311.989261226055	0
1	573	1313.692780841741	0
1	578	1336.754811539309	0
1	579	1336.792812465686	0
1	581	1339.732416055611	0
1	582	1340.620674423456	0
1	584	1364.47486934779	0
1	585	1365.353992798454	0
1	591	1389.302338466047	0
1	593	1389.356319300211	1
1	600	1394.566364497482	2
1	604	1403.518675238298	3
1	606	1404.694806600534	4
1	608	1404.852961057188	5
1	613	1413.181738527608	5
1	614	1414.922635086046	4
1	615	1419.060644441155	3
1	616	1419.501244833287	2
1	617	1419.94096521609	1
1	618	1420.87682453748	0
1	620	1430.727179762105	0
1	621	1431.951497933851	0
1	625	1433.091413502472	0
1	629	1437.020347705088	1
1	636	1449.90412542955	2
1	640	1465.955019363685	3
1	642	1467.506373875806	4
1	644	1469.215140595482	5
1	648	1481.167644321588	6
1	651	1490.291597345038	7
1	653	1495.266496138839	8
1	655	1497.846781657791	8
1	656	1497.924955840241	7
1	657	1499.862272090426	6
1	658	1504.10875658392	5
1	659	1508.096658312624	4
1	660	1515.896378043234	3
1	661	1525.029451869139	2
1	665	1527.929362235001	1
1	666	1529.950366081583	0
1	668	1537.269121263159	0
1	669	1538.14894239695	0
1	674	1546.184688885546	0
1	676	1551.133470663509	1
1	677	1562.982754839427	1
1	678	1564.365521392221	0
1	680	1574.451870873792	0
1	682	1576.661279157441	1
1	683	1577.7015984107	1
1	684	1578.125727834962	0
1	686	1582.588381782212	0
1	687	1584.989705544882	0
1	689	1615.450621114488	0
1	690	1617.553307531681	0
1	695	1638.486088535091	0
1	696	1640.039926138949	0
1	698	1648.236390267948	0
1	699	1649.204749712814	0
1	703	1656.34415129383	0
1	705	1656.586218339807	0
1	716	1672.905130772566	0
1	717	1680.182178327308	0
1	719	1691.838251683883	0
1	720	1694.974172144854	0
1	729	1729.356735850355	0
1	732	1734.955570948897	0
1	734	1735.632081704876	0
1	735	1735.97008913038	0
1	737	1750.571729774423	0
1	738	1751.454526762803	0
1	742	1752.749879502452	0
1	744	1754.497168605077	1
1	747	1758.131037364403	2
1	749	1763.258324434591	3
1	750	1763.686461031137	3
1	754	1770.956206009985	2
1	758	1772.330127963047	2
1	766	1794.719592688274	3
1	775	1815.399537977048	4
1	777	1819.198265695798	5
1	781	1848.589294874441	5
1	782	1849.967739011694	4
1	784	1853.15170595002	4
1	788	1857.616409104527	5
1	791	1860.184358818221	6
1	792	1860.275868728643	6
1	793	1860.536015400428	5
1	794	1864.307523483287	4
1	796	1866.431420662804	4
1	797	1869.857103246278	4
1	798	1872.376358001478	3
1	799	1877.759226598922	2
1	800	1878.602533815084	1
1	801	1879.822920884813	0
1	803	1881.681538224715	0
1	804	1882.71636094859	0
1	806	1885.810627302625	0
1	807	1887.296249183396	0
1	809	1889.141712582087	0
1	810	1889.388972010507	0
1	812	1903.688043812331	0
1	813	1905.605716194639	0
1	815	1917.695757394173	0
1	816	1918.608160928912	0
1	818	1922.988217533722	0
1	819	1926.915938740875	0
1	821	1927.579023849307	0
1	822	1928.086747240836	0
1	824	1938.968957736981	0
1	826	1939.109767001134	1
1	827	1940.50367204572	1
1	828	1941.262297471978	0
1	830	1946.899267347758	0
1	831	1950.784815486837	0
1	836	1964.178587675239	0
1	837	1964.589607226794	0
1	847	1991.361850611606	0
1	850	1992.765572211126	1
1	851	1994.987613888086	1
1	852	1995.716156818308	0
1	854	1996.788229995003	0
1	856	2002.047557914531	1
1	857	2003.565492488264	1
1	869	2033.308601769378	1
1	871	2035.061598774934	2
1	877	2053.577220221505	2
1	878	2056.311625771536	1
1	879	2058.887148702828	0
1	883	2061.650522616734	0
1	885	2068.347933358696	0
1	887	2075.881688337426	0
1	894	2081.250934196827	1
1	896	2084.313594008699	1
1	897	2084.740365393546	0
1	899	2092.21891531825	0
1	901	2093.546632012052	1
1	902	2096.548363129282	1
1	907	2110.232550114886	1
1	908	2111.919041618877	1
1	909	2112.061519979734	0
1	911	2125.025042442512	0
1	912	2130.09907442476	0
1	914	2135.780505177154	0
1	915	2137.586156869996	0
1	917	2143.432189153927	0
1	918	2144.42135020931	0
1	920	2147.368887047278	0
1	927	2158.697907223824	1
1	932	2164.51246139572	1
1	933	2166.169527776322	0
1	935	2169.793596511885	0
1	936	2172.100142906585	0
1	938	2177.966476356023	0
1	942	2187.097680596901	0
1	944	2192.237003296487	0
1	946	2192.526528785365	1
1	948	2193.89219335034	2
1	949	2194.176546702754	2
1	950	2197.224669137156	1
1	954	2198.863269161615	1
1	956	2199.80173145826	2
1	958	2204.23065975566	2
1	962	2207.823081186459	2
1	964	2210.260514635551	3
1	966	2211.473737698128	4
1	968	2216.011856057568	4
1	969	2220.072956857778	3
1	970	2220.324088056843	2
1	971	2222.68391692784	1
1	973	2229.269808158822	1
1	974	2229.527139631637	1
1	975	2231.324486756938	0
1	977	2241.463295715837	0
1	978	2241.598515320183	0
1	980	2243.450415741441	0
1	981	2245.039628157683	0
1	985	2251.410543237281	0
1	987	2252.303868267804	1
1	989	2259.554438211796	1
1	991	2261.212790082337	1
1	993	2263.19599754186	2
1	995	2264.838738721981	3
1	997	2269.089093589709	4
1	998	2269.490431234512	4
1	1000	2270.340727560053	4
1	1007	2275.468221962577	5
1	1009	2283.015340147859	5
1	1010	2283.434960601561	4
1	1011	2283.85684316596	3
1	1013	2287.788219280594	3
1	1014	2289.244065460181	3
1	1015	2290.60812858239	2
1	1016	2291.607856079276	1
1	1017	2292.181950972749	0
1	1019	2293.884694717913	0
1	1020	2294.073142451757	0
1	1022	2307.12418334048	0
1	1023	2308.536363534746	0
1	1025	2317.934288927024	0
1	1027	2319.079817402268	1
1	1028	2324.179522854103	1
1	1029	2324.889631496367	0
1	1034	2340.056222556711	0
1	1036	2342.415901409725	1
1	1038	2342.550957990015	2
1	1039	2343.520610154464	2
1	1040	2344.974187311649	1
1	1041	2346.846308880137	0
1	1043	2348.3582601627	0
1	1044	2353.811337498707	0
1	1046	2362.338393119318	0
1	1048	2363.923299114632	1
1	1053	2376.652841269851	2
1	1054	2378.100697005253	2
1	1055	2378.136151828258	1
1	1056	2378.929803515569	0
1	1064	2402.150942015303	0
1	1066	2404.652442841859	1
1	1067	2411.0879239635	1
1	1068	2411.429507061762	0
1	1070	2434.371982535805	0
1	1071	2435.548806071665	0
1	1075	2448.40079655025	0
1	1077	2451.235542157211	1
1	1081	2453.828115139602	2
1	1085	2454.607073960215	3
1	1087	2456.032009824172	4
1	1091	2460.057925107308	5
1	1094	2461.573896518026	6
1	1096	2468.858740301552	7
1	1098	2470.076086231798	8
1	1102	2479.387508328039	8
1	1103	2481.470451032422	7
1	1107	2486.56638025394	6
1	1108	2487.14729448373	5
2	128	351.860495289431	30
2	129	354.22291280066	31
2	132	373.252789457473	32
2	135	388.603454977809	33
2	138	394.781115174446	34
2	141	400.933982432963	35
2	144	418.533360105775	36
2	153	435.337171006094	37
2	158	455.540400021769	38
2	159	459.332532852656	39
2	165	476.912869746282	40
2	174	495.933254446434	41
2	179	506.539363591507	42
2	180	509.480425549567	43
2	183	511.757362414228	44
2	196	524.943362372421	45
2	197	525.288045015018	46
2	198	532.019355601087	47
2	204	537.518902969369	48
2	207	541.060893143147	49
2	210	552.3185866714	50
2	224	590.841567452162	51
2	225	591.796365304242	52
2	230	596.446142746854	53
2	231	597.170749600494	54
2	242	638.352802334698	55
2	243	638.453204241804	56
2	248	655.180002344314	57
2	253	660.213917527214	58
2	256	664.105578147226	59
2	257	664.126827566201	60
2	258	665.332766186931	61
2	264	676.47233222389	62
2	269	686.804013914502	63
2	270	688.417115754617	64
2	273	696.234717880502	65
2	276	709.625559034275	66
2	279	715.622122591222	67
2	284	726.827217277797	68
2	285	727.494538047591	69
2	288	734.786939266796	70
2	291	743.810326470574	71
2	296	763.276574590104	72
2	297	764.166651640454	73
2	305	773.707559645754	74
2	308	774.910488587367	75
2	314	777.842556809871	76
2	315	778.096464687222	77
2	323	787.14356113983	78
2	324	790.908617298875	79
2	330	798.976875290281	80
2	336	827.787108594393	81
2	339	834.682338195062	82
2	345	867.088545431987	83
2	350	870.480994601513	84
2	354	873.889830853602	85
2	357	877.419860347508	86
2	391	929.070724188911	87
2	392	929.723124757944	88
2	393	930.982761881302	89
2	394	933.873144626299	90
2	395	934.386089262236	91
2	396	934.574772046597	92
2	405	943.063079115324	93
2	406	946.312580074456	94
2	412	954.665398114113	95
2	413	954.928529035625	96
2	414	956.681920166527	97
2	417	969.005889165324	98
2	425	991.483750649573	99
2	426	992.450098913594	100
2	432	1017.321792224355	101
2	448	1037.79316304863	102
2	449	1039.210884371262	103
2	465	1061.146200256166	104
2	466	1061.293732202519	105
2	467	1061.333473326094	106
2	468	1065.381028660852	107
2	471	1076.904218681081	108
2	474	1086.313657086572	109
2	477	1090.500357369862	110
2	480	1102.244514080721	111
2	483	1107.91664179822	112
2	500	1148.237962257867	113
2	501	1149.680946604605	114
2	512	1157.781691283084	115
2	513	1157.993424680383	116
2	519	1187.193655241105	117
2	522	1191.998633240707	118
2	528	1203.185587622205	119
2	531	1203.607026953179	120
2	540	1230.25575897253	121
2	543	1241.65870355135	122
2	555	1269.666936957355	123
2	558	1278.934272200589	124
2	561	1287.275236338226	125
2	564	1289.38780141148	126
2	570	1298.80776876364	127
2	573	1313.692780841741	128
2	579	1336.792812465686	129
2	582	1340.620674423456	130
2	585	1365.353992798454	131
2	613	1413.181738527608	132
2	614	1414.922635086046	133
2	615	1419.060644441155	134
2	616	1419.501244833287	135
2	617	1419.94096521609	136
2	618	1420.87682453748	137
2	621	1431.951497933851	138
2	655	1497.846781657791	139
2	656	1497.924955840241	140
2	657	1499.862272090426	141
2	658	1504.10875658392	142
2	659	1508.096658312624	143
2	660	1515.896378043234	144
2	661	1525.029451869139	145
2	665	1527.929362235001	146
2	666	1529.950366081583	147
2	669	1538.14894239695	148
2	677	1562.982754839427	149
2	678	1564.365521392221	150
2	683	1577.7015984107	151
2	684	1578.125727834962	152
2	687	1584.989705544882	153
2	690	1617.553307531681	154
2	696	1640.039926138949	155
2	699	1649.204749712814	156
2	705	1656.586218339807	157
2	717	1680.182178327308	158
2	720	1694.974172144854	159
2	732	1734.955570948897	160
2	735	1735.97008913038	161
2	738	1751.454526762803	162
2	750	1763.686461031137	163
2	754	1770.956206009985	164
2	781	1848.589294874441	165
2	782	1849.967739011694	166
2	792	1860.275868728643	167
2	793	1860.536015400428	168
2	794	1864.307523483287	169
2	797	1869.857103246278	170
2	798	1872.376358001478	171
2	799	1877.759226598922	172
2	800	1878.602533815084	173
2	801	1879.822920884813	174
2	804	1882.71636094859	175
2	807	1887.296249183396	176
2	810	1889.388972010507	177
2	813	1905.605716194639	178
2	816	1918.608160928912	179
2	819	1926.915938740875	180
2	822	1928.086747240836	181
2	827	1940.50367204572	182
2	828	1941.262297471978	183
2	831	1950.784815486837	184
2	837	1964.589607226794	185
2	851	1994.987613888086	186
2	852	1995.716156818308	187
2	857	2003.565492488264	188
2	877	2053.577220221505	189
2	878	2056.311625771536	190
2	879	2058.887148702828	191
2	885	2068.347933358696	192
2	896	2084.313594008699	193
2	897	2084.740365393546	194
2	902	2096.548363129282	195
2	908	2111.919041618877	196
2	909	2112.061519979734	197
2	912	2130.09907442476	198
2	915	2137.586156869996	199
2	918	2144.42135020931	200
2	932	2164.51246139572	201
2	933	2166.169527776322	202
2	936	2172.100142906585	203
2	942	2187.097680596901	204
2	949	2194.176546702754	205
2	950	2197.224669137156	206
2	958	2204.23065975566	207
2	968	2216.011856057568	208
2	969	2220.072956857778	209
2	970	2220.324088056843	210
2	971	2222.68391692784	211
2	974	2229.527139631637	212
2	975	2231.324486756938	213
2	978	2241.598515320183	214
2	981	2245.039628157683	215
2	989	2259.554438211796	216
2	998	2269.490431234512	217
2	1009	2283.015340147859	218
2	1010	2283.434960601561	219
2	1011	2283.85684316596	220
2	1014	2289.244065460181	221
2	1015	2290.60812858239	222
2	1016	2291.607856079276	223
2	1017	2292.181950972749	224
2	1020	2294.073142451757	225
2	1023	2308.536363534746	226
2	1028	2324.179522854103	227
2	1029	2324.889631496367	228
2	1039	2343.520610154464	229
2	1040	2344.974187311649	230
2	1041	2346.846308880137	231
2	1044	2353.811337498707	232
2	1054	2378.100697005253	233
2	1055	2378.136151828258	234
2	1056	2378.929803515569	235
2	1067	2411.0879239635	236
2	1068	2411.429507061762	237
2	1071	2435.548806071665	238
2	1102	2479.387508328039	239
2	1103	2481.470451032422	240
2	1107	2486.56638025394	241
2	1108	2487.14729448373	242
3	128	351.860495289431	2.471094241177
3	129	354.22291280066	2.600524457461
3	132	373.252789457473	1.833235844922
3	135	388.603454977809	0.468451473004
3	138	394.781115174446	0.301887898997
3	141	400.933982432963	1.787675907399
3	144	418.533360105775	4.544537561954
3	153	435.337171006094	4.759900979932
3	158	455.540400021769	5.094869499686
3	159	459.332532852656	8.766324499496
3	165	476.912869746282	1.504156321819
3	174	495.933254446434	9.496246909678
3	179	506.539363591507	7.983366476078
3	180	509.480425549567	7.492139567459
3	183	511.757362414228	2.053998104005
3	196	524.943362372421	10.786228782201
3	197	525.288045015018	10.408458906021
3	198	532.019355601087	12.454356723536
3	204	537.518902969369	2.388683350791
3	207	541.060893143147	1.181957245292
3	210	552.3185866714	3.379767524937
3	224	590.841567452162	11.283593031231
3	225	591.796365304242	3.050375888423
3	230	596.446142746854	3.714971544366
3	231	597.170749600494	3.620160959784
3	242	638.352802334698	7.663428664531
3	243	638.453204241804	5.382132060769
3	248	655.180002344314	13.461691857787
3	253	660.213917527214	12.047270924657
3	256	664.105578147226	8.705323219246
3	257	664.126827566201	7.78572425971
3	258	665.332766186931	3.102722284147
3	264	676.47233222389	1.697255875697
3	269	686.804013914502	0.936722837412
3	270	688.417115754617	2.220996254909
3	273	696.234717880502	0.324668029276
3	276	709.625559034275	2.154465335683
3	279	715.622122591222	0.615190282809
3	284	726.827217277797	4.245498914916
3	285	727.494538047591	4.22449568882
3	288	734.786939266796	0.035564292567
3	291	743.810326470574	2.598853796502
3	296	763.276574590104	9.355973324296
3	297	764.166651640454	7.572016716726
3	305	773.707559645754	9.084124287557
3	308	774.910488587367	2.749884070541
3	314	777.842556809871	2.88196107902
3	315	778.096464687222	2.943720512855
3	323	787.14356113983	1.835960419023
3	324	790.908617298875	3.965695976529
3	330	798.976875290281	1.877096965391
3	336	827.787108594393	1.025253278444
3	339	834.682338195062	6.391707596024
3	345	867.088545431987	2.187636000211
3	350	870.480994601513	1.184677567789
3	354	873.889830853602	2.968096068418
3	357	877.419860347508	0.116295388754
3	391	929.070724188911	33.946864579887
3	392	929.723124757944	32.691540787379
3	393	930.982761881302	32.992048538603
3	394	933.873144626299	23.590371298282
3	395	934.386089262236	11.556874391517
3	396	934.574772046597	6.05678122917
3	405	943.063079115324	5.401884368962
3	406	946.312580074456	7.391087229379
3	412	954.665398114113	13.776922750855
3	413	954.928529035625	7.906674748641
3	414	956.681920166527	3.242652835606
3	417	969.005889165324	0.514916576979
3	425	991.483750649573	7.297221957009
3	426	992.450098913594	4.997023226427
3	432	1017.321792224355	11.708846312791
3	448	1037.79316304863	7.372277936604
3	449	1039.210884371262	8.252987148139
3	465	1061.146200256166	5.927021942945
3	466	1061.293732202519	5.310698223126
3	467	1061.333473326094	1.950490471875
3	468	1065.381028660852	5.703166490437
3	471	1076.904218681081	4.045887719961
3	474	1086.313657086572	0.066815143585
3	477	1090.500357369862	0.948801636731
3	480	1102.244514080721	1.093048567362
3	483	1107.91664179822	0.919718667294
3	500	1148.237962257867	6.801202146472
3	501	1149.680946604605	7.996641264993
3	512	1157.781691283084	5.838212701916
3	513	1157.993424680383	5.817907639419
3	519	1187.193655241105	0.020932619065
3	522	1191.998633240707	2.573662545076
3	528	1203.185587622205	8.882019158923
3	531	1203.607026953179	0.304785487288
3	540	1230.25575897253	9.443514734872
3	543	1241.65870355135	7.310764004471
3	555	1269.666936957355	0.57814507113
3	558	1278.934272200589	6.219566538817
3	561	1287.275236338226	3.940616429971
3	564	1289.38780141148	0.856919025708
3	570	1298.80776876364	1.713238669547
3	573	1313.692780841741	1.703519615686
3	579	1336.792812465686	0.038000926377
3	582	1340.620674423456	0.888258367845
3	585	1365.353992798454	0.879123450664
3	613	1413.181738527608	23.879400061561
3	614	1414.922635086046	25.566315785835
3	615	1419.060644441155	24.494279943673
3	616	1419.501244833287	15.982569594989
3	617	1419.94096521609	15.246158615556
3	618	1420.87682453748	16.023863480292
3	621	1431.951497933851	1.224318171746
3	655	1497.846781657791	64.755368155319
3	656	1497.924955840241	60.904608135153
3	657	1499.862272090426	49.958146660876
3	658	1504.10875658392	38.153737220235
3	659	1508.096658312624	40.590284436818
3	660	1515.896378043234	46.681237447752
3	661	1525.029451869139	43.861807547551
3	665	1527.929362235001	32.662866096162
3	666	1529.950366081583	3.731191395437
3	669	1538.14894239695	0.879821133791
3	677	1562.982754839427	16.798065953881
3	678	1564.365521392221	13.232050728712
3	683	1577.7015984107	3.249727536908
3	684	1578.125727834962	1.464448677521
3	687	1584.989705544882	2.40132376267
3	690	1617.553307531681	2.102686417193
3	696	1640.039926138949	1.553837603858
3	699	1649.204749712814	0.968359444866
3	705	1656.586218339807	0.242067045977
3	717	1680.182178327308	7.277047554742
3	720	1694.974172144854	3.135920460971
3	732	1734.955570948897	5.598835098542
3	735	1735.97008913038	0.338007425504
3	738	1751.454526762803	0.88279698838
3	750	1763.686461031137	10.936581528685
3	754	1770.956206009985	12.825168645582
3	781	1848.589294874441	81.430428892439
3	782	1849.967739011694	78.561397680957
3	792	1860.275868728643	65.556276040369
3	793	1860.536015400428	45.13647742338
3	794	1864.307523483287	45.109257787489
3	797	1869.857103246278	16.705397296258
3	798	1872.376358001478	16.260184148689
3	799	1877.759226598922	20.142817494395
3	800	1878.602533815084	18.418174996863
3	801	1879.822920884813	13.391500222009
3	804	1882.71636094859	1.034822723875
3	807	1887.296249183396	1.485621880771
3	810	1889.388972010507	0.24725942842
3	813	1905.605716194639	1.917672382308
3	816	1918.608160928912	0.912403534739
3	819	1926.915938740875	3.927721207153
3	822	1928.086747240836	0.507723391529
3	827	1940.50367204572	1.534714308739
3	828	1941.262297471978	2.152530470844
3	831	1950.784815486837	3.885548139079
3	837	1964.589607226794	0.411019551555
3	851	1994.987613888086	3.62576327648
3	852	1995.716156818308	2.950584607182
3	857	2003.565492488264	6.777262493261
3	877	2053.577220221505	28.643965989107
3	878	2056.311625771536	23.003024002158
3	879	2058.887148702828	23.825549927894
3	885	2068.347933358696	6.697410741962
3	896	2084.313594008699	7.789945446534
3	897	2084.740365393546	3.489431196719
3	902	2096.548363129282	4.329447811032
3	908	2111.919041618877	10.293140111294
3	909	2112.061519979734	1.828969864848
3	912	2130.09907442476	5.074031982248
3	915	2137.586156869996	1.805651692842
3	918	2144.42135020931	0.989161055383
3	932	2164.51246139572	5.814554171896
3	933	2166.169527776322	6.62539471401
3	936	2172.100142906585	2.3065463947
3	942	2187.097680596901	7.100848764533
3	949	2194.176546702754	1.939543406267
3	950	2197.224669137156	4.698140351791
3	958	2204.23065975566	6.831949573396
3	968	2216.011856057568	16.210124599308
3	969	2220.072956857778	14.130413329496
3	970	2220.324088056843	12.501006870384
3	971	2222.68391692784	12.423402292289
3	974	2229.527139631637	18.053401933509
3	975	2231.324486756938	2.054678598116
3	978	2241.598515320183	0.135219604346
3	981	2245.039628157683	1.589212416242
3	989	2259.554438211796	8.143894974515
3	998	2269.490431234512	17.186562966708
3	1009	2283.015340147859	19.819342605999
3	1010	2283.434960601561	18.59622187958
3	1011	2283.85684316596	14.767749576251
3	1014	2289.244065460181	18.903337900128
3	1015	2290.60812858239	20.22528614947
3	1016	2291.607856079276	16.139634116699
3	1017	2292.181950972749	4.393731692155
3	1020	2294.073142451757	0.188447733844
3	1023	2308.536363534746	1.412180194266
3	1028	2324.179522854103	6.245233927079
3	1029	2324.889631496367	5.809814094099
3	1039	2343.520610154464	3.464387597753
3	1040	2344.974187311649	2.558285901924
3	1041	2346.846308880137	4.295350890122
3	1044	2353.811337498707	5.453077336007
3	1054	2378.100697005253	14.177397890621
3	1055	2378.136151828258	11.777658962329
3	1056	2378.929803515569	2.276962245718
3	1067	2411.0879239635	8.936981948197
3	1068	2411.429507061762	6.777064219903
3	1071	2435.548806071665	1.17682353586
3	1102	2479.387508328039	30.986711777789
3	1103	2481.470451032422	30.234908875211
3	1107	2486.56638025394	31.959306293725
3	1108	2487.14729448373	31.115284659558
4	128	351.860495289431	0.238106946232
4	131	371.419553612551	0
4	134	388.135003504805	0
4	137	394.479227275449	0
4	140	399.146306525564	0
4	143	413.988822543821	0
4	152	433.458435222147	2.881165195985
4	155	450.445530522083	0
4	158	455.540400021769	4.974191668609
4	164	475.408713424463	0
4	173	486.681612976252	0.244605439496
4	176	498.555997115429	0
4	179	506.539363591507	4.551077609399
4	182	509.703364310223	0
4	188	513.600066459183	0
4	193	516.620828816497	2.463695226277
4	196	524.943362372421	10.063776263424
4	197	525.288045015018	5.723046137467
4	200	533.215908580677	0
4	203	535.232832013	0.102612394422
4	206	539.878935897855	0
4	209	548.938819146463	0
4	218	577.529618033691	0
4	223	588.987344277349	9.429369856418
4	224	590.841567452162	2.095578036343
4	227	592.731171202488	0
4	230	596.446142746854	2.895554106144
4	239	630.689373670167	0
4	242	638.352802334698	5.281730153663
4	245	641.718310486527	0
4	248	655.180002344314	7.013355741757
4	253	660.213917527214	4.813662599234
4	256	664.105578147226	7.764474840735
4	257	664.126827566201	1.896783663417
4	260	665.788337476499	0
4	263	676.230427421795	1.455351073602
4	266	685.86729107709	0
4	269	686.804013914502	0.607894414794
4	272	695.910049851226	0
4	275	707.471093698592	0
4	278	715.006932308413	0
4	281	722.581718362881	0
4	284	726.827217277797	3.557174919026
4	287	734.751374974229	0
4	290	741.211472674072	0
4	293	753.920601265808	0
4	296	763.276574590104	6.681939666376
4	304	773.466755803719	8.843320445522
4	305	773.707559645754	1.546955128928
4	308	774.910488587367	0.838497892672
4	313	777.139128909966	2.178533179115
4	314	777.842556809871	2.689812635504
4	320	786.805825388353	1.498224667546
4	323	787.14356113983	0.200639817484
4	329	797.09977832489	0
4	335	826.761855315949	0
4	338	828.290630599038	0
4	344	864.900909431776	0
4	347	869.296317033724	0
4	350	870.480994601513	0.385722672124
4	353	873.601801199083	2.680066413899
4	356	877.303564958754	0
4	362	894.524278214403	0
4	388	928.281160247858	33.157300638834
4	391	929.070724188911	32.039140218346
4	392	929.723124757944	31.732411415245
4	393	930.982761881302	20.699988553285
4	394	933.873144626299	11.04392975558
4	395	934.386089262236	5.868098444809
4	398	937.661194746362	0
4	405	943.063079115324	4.141586270247
4	406	946.312580074456	5.505478945269
4	409	948.059726001033	7.171250637775
4	412	954.665398114113	7.643543827129
4	413	954.928529035625	1.489261704704
4	416	968.490972588345	0
4	419	971.503727450048	0
4	424	989.035745704253	4.849217011689
4	425	991.483750649573	4.030674962406
4	431	1005.612945911564	0
4	437	1024.854099848457	0
4	440	1026.267246584303	1.353688119908
4	447	1036.55098074614	6.130095634114
4	448	1037.79316304863	6.835265825507
4	449	1039.210884371262	7.539371015699
4	452	1046.467177465431	6.360483742666
4	457	1055.392454576246	8.53437137993
4	460	1057.551248688296	2.332070375075
4	465	1061.146200256166	5.163166276773
4	466	1061.293732202519	1.9107493483
4	467	1061.333473326094	1.655611155679
4	470	1072.85833096112	0
4	473	1086.246841942987	0
4	476	1089.551555733131	0
4	479	1101.151465513359	0
4	482	1106.996923130926	0
4	494	1137.352345430937	0
4	499	1146.655137981304	5.218377869909
4	500	1148.237962257867	6.553656918255
4	503	1151.179425746158	0
4	511	1154.319506889286	2.376028308118
4	512	1157.781691283084	5.60617424212
4	518	1187.17272262204	0
4	521	1189.424970695631	0
4	524	1192.533627381932	0
4	527	1201.003988606268	6.700420142986
4	530	1203.302241465891	0
4	539	1229.982576834761	9.170332597103
4	542	1234.347939546879	0
4	554	1269.088791886225	0
4	557	1272.714705661772	0
4	560	1283.334619908255	0
4	563	1288.530882385772	0
4	569	1297.094530094093	0
4	572	1311.989261226055	0
4	578	1336.754811539309	0
4	581	1339.732416055611	0
4	584	1364.47486934779	0
4	612	1408.379395666652	19.077057200605
4	613	1413.181738527608	23.825419227397
4	614	1414.922635086046	20.356270588564
4	615	1419.060644441155	15.541969202857
4	616	1419.501244833287	14.806438232753
4	617	1419.94096521609	15.088004158902
4	620	1430.727179762105	0
4	654	1496.805201162469	63.713787659997
4	655	1497.846781657791	60.826433952703
4	656	1497.924955840241	48.020830410691
4	657	1499.862272090426	33.907252726741
4	658	1504.10875658392	36.602382708114
4	659	1508.096658312624	38.881517717142
4	660	1515.896378043234	34.728733721646
4	661	1525.029451869139	34.737854524101
4	664	1527.21675273737	31.950256598531
4	665	1527.929362235001	1.710187548855
4	668	1537.269121263159	0
4	674	1546.184688885546	0
4	677	1562.982754839427	11.849284175918
4	680	1574.451870873792	0
4	683	1577.7015984107	1.040319253259
4	686	1582.588381782212	0
4	689	1615.450621114488	0
4	695	1638.486088535091	0
4	698	1648.236390267948	0
4	704	1656.461127138088	0.116975844258
4	716	1672.905130772566	0
4	719	1691.838251683883	0
4	731	1734.418469987879	5.061734137524
4	734	1735.632081704876	0
4	737	1750.571729774423	0
4	745	1755.055018910108	2.305139407656
4	750	1763.686461031137	9.18929242606
4	753	1768.440325314334	10.309287949931
4	754	1770.956206009985	7.697881575394
4	780	1848.415276552591	81.256410570589
4	781	1848.589294874441	77.182953543704
4	782	1849.967739011694	77.637611048647
4	789	1860.08394878157	65.364356093296
4	792	1860.275868728643	44.876330751595
4	793	1860.536015400428	41.33774970463
4	794	1864.307523483287	11.155817533267
4	797	1869.857103246278	13.740929393489
4	798	1872.376358001478	14.759948896951
4	799	1877.759226598922	17.574867780701
4	800	1878.602533815084	12.17111315228
4	803	1881.681538224715	0
4	806	1885.810627302625	0
4	809	1889.141712582087	0
4	812	1903.688043812331	0
4	815	1917.695757394173	0
4	818	1922.988217533722	0
4	821	1927.579023849307	0
4	824	1938.968957736981	0
4	827	1940.50367204572	1.393905044586
4	830	1946.899267347758	0
4	836	1964.178587675239	0
4	848	1991.635043642753	0.273193031147
4	851	1994.987613888086	2.22204167696
4	854	1996.788229995003	0
4	857	2003.565492488264	1.517934573733
4	863	2024.458325102241	18.331761637964
4	876	2053.35000970881	28.416755476412
4	877	2053.577220221505	20.268618452127
4	878	2056.311625771536	21.250026996602
4	884	2061.825805852338	0.175283235604
4	887	2075.881688337426	0
4	895	2082.187861876753	5.664213314588
4	896	2084.313594008699	3.062659811872
4	899	2092.21891531825	0
4	902	2096.548363129282	3.00173111723
4	905	2107.953273368187	6.327371860604
4	908	2111.919041618877	1.686491503991
4	911	2125.025042442512	0
4	914	2135.780505177154	0
4	917	2143.432189153927	0
4	920	2147.368887047278	0
4	923	2149.666552329973	0.292866000427
4	928	2158.899643115328	5.781063202662
4	931	2161.379835172625	2.681927948801
4	932	2164.51246139572	4.968328333408
4	935	2169.793596511885	0
4	938	2177.966476356023	0
4	941	2184.886492958903	4.889661126535
4	944	2192.237003296487	0
4	949	2194.176546702754	1.650017917389
4	950	2197.224669137156	3.332475786816
4	957	2200.787627575978	3.388917393714
4	958	2204.23065975566	5.367390594045
4	967	2213.376536651517	13.574805193257
4	968	2216.011856057568	10.069312529286
4	969	2220.072956857778	12.249875671319
4	970	2220.324088056843	10.063573421292
4	971	2222.68391692784	11.210179229712
4	974	2229.527139631637	0.257331472815
4	977	2241.463295715837	0
4	980	2243.450415741441	0
4	988	2253.742792034457	2.332248797176
4	989	2259.554438211796	7.250569943992
4	998	2269.490431234512	8.277641152175
4	1008	2277.761186958924	14.565189417064
4	1009	2283.015340147859	18.176601425878
4	1010	2283.434960601561	14.345867011852
4	1011	2283.85684316596	13.516115605907
4	1014	2289.244065460181	18.861223027261
4	1015	2290.60812858239	15.139906619813
4	1016	2291.607856079276	3.819636798682
4	1019	2293.884694717913	0
4	1022	2307.12418334048	0
4	1025	2317.934288927024	0
4	1028	2324.179522854103	5.099705451835
4	1034	2340.056222556711	0
4	1039	2343.520610154464	1.104708744739
4	1040	2344.974187311649	2.423229321634
4	1043	2348.3582601627	0
4	1046	2362.338393119318	0
4	1051	2367.146817240482	3.22351812585
4	1054	2378.100697005253	11.742204139324
4	1055	2378.136151828258	1.483310558407
4	1064	2402.150942015303	0
4	1067	2411.0879239635	6.435481121641
4	1070	2434.371982535805	0
4	1101	2478.78492575451	30.38412920426
4	1102	2479.387508328039	28.151966170828
4	1103	2481.470451032422	27.64233589282
4	1106	2484.732198951073	30.125124990858
4	1107	2486.56638025394	30.534370429768
4	1108	2487.14729448373	27.089369376422
4	1111	2499.750458475522	38.176561957496
5	146	429.805982642391	1
5	150	430.916857740633	2
5	161	466.653881971489	1
5	167	480.389168178264	1
5	169	484.948397214337	2
5	185	512.001023992162	1
5	192	514.879586108997	1
5	202	535.130219618578	1
5	212	554.221217929245	1
5	215	570.767783391724	1
5	222	588.745989415819	1
5	233	607.322329357257	1
5	236	628.022716239493	1
5	262	674.775076348193	1
5	299	764.470504905106	1
5	310	774.960595730851	1
5	317	783.124851826298	1
5	326	791.721574633861	1
5	332	824.780890083904	1
5	341	848.692955585837	1
5	352	870.921734785184	1
5	359	879.673987701764	1
5	364	895.123859609024	1
5	368	897.087892095928	2
5	372	898.52874520143	3
5	374	902.91848991985	4
5	377	904.793744658038	4
5	380	905.939782639788	4
5	408	947.021854286984	1
5	423	987.453075687167	1
5	428	1005.189367569506	1
5	434	1023.320450005643	1
5	439	1024.913558464395	1
5	446	1031.671513355563	1
5	451	1040.106693722765	1
5	454	1046.858083196316	1
5	459	1055.983033979393	1
5	485	1125.834444860383	1
5	487	1126.073229754912	2
5	490	1130.022379586988	2
5	498	1141.684305339612	1
5	505	1151.943478581168	1
5	509	1153.044067096581	2
5	515	1171.972828433619	1
5	526	1194.303568463282	1
5	533	1213.120390775644	1
5	535	1213.776412320688	2
5	545	1242.965419129603	1
5	548	1252.671518180385	1
5	551	1260.25153521397	1
5	566	1295.012015674614	1
5	575	1327.222139794696	1
5	587	1372.895957883817	1
5	589	1381.917485442831	2
5	595	1389.920731222985	3
5	598	1392.698472785622	3
5	602	1394.746713787062	4
5	623	1432.553521227889	1
5	627	1436.728348757593	2
5	632	1439.464295754499	2
5	634	1443.061154915565	3
5	646	1470.841717359854	2
5	663	1526.219174686146	1
5	671	1541.672132057119	1
5	692	1630.679673971452	1
5	701	1655.103665596055	1
5	707	1657.053844268986	1
5	709	1659.651746286242	2
5	713	1665.733231704901	1
5	722	1721.3251219319	1
5	724	1724.171842528881	2
5	726	1726.073576885084	3
5	740	1751.590492483728	1
5	752	1767.158865982002	1
5	756	1771.406341330737	1
5	760	1783.417919866976	2
5	762	1783.722003023927	3
5	764	1791.971053425055	4
5	768	1795.316317058822	5
5	772	1809.741195744578	4
5	786	1856.116173852789	1
5	833	1955.565590503443	1
5	839	1974.625094548522	1
5	841	1977.29678444029	2
5	843	1979.329242199321	3
5	859	2006.126563464277	1
5	861	2009.768996666181	2
5	865	2024.933254232398	1
5	867	2025.029423131321	2
5	874	2047.149323694852	2
5	881	2059.631904285061	1
5	889	2076.523648562165	1
5	891	2077.975665000054	2
5	904	2101.625901507583	1
5	922	2149.373686329546	1
5	925	2153.118579912666	1
5	930	2159.544133062312	1
5	940	2179.996831832368	1
5	952	2197.398710182264	1
5	960	2205.942543528282	1
5	983	2251.306218299661	1
5	1002	2270.38284243292	1
5	1004	2273.847229097608	2
5	1031	2332.685519984248	1
5	1050	2366.358492865929	1
5	1058	2389.953426147872	1
5	1061	2400.252778801939	1
5	1073	2447.619588604821	1
5	1079	2452.902374295182	2
5	1083	2454.586400927438	3
5	1089	2457.141402415183	4
5	1105	2483.620657694845	1
5	1110	2491.727201881822	1
6	146	429.805982642391	0
6	150	430.916857740633	1
6	151	432.250782023323	1
6	152	433.458435222147	0
6	161	466.653881971489	0
6	162	473.455244606819	0
6	167	480.389168178264	0
6	169	484.948397214337	1
6	170	485.02141897659	1
6	173	486.681612976252	0
6	185	512.001023992162	0
6	186	512.021591933526	0
6	192	514.879586108997	0
6	193	516.620828816497	0
6	202	535.130219618578	0
6	203	535.232832013	0
6	212	554.221217929245	0
6	213	558.487690967611	0
6	215	570.767783391724	0
6	216	573.971985354634	0
6	222	588.745989415819	0
6	223	588.987344277349	0
6	233	607.322329357257	0
6	234	615.380018258496	0
6	236	628.022716239493	0
6	237	630.470354334625	0
6	262	674.775076348193	0
6	263	676.230427421795	0
6	299	764.470504905106	0
6	304	773.466755803719	0
6	310	774.960595730851	0
6	313	777.139128909966	0
6	317	783.124851826298	0
6	320	786.805825388353	0
6	326	791.721574633861	0
6	327	792.386740457464	0
6	332	824.780890083904	0
6	333	825.462993376792	0
6	341	848.692955585837	0
6	342	851.099308421532	0
6	352	870.921734785184	0
6	353	873.601801199083	0
6	359	879.673987701764	0
6	360	885.072175329717	0
6	364	895.123859609024	0
6	368	897.087892095928	1
6	372	898.52874520143	2
6	374	902.91848991985	3
6	375	903.720781092531	3
6	377	904.793744658038	3
6	378	905.109590761156	3
6	380	905.939782639788	3
6	381	907.222516410388	3
6	382	909.971195236854	2
6	385	922.347891906342	1
6	388	928.281160247858	0
6	408	947.021854286984	0
6	409	948.059726001033	0
6	423	987.453075687167	0
6	424	989.035745704253	0
6	428	1005.189367569506	0
6	429	1005.327955091498	0
6	434	1023.320450005643	0
6	435	1024.148697279103	0
6	439	1024.913558464395	0
6	440	1026.267246584303	0
6	446	1031.671513355563	0
6	447	1036.55098074614	0
6	451	1040.106693722765	0
6	452	1046.467177465431	0
6	454	1046.858083196316	0
6	457	1055.392454576246	0
6	459	1055.983033979393	0
6	460	1057.551248688296	0
6	485	1125.834444860383	0
6	487	1126.073229754912	1
6	488	1126.329094969053	1
6	490	1130.022379586988	1
6	491	1130.507016267491	1
6	492	1134.068405410555	0
6	498	1141.684305339612	0
6	499	1146.655137981304	0
6	505	1151.943478581168	0
6	509	1153.044067096581	1
6	510	1153.124649592861	1
6	511	1154.319506889286	0
6	515	1171.972828433619	0
6	516	1172.074489603356	0
6	526	1194.303568463282	0
6	527	1201.003988606268	0
6	533	1213.120390775644	0
6	535	1213.776412320688	1
6	538	1227.852960870643	1
6	539	1229.982576834761	0
6	545	1242.965419129603	0
6	546	1244.779230317652	0
6	548	1252.671518180385	0
6	549	1254.635919104288	0
6	551	1260.25153521397	0
6	552	1266.482008306682	0
6	566	1295.012015674614	0
6	567	1296.918937596684	0
6	575	1327.222139794696	0
6	576	1329.848124021081	0
6	587	1372.895957883817	0
6	589	1381.917485442831	1
6	595	1389.920731222985	2
6	596	1390.711580396385	2
6	598	1392.698472785622	2
6	602	1394.746713787062	3
6	609	1405.082213709393	3
6	610	1405.691456594002	2
6	611	1406.367249006979	1
6	612	1408.379395666652	0
6	623	1432.553521227889	0
6	627	1436.728348757593	1
6	630	1437.113570509236	1
6	632	1439.464295754499	1
6	634	1443.061154915565	2
6	637	1456.28167901149	2
6	638	1460.73588939446	1
6	646	1470.841717359854	1
6	649	1489.982453656145	1
6	654	1496.805201162469	0
6	663	1526.219174686146	0
6	664	1527.21675273737	0
6	671	1541.672132057119	0
6	672	1544.081248643237	0
6	692	1630.679673971452	0
6	693	1631.429387936505	0
6	701	1655.103665596055	0
6	704	1656.461127138088	0
6	707	1657.053844268986	0
6	709	1659.651746286242	1
6	710	1663.250659581921	1
6	711	1665.351228678199	0
6	713	1665.733231704901	0
6	714	1671.083248897189	0
6	722	1721.3251219319	0
6	724	1724.171842528881	1
6	726	1726.073576885084	2
6	727	1727.058901048094	2
6	730	1731.782668808901	1
6	731	1734.418469987879	0
6	740	1751.590492483728	0
6	745	1755.055018910108	0
6	752	1767.158865982002	0
6	753	1768.440325314334	0
6	756	1771.406341330737	0
6	760	1783.417919866976	1
6	762	1783.722003023927	2
6	764	1791.971053425055	3
6	768	1795.316317058822	4
6	769	1807.425336350957	4
6	770	1807.440192760157	3
6	772	1809.741195744578	3
6	773	1814.164907330912	3
6	778	1824.705938717001	2
6	779	1836.046480440848	1
6	780	1848.415276552591	0
6	786	1856.116173852789	0
6	789	1860.08394878157	0
6	833	1955.565590503443	0
6	834	1961.000713453079	0
6	839	1974.625094548522	0
6	841	1977.29678444029	1
6	843	1979.329242199321	2
6	844	1981.687511971473	2
6	845	1986.758452619012	1
6	848	1991.635043642753	0
6	859	2006.126563464277	0
6	861	2009.768996666181	1
6	862	2023.298025556565	1
6	863	2024.458325102241	0
6	865	2024.933254232398	0
6	867	2025.029423131321	1
6	872	2038.364554450685	1
6	874	2047.149323694852	1
6	875	2048.579278569014	1
6	876	2053.35000970881	0
6	881	2059.631904285061	0
6	884	2061.825805852338	0
6	889	2076.523648562165	0
6	891	2077.975665000054	1
6	892	2078.235479383124	1
6	895	2082.187861876753	0
6	904	2101.625901507583	0
6	905	2107.953273368187	0
6	922	2149.373686329546	0
6	923	2149.666552329973	0
6	925	2153.118579912666	0
6	928	2158.899643115328	0
6	930	2159.544133062312	0
6	931	2161.379835172625	0
6	940	2179.996831832368	0
6	941	2184.886492958903	0
6	952	2197.398710182264	0
6	957	2200.787627575978	0
6	960	2205.942543528282	0
6	967	2213.376536651517	0
6	983	2251.306218299661	0
6	988	2253.742792034457	0
6	1002	2270.38284243292	0
6	1004	2273.847229097608	1
6	1005	2274.45821160745	1
6	1008	2277.761186958924	0
6	1031	2332.685519984248	0
6	1032	2334.170413427935	0
6	1050	2366.358492865929	0
6	1051	2367.146817240482	0
6	1058	2389.953426147872	0
6	1059	2397.428250467808	0
6	1061	2400.252778801939	0
6	1062	2401.680732798671	0
6	1073	2447.619588604821	0
6	1079	2452.902374295182	1
6	1083	2454.586400927438	2
6	1089	2457.141402415183	3
6	1092	2460.398254593923	3
6	1099	2471.763831310771	2
6	1100	2473.607161437189	1
6	1101	2478.78492575451	0
6	1105	2483.620657694845	0
6	1106	2484.732198951073	0
6	1110	2491.727201881822	0
6	1111	2499.750458475522	0
7	146	429.805982642391	0
7	151	432.250782023323	1.33392428269
7	161	466.653881971489	0
7	167	480.389168178264	0
7	170	485.02141897659	0.073021762253
7	185	512.001023992162	0
7	192	514.879586108997	0
7	202	535.130219618578	0
7	212	554.221217929245	0
7	215	570.767783391724	0
7	222	588.745989415819	0
7	233	607.322329357257	0
7	236	628.022716239493	0
7	262	674.775076348193	0
7	299	764.470504905106	0
7	310	774.960595730851	0
7	317	783.124851826298	0
7	326	791.721574633861	0
7	332	824.780890083904	0
7	341	848.692955585837	0
7	352	870.921734785184	0
7	359	879.673987701764	0
7	364	895.123859609024	0
7	375	903.720781092531	6.632888996603
7	378	905.109590761156	6.580845559726
7	381	907.222516410388	4.304026490538
7	382	909.971195236854	5.177450578816
7	385	922.347891906342	16.408109266554
7	408	947.021854286984	0
7	423	987.453075687167	0
7	428	1005.189367569506	0
7	434	1023.320450005643	0
7	439	1024.913558464395	0
7	446	1031.671513355563	0
7	451	1040.106693722765	0
7	454	1046.858083196316	0
7	459	1055.983033979393	0
7	485	1125.834444860383	0
7	488	1126.329094969053	0.255865214141
7	491	1130.507016267491	0.484636680503
7	498	1141.684305339612	0
7	505	1151.943478581168	0
7	510	1153.124649592861	0.08058249628
7	515	1171.972828433619	0
7	526	1194.303568463282	0
7	533	1213.120390775644	0
7	538	1227.852960870643	14.076548549955
7	545	1242.965419129603	0
7	548	1252.671518180385	0
7	551	1260.25153521397	0
7	566	1295.012015674614	0
7	575	1327.222139794696	0
7	587	1372.895957883817	0
7	596	1390.711580396385	8.794094953554
7	609	1405.082213709393	15.161482486408
7	610	1405.691456594002	12.99298380838
7	611	1406.367249006979	11.620535219917
7	623	1432.553521227889	0
7	630	1437.113570509236	0.385221751643
7	637	1456.28167901149	16.817383256991
7	638	1460.73588939446	17.674734478895
7	649	1489.982453656145	19.140736296291
7	663	1526.219174686146	0
7	671	1541.672132057119	0
7	692	1630.679673971452	0
7	701	1655.103665596055	0
7	707	1657.053844268986	0
7	710	1663.250659581921	3.598913295679
7	713	1665.733231704901	0
7	722	1721.3251219319	0
7	727	1727.058901048094	2.887058519213
7	730	1731.782668808901	5.709091923817
7	740	1751.590492483728	0
7	752	1767.158865982002	0
7	756	1771.406341330737	0
7	769	1807.425336350957	24.007416483981
7	770	1807.440192760157	23.71818973623
7	773	1814.164907330912	22.193853905857
7	778	1824.705938717001	29.389621658179
7	779	1836.046480440848	26.30528469627
7	786	1856.116173852789	0
7	833	1955.565590503443	0
7	839	1974.625094548522	0
7	844	1981.687511971473	4.390727531183
7	845	1986.758452619012	7.429210419691
7	859	2006.126563464277	0
7	862	2023.298025556565	13.529028890384
7	865	2024.933254232398	0
7	872	2038.364554450685	13.335131319364
7	875	2048.579278569014	1.429954874162
7	881	2059.631904285061	0
7	889	2076.523648562165	0
7	892	2078.235479383124	0.25981438307
7	904	2101.625901507583	0
7	922	2149.373686329546	0
7	925	2153.118579912666	0
7	930	2159.544133062312	0
7	940	2179.996831832368	0
7	952	2197.398710182264	0
7	960	2205.942543528282	0
7	983	2251.306218299661	0
7	1002	2270.38284243292	0
7	1005	2274.45821160745	0.610982509842
7	1031	2332.685519984248	0
7	1050	2366.358492865929	0
7	1058	2389.953426147872	0
7	1061	2400.252778801939	0
7	1073	2447.619588604821	0
7	1092	2460.398254593923	7.495880298741
7	1099	2471.763831310771	17.177430383333
7	1100	2473.607161437189	16.465759022006
7	1105	2483.620657694845	0
7	1110	2491.727201881822	0
8	151	432.250782023323	13
8	152	433.458435222147	14
8	162	473.455244606819	15
8	170	485.02141897659	16
8	173	486.681612976252	17
8	186	512.021591933526	18
8	193	516.620828816497	19
8	203	535.232832013	20
8	213	558.487690967611	21
8	216	573.971985354634	22
8	223	588.987344277349	23
8	234	615.380018258496	24
8	237	630.470354334625	25
8	263	676.230427421795	26
8	304	773.466755803719	27
8	313	777.139128909966	28
8	320	786.805825388353	29
8	327	792.386740457464	30
8	333	825.462993376792	31
8	342	851.099308421532	32
8	353	873.601801199083	33
8	360	885.072175329717	34
8	375	903.720781092531	35
8	378	905.109590761156	36
8	381	907.222516410388	37
8	382	909.971195236854	38
8	385	922.347891906342	39
8	388	928.281160247858	40
8	409	948.059726001033	41
8	424	989.035745704253	42
8	429	1005.327955091498	43
8	435	1024.148697279103	44
8	440	1026.267246584303	45
8	447	1036.55098074614	46
8	452	1046.467177465431	47
8	457	1055.392454576246	48
8	460	1057.551248688296	49
8	488	1126.329094969053	50
8	491	1130.507016267491	51
8	492	1134.068405410555	52
8	499	1146.655137981304	53
8	510	1153.124649592861	54
8	511	1154.319506889286	55
8	516	1172.074489603356	56
8	527	1201.003988606268	57
8	538	1227.852960870643	58
8	539	1229.982576834761	59
8	546	1244.779230317652	60
8	549	1254.635919104288	61
8	552	1266.482008306682	62
8	567	1296.918937596684	63
8	576	1329.848124021081	64
8	596	1390.711580396385	65
8	609	1405.082213709393	66
8	610	1405.691456594002	67
8	611	1406.367249006979	68
8	612	1408.379395666652	69
8	630	1437.113570509236	70
8	637	1456.28167901149	71
8	638	1460.73588939446	72
8	649	1489.982453656145	73
8	654	1496.805201162469	74
8	664	1527.21675273737	75
8	672	1544.081248643237	76
8	693	1631.429387936505	77
8	704	1656.461127138088	78
8	710	1663.250659581921	79
8	711	1665.351228678199	80
8	714	1671.083248897189	81
8	727	1727.058901048094	82
8	730	1731.782668808901	83
8	731	1734.418469987879	84
8	745	1755.055018910108	85
8	753	1768.440325314334	86
8	769	1807.425336350957	87
8	770	1807.440192760157	88
8	773	1814.164907330912	89
8	778	1824.705938717001	90
8	779	1836.046480440848	91
8	780	1848.415276552591	92
8	789	1860.08394878157	93
8	834	1961.000713453079	94
8	844	1981.687511971473	95
8	845	1986.758452619012	96
8	848	1991.635043642753	97
8	862	2023.298025556565	98
8	863	2024.458325102241	99
8	872	2038.364554450685	100
8	875	2048.579278569014	101
8	876	2053.35000970881	102
8	884	2061.825805852338	103
8	892	2078.235479383124	104
8	895	2082.187861876753	105
8	905	2107.953273368187	106
8	923	2149.666552329973	107
8	928	2158.899643115328	108
8	931	2161.379835172625	109
8	941	2184.886492958903	110
8	957	2200.787627575978	111
8	967	2213.376536651517	112
8	988	2253.742792034457	113
8	1005	2274.45821160745	114
8	1008	2277.761186958924	115
8	1032	2334.170413427935	116
8	1051	2367.146817240482	117
8	1059	2397.428250467808	118
8	1062	2401.680732798671	119
8	1092	2460.398254593923	120
8	1099	2471.763831310771	121
8	1100	2473.607161437189	122
8	1101	2478.78492575451	123
8	1106	2484.732198951073	124
8	1111	2499.750458475522	125
9	151	432.250782023323	2.444799380932
9	152	433.458435222147	2.541577481514
9	162	473.455244606819	6.80136263533
9	170	485.02141897659	4.632250798326
9	173	486.681612976252	1.733215761915
9	186	512.021591933526	0.020567941364
9	193	516.620828816497	1.7412427075
9	203	535.232832013	0.102612394422
9	213	558.487690967611	4.266473038366
9	216	573.971985354634	3.20420196291
9	223	588.987344277349	0.24135486153
9	234	615.380018258496	8.057688901239
9	237	630.470354334625	2.447638095132
9	263	676.230427421795	1.455351073602
9	304	773.466755803719	8.996250898613
9	313	777.139128909966	2.178533179115
9	320	786.805825388353	3.680973562055
9	327	792.386740457464	0.665165823603
9	333	825.462993376792	0.682103292888
9	342	851.099308421532	2.406352835695
9	353	873.601801199083	2.680066413899
9	360	885.072175329717	5.398187627953
9	375	903.720781092531	8.596921483507
9	378	905.109590761156	8.021698665228
9	381	907.222516410388	8.693771208958
9	382	909.971195236854	7.052705317004
9	385	922.347891906342	17.554147248304
9	388	928.281160247858	22.34137760807
9	409	948.059726001033	1.037871714049
9	424	989.035745704253	1.582670017086
9	429	1005.327955091498	0.138587521992
9	435	1024.148697279103	0.82824727346
9	440	1026.267246584303	1.353688119908
9	447	1036.55098074614	4.879467390577
9	452	1046.467177465431	6.360483742666
9	457	1055.392454576246	8.53437137993
9	460	1057.551248688296	1.568214708903
9	488	1126.329094969053	0.49465010867
9	491	1130.507016267491	4.433786512579
9	492	1134.068405410555	4.046025823567
9	499	1146.655137981304	4.970832641692
9	510	1153.124649592861	1.181171011693
9	511	1154.319506889286	1.275439792705
9	516	1172.074489603356	0.101661169737
9	527	1201.003988606268	6.700420142986
9	538	1227.852960870643	14.732570094999
9	539	1229.982576834761	16.206164514073
9	546	1244.779230317652	1.813811188049
9	549	1254.635919104288	1.964400923903
9	552	1266.482008306682	6.230473092712
9	567	1296.918937596684	1.90692192207
9	576	1329.848124021081	2.625984226385
9	596	1390.711580396385	17.815622512568
9	609	1405.082213709393	23.164728266562
9	610	1405.691456594002	15.770725371017
9	611	1406.367249006979	13.668776221357
9	612	1408.379395666652	13.63268187959
9	630	1437.113570509236	4.560049281347
9	637	1456.28167901149	19.553330253897
9	638	1460.73588939446	21.271593639961
9	649	1489.982453656145	46.92129874058
9	654	1496.805201162469	25.963483802615
9	664	1527.21675273737	0.997578051224
9	672	1544.081248643237	2.409116586118
9	693	1631.429387936505	0.749713965053
9	704	1656.461127138088	1.357461542033
9	710	1663.250659581921	6.196815312935
9	711	1665.351228678199	5.699482391957
9	714	1671.083248897189	5.350017192288
9	727	1727.058901048094	5.733779116194
9	730	1731.782668808901	7.61082628002
9	731	1734.418469987879	8.344893102795
9	745	1755.055018910108	3.46452642638
9	753	1768.440325314334	1.281459332332
9	769	1807.425336350957	36.01899502022
9	770	1807.440192760157	24.022272893181
9	773	1814.164907330912	30.442904306985
9	778	1824.705938717001	32.734885291946
9	779	1836.046480440848	40.730163382026
9	780	1848.415276552591	38.674080808013
9	789	1860.08394878157	3.967774928781
9	834	1961.000713453079	5.435122949636
9	844	1981.687511971473	7.062417422951
9	845	1986.758452619012	9.461668178722
9	848	1991.635043642753	12.305801443432
9	862	2023.298025556565	17.171462092288
9	863	2024.458325102241	14.68932843606
9	872	2038.364554450685	13.431300218287
9	875	2048.579278569014	23.549855437693
9	876	2053.35000970881	6.200686013958
9	884	2061.825805852338	2.193901567277
9	892	2078.235479383124	1.711830820959
9	895	2082.187861876753	4.212196876699
9	905	2107.953273368187	6.327371860604
9	923	2149.666552329973	0.292866000427
9	928	2158.899643115328	5.781063202662
9	931	2161.379835172625	1.835702110313
9	941	2184.886492958903	4.889661126535
9	957	2200.787627575978	3.388917393714
9	967	2213.376536651517	7.433993123235
9	988	2253.742792034457	2.436573734796
9	1005	2274.45821160745	4.07536917453
9	1008	2277.761186958924	3.913957861316
9	1032	2334.170413427935	1.484893443687
9	1051	2367.146817240482	0.788324374553
9	1059	2397.428250467808	7.474824319936
9	1062	2401.680732798671	1.427953996732
9	1092	2460.398254593923	12.778665989102
9	1099	2471.763831310771	18.861457015589
9	1100	2473.607161437189	19.020760509751
9	1101	2478.78492575451	21.643523339327
9	1106	2484.732198951073	1.111541256228
9	1111	2499.750458475522	8.0232565937
10	192	514.879586108997	5
10	202	535.130219618578	6
10	222	588.745989415819	7
10	262	674.775076348193	8
10	310	774.960595730851	9
10	352	870.921734785184	10
10	364	895.123859609024	11
10	408	947.021854286984	12
10	423	987.453075687167	13
10	439	1024.913558464395	14
10	446	1031.671513355563	15
10	451	1040.106693722765	16
10	454	1046.858083196316	17
10	459	1055.983033979393	18
10	498	1141.684305339612	19
10	505	1151.943478581168	20
10	526	1194.303568463282	21
10	663	1526.219174686146	22
10	752	1767.158865982002	23
10	756	1771.406341330737	24
10	786	1856.116173852789	25
10	859	2006.126563464277	26
10	865	2024.933254232398	27
10	889	2076.523648562165	28
10	904	2101.625901507583	29
10	922	2149.373686329546	30
10	925	2153.118579912666	31
10	930	2159.544133062312	32
10	940	2179.996831832368	33
10	952	2197.398710182264	34
10	960	2205.942543528282	35
10	1002	2270.38284243292	36
10	1050	2366.358492865929	37
10	1105	2483.620657694845	38
10	1110	2491.727201881822	39
11	1112	2500	0.0968
12	1112	2500	0.05

