file 53772 1678273512                                           
version 2
run experiments_easy_game_mode1-936-20230308-12:05:12-23461
attr configname experiments_easy_game_mode1
attr datetime 20230308-12:05:12
attr experiment experiments_easy_game_mode1
attr inifile omnetpp.ini
attr iterationvars "$0=6, $1=2.5, $2=100"
attr iterationvarsf 6,2.5,100-
attr measurement "$0=6, $1=2.5, $2=100"
attr network Network
attr processid 23461
attr repetition 6
attr replication #6
attr resultdir results
attr runnumber 936
attr seedset 6
param *.boss.arrival_mean 20
param *.boss.service_mean 6
param *.minion.arrival_mean 10
param *.minion.service_mean 2.5
param *.player.recover_rate_x 100
param **.minion.arrival_distribution 0
param **.minion.service_distribution 0
param **.boss.arrival_distribution 0
param **.boss.service_distribution 0

vector 0 Network.player boss_jobs_number_stat:vector ETV
attr source signal_boss_jobs_number
vector 1 Network.player boss_jobs_queue_number_stat:vector ETV
attr source signal_boss_jobs_queue_number
vector 2 Network.player minion_recovered_stat:vector ETV
attr source signal_minion_recovered
vector 3 Network.player boss_waiting_time_stat:vector ETV
attr source signal_boss_waiting_time
vector 4 Network.player minion_jobs_number_stat:vector ETV
attr source signal_minion_jobs_number
vector 5 Network.player minion_jobs_queue_number_stat:vector ETV
attr source signal_minion_jobs_queue_number
vector 6 Network.player boss_defeated_stat:vector ETV
attr source signal_boss_defeated
vector 7 Network.player boss_response_time_stat:vector ETV
attr source signal_boss_response_time
vector 8 Network.player minion_waiting_time_stat:vector ETV
attr source signal_minion_waiting_time
vector 9 Network.player minion_defeated_stat:vector ETV
attr source signal_minion_defeated
vector 10 Network.player minion_response_time_stat:vector ETV
attr source signal_minion_response_time
vector 11 Network.player minion_throughput:vector ETV
attr source signal_minion_throughput
vector 12 Network.player boss_throughput:vector ETV
attr source signal_boss_throughput
0	2018 2408 133 1001 350.911095348185 2499.404620087199 94 1 4 126 206
1	4426 4790 133 1001 350.911095348185 2499.404620087199 187 0 3 64 96
2	9216 476 133 1001 350.911095348185 2499.404620087199 18 4 21 225 3297
3	9692 2735 133 1001 350.911095348185 2499.404620087199 94 0 19.408286047198 160.06186362236 1844.7200891202
4	12427 5024 135 988 351.627033189598 2473.954007465772 196 1 9 331 909
5	17451 10073 135 993 351.627033189598 2478.54169141663 393 0 8 273 895
6	27524 2490 136 999 353.482214022161 2489.024753880806 93 22 114 6324 497054
7	30014 3606 136 999 353.482214022161 2489.024753880806 93 0.003261524866 28.819846025962 698.55406260692 9780.2959739387
8	33620 6919 136 999 353.482214022161 2489.024753880806 214 0 44.762267363125 1011.4580575767 21952.950454767
9	40539 5364 137 993 354.083826641382 2478.54169141663 197 21 217 23443 3426815
10	45903 7828 137 993 354.083826641382 2478.54169141663 197 0.033518819863 47.38486039564 1385.417479484 27513.308381676
11	53731 20 1002 1002 2500 2500 1 0.0868 0.0868 0.0868 0.00753424
12	53751 20 1002 1002 2500 2500 1 0.0456 0.0456 0.0456 0.00207936

