version 2
run experiments_easy_game_mode1-1261-20230308-12:06:24-25090
attr configname experiments_easy_game_mode1
attr datetime 20230308-12:06:24
attr experiment experiments_easy_game_mode1
attr inifile omnetpp.ini
attr iterationvars "$0=6.5, $1=2.5, $2=0"
attr iterationvarsf 6.5,2.5,0-
attr measurement "$0=6.5, $1=2.5, $2=0"
attr network Network
attr processid 25090
attr repetition 1
attr replication #1
attr resultdir results
attr runnumber 1261
attr seedset 1
param *.boss.arrival_mean 20
param *.boss.service_mean 6.5
param *.minion.arrival_mean 10
param *.minion.service_mean 2.5
param *.player.recover_rate_x 0
param **.minion.arrival_distribution 0
param **.minion.service_distribution 0
param **.boss.arrival_distribution 0
param **.boss.service_distribution 0

vector 0 Network.player minion_jobs_number_stat:vector ETV
attr source signal_minion_jobs_number
vector 1 Network.player minion_jobs_queue_number_stat:vector ETV
attr source signal_minion_jobs_queue_number
vector 2 Network.player minion_waiting_time_stat:vector ETV
attr source signal_minion_waiting_time
vector 3 Network.player minion_defeated_stat:vector ETV
attr source signal_minion_defeated
vector 4 Network.player minion_response_time_stat:vector ETV
attr source signal_minion_response_time
vector 5 Network.player boss_jobs_number_stat:vector ETV
attr source signal_boss_jobs_number
vector 6 Network.player boss_jobs_queue_number_stat:vector ETV
attr source signal_boss_jobs_queue_number
vector 7 Network.player minion_recovered_stat:vector ETV
attr source signal_minion_recovered
vector 8 Network.player boss_waiting_time_stat:vector ETV
attr source signal_boss_waiting_time
vector 9 Network.player boss_defeated_stat:vector ETV
attr source signal_boss_defeated
vector 10 Network.player boss_response_time_stat:vector ETV
attr source signal_boss_response_time
vector 11 Network.player minion_throughput:vector ETV
attr source signal_minion_throughput
vector 12 Network.player boss_throughput:vector ETV
attr source signal_boss_throughput
0	134	354.557151855681	1
0	137	363.823894831212	1
0	139	365.613274632813	2
0	144	370.585233872072	2
0	149	379.681710898725	1
0	152	396.392065199602	1
0	154	396.482332329256	2
0	160	405.963380670505	1
0	164	410.850292778012	1
0	167	413.949212177533	1
0	169	414.400860177836	2
0	174	424.726697612854	3
0	181	456.111867721576	1
0	187	472.775236854993	1
0	189	478.504847620427	2
0	191	478.696928021011	3
0	206	508.451775855767	1
0	208	508.857708167273	2
0	217	524.28980936815	1
0	224	553.294729384193	1
0	229	573.415496850299	1
0	233	579.327708019238	1
0	235	581.229214307217	2
0	239	587.051509254189	1
0	241	587.830568865482	2
0	243	588.51024789307	3
0	248	597.69174064835	1
0	251	599.625904239714	1
0	253	601.464798297421	2
0	257	621.555207288251	1
0	260	634.774522045433	1
0	263	653.323311617842	1
0	266	658.573298451177	1
0	272	684.49641219479	1
0	274	692.002243623595	2
0	280	712.428054766382	1
0	284	740.165402144317	1
0	292	758.199070333875	1
0	296	765.574160589746	1
0	300	768.598356354349	2
0	302	769.743416064392	3
0	304	770.107547801784	4
0	307	771.829954097869	5
0	310	774.42754541804	5
0	314	782.306578941402	4
0	318	784.678757195726	3
0	325	792.11062420985	1
0	327	794.103925195273	2
0	329	804.254275049714	3
0	333	808.053947914704	3
0	337	813.187159306011	2
0	339	815.945202965973	3
0	344	826.437857566554	1
0	346	831.143790537557	2
0	350	836.200513181557	3
0	352	846.215295774186	4
0	358	855.994726423543	2
0	361	858.518294259223	2
0	368	873.102858222541	1
0	370	874.596576772936	2
0	372	876.56858066659	3
0	377	885.172340007252	1
0	380	889.881592834636	1
0	383	894.21520461275	1
0	389	901.197466405341	1
0	392	907.503892790405	1
0	399	919.108782958971	1
0	402	923.552397120488	2
0	405	926.478400633381	3
0	407	927.346722870158	4
0	411	935.437711264658	5
0	417	938.35340222437	3
0	422	948.159850924412	1
0	424	948.645510515757	2
0	432	971.23130375891	1
0	440	997.739497752726	1
0	443	1002.247055797812	1
0	448	1004.940780636881	1
0	452	1015.089663101238	1
0	457	1031.744717209477	1
0	459	1033.869800367338	2
0	461	1035.218628114189	3
0	464	1042.10607936867	4
0	466	1042.89333419035	5
0	472	1044.907710098221	2
0	478	1056.478227078671	1
0	484	1081.535408919244	1
0	493	1110.924019657824	2
0	495	1116.577226252923	3
0	501	1120.370427437659	2
0	512	1138.101066537554	1
0	515	1158.997769375823	1
0	517	1164.389614103138	2
0	521	1176.368381827385	1
0	530	1199.872236254162	1
0	534	1204.278596782078	2
0	539	1209.467598345595	3
0	548	1232.961859612421	1
0	551	1236.984180589291	1
0	553	1241.706954241873	2
0	560	1250.196517913514	1
0	563	1268.951555771959	1
0	571	1287.623521008735	1
0	575	1300.845123160787	1
0	578	1320.578965987141	1
0	581	1332.584785782388	1
0	584	1341.640472899657	1
0	587	1352.712257866263	1
0	589	1353.596872460635	2
0	593	1354.430462899995	1
0	596	1363.525267817574	1
0	598	1363.98202022208	2
0	602	1366.79840673552	1
0	604	1367.798799028257	2
0	608	1380.988650301259	1
0	611	1383.440373029984	1
0	619	1405.945167179226	1
0	626	1422.396675441742	1
0	629	1429.627255756317	1
0	631	1430.685088772856	2
0	635	1439.937483048556	1
0	639	1440.601567088654	2
0	641	1441.274379830186	3
0	650	1470.089611214683	1
0	653	1477.856523929648	1
0	656	1479.634303538207	1
0	659	1481.017581247421	1
0	664	1489.97936585555	1
0	667	1499.513136980461	2
0	674	1529.541644465283	1
0	679	1534.061715485615	1
0	683	1538.630925993558	1
0	686	1553.230681240834	1
0	688	1553.449239273142	2
0	690	1553.946754001386	3
0	694	1561.300505661371	4
0	696	1562.463800429604	5
0	698	1566.131236080638	6
0	702	1577.652101419888	6
0	711	1595.558615324041	3
0	715	1602.787541439405	2
0	719	1629.290346216222	1
0	722	1637.768291493497	1
0	725	1639.148682106153	1
0	731	1657.708909622613	1
0	734	1675.495492245268	1
0	737	1682.1846757928	1
0	744	1697.637724245331	1
0	749	1714.252640392117	1
0	752	1725.952996459446	1
0	758	1733.091468649534	1
0	764	1743.602300963212	1
0	773	1769.737070293725	1
0	779	1797.429649869354	1
0	782	1808.423608925901	1
0	786	1811.117469180127	2
0	788	1812.727691339913	3
0	794	1819.29507133408	1
0	798	1823.829339928366	2
0	806	1850.05842958545	1
0	814	1870.140801328938	1
0	816	1872.093750590139	2
0	819	1876.405968623866	3
0	821	1878.066848027262	4
0	823	1880.162037838015	5
0	833	1914.482613606068	1
0	835	1920.880977758516	2
0	838	1924.746660298332	2
0	842	1929.7353207484	1
0	845	1951.433106009163	1
0	848	1961.080825932835	1
0	851	1968.963691792235	1
0	854	1974.704298001108	1
0	857	1979.34222648922	1
0	860	1982.36574677823	1
0	862	1983.838293113229	2
0	867	1989.156610482477	3
0	869	1990.350194517302	4
0	874	1995.780825651345	4
0	876	1996.531113902884	5
0	883	2019.802131646665	5
0	886	2021.949410744452	5
0	895	2060.879589853667	1
0	897	2060.908898717302	2
0	904	2070.679099586889	1
0	908	2091.617982071237	1
0	910	2092.486468161446	2
0	919	2120.154046587702	1
0	927	2133.359064701743	1
0	929	2140.34363870594	2
0	933	2151.696984518615	3
0	940	2165.460219418262	4
0	947	2182.948533678196	4
0	952	2189.646182425831	4
0	954	2193.914878067786	5
0	956	2193.954164107906	6
0	958	2194.561011312908	7
0	961	2200.766102351387	8
0	965	2210.22901050779	7
0	968	2211.800957408794	7
0	970	2213.125016198576	8
0	973	2216.818198176185	8
0	981	2231.069777978458	6
0	989	2245.062037414236	1
0	995	2260.881398963393	1
0	1000	2274.961049532209	1
0	1005	2280.214129127697	2
0	1017	2305.165130442435	1
0	1025	2333.953071763477	1
0	1034	2360.789919575655	1
0	1037	2362.698859064813	1
0	1039	2363.643523370556	2
0	1046	2392.218169230268	1
0	1048	2394.39108518217	2
0	1054	2400.655127529596	2
0	1060	2408.898363050178	3
0	1069	2423.295046423066	2
0	1071	2423.399860528197	3
0	1078	2437.376253249859	2
0	1081	2439.988562019943	2
0	1088	2479.732826589049	1
0	1090	2480.108407740282	2
1	134	354.557151855681	0
1	135	354.988010212333	0
1	137	363.823894831212	0
1	139	365.613274632813	1
1	140	367.437653693906	1
1	144	370.585233872072	1
1	146	377.240930417918	1
1	147	377.534796483337	0
1	149	379.681710898725	0
1	150	380.48252182178	0
1	152	396.392065199602	0
1	154	396.482332329256	1
1	155	396.962941503147	1
1	156	398.300033093933	0
1	160	405.963380670505	0
1	162	409.452396442505	0
1	164	410.850292778012	0
1	165	411.728018954802	0
1	167	413.949212177533	0
1	169	414.400860177836	1
1	174	424.726697612854	2
1	175	425.656831155802	2
1	176	429.074717394366	1
1	177	430.928856115445	0
1	181	456.111867721576	0
1	183	459.289244941687	0
1	187	472.775236854993	0
1	189	478.504847620427	1
1	191	478.696928021011	2
1	196	485.435990821433	2
1	197	487.726275178759	1
1	198	491.01699377477	0
1	206	508.451775855767	0
1	208	508.857708167273	1
1	209	509.224275486798	1
1	210	509.260995722956	0
1	217	524.28980936815	0
1	219	529.321989003026	0
1	224	553.294729384193	0
1	225	553.539762304426	0
1	229	573.415496850299	0
1	231	575.679231315027	0
1	233	579.327708019238	0
1	235	581.229214307217	1
1	236	583.707434073908	1
1	237	584.699554704639	0
1	239	587.051509254189	0
1	241	587.830568865482	1
1	243	588.51024789307	2
1	244	591.533300242239	2
1	245	591.922492378734	1
1	246	597.496084991993	0
1	248	597.69174064835	0
1	249	598.14438510257	0
1	251	599.625904239714	0
1	253	601.464798297421	1
1	254	607.55192205565	1
1	255	615.857693202351	0
1	257	621.555207288251	0
1	258	623.615267506405	0
1	260	634.774522045433	0
1	261	642.835922032726	0
1	263	653.323311617842	0
1	264	653.560596173901	0
1	266	658.573298451177	0
1	267	659.095212753318	0
1	272	684.49641219479	0
1	274	692.002243623595	1
1	275	698.293145496156	1
1	276	698.354662597259	0
1	280	712.428054766382	0
1	282	718.68676266751	0
1	284	740.165402144317	0
1	285	740.73753779065	0
1	292	758.199070333875	0
1	294	762.106165397201	0
1	296	765.574160589746	0
1	300	768.598356354349	1
1	302	769.743416064392	2
1	304	770.107547801784	3
1	307	771.829954097869	4
1	308	772.493880101359	4
1	310	774.42754541804	4
1	311	777.128636464295	4
1	312	780.908445765543	3
1	314	782.306578941402	3
1	315	783.302040422455	3
1	316	783.360040785423	2
1	318	784.678757195726	2
1	319	785.430668910412	2
1	320	787.585547359331	1
1	321	788.733353765274	0
1	325	792.11062420985	0
1	327	794.103925195273	1
1	329	804.254275049714	2
1	331	807.061424671375	2
1	333	808.053947914704	2
1	334	809.996903072627	2
1	335	811.80835634654	1
1	337	813.187159306011	1
1	339	815.945202965973	2
1	340	816.042684469667	2
1	341	818.595390558751	1
1	342	825.092600574431	0
1	344	826.437857566554	0
1	346	831.143790537557	1
1	350	836.200513181557	2
1	352	846.215295774186	3
1	354	849.021013143523	3
1	355	854.455948537036	2
1	356	855.205664458463	1
1	358	855.994726423543	1
1	359	858.393079839003	1
1	361	858.518294259223	1
1	362	862.448082171422	1
1	366	867.177476251011	0
1	368	873.102858222541	0
1	370	874.596576772936	1
1	372	876.56858066659	2
1	373	878.21271781633	2
1	374	878.769843689547	1
1	375	885.171601988687	0
1	377	885.172340007252	0
1	378	888.154633140129	0
1	380	889.881592834636	0
1	381	889.887134510209	0
1	383	894.21520461275	0
1	384	896.356804644753	0
1	389	901.197466405341	0
1	390	902.782249917931	0
1	392	907.503892790405	0
1	393	909.670986416698	0
1	399	919.108782958971	0
1	402	923.552397120488	1
1	405	926.478400633381	2
1	407	927.346722870158	3
1	411	935.437711264658	4
1	413	936.551275967526	4
1	414	937.82394724715	3
1	415	938.311692707459	2
1	417	938.35340222437	2
1	418	939.750717232799	2
1	419	943.952145579465	1
1	420	944.996725294951	0
1	422	948.159850924412	0
1	424	948.645510515757	1
1	425	950.136511138446	1
1	426	952.482229521585	0
1	432	971.23130375891	0
1	435	995.394523054317	0
1	440	997.739497752726	0
1	441	998.283255708979	0
1	443	1002.247055797812	0
1	444	1003.905692199028	0
1	448	1004.940780636881	0
1	450	1005.843144156553	0
1	452	1015.089663101238	0
1	453	1015.163522370448	0
1	457	1031.744717209477	0
1	459	1033.869800367338	1
1	461	1035.218628114189	2
1	464	1042.10607936867	3
1	466	1042.89333419035	4
1	467	1042.932800806982	4
1	468	1043.15905086168	3
1	469	1044.090263025041	2
1	470	1044.385684645261	1
1	472	1044.907710098221	1
1	473	1045.993324866228	1
1	474	1046.716683877931	0
1	478	1056.478227078671	0
1	480	1060.438708982428	0
1	484	1081.535408919244	0
1	493	1110.924019657824	1
1	495	1116.577226252923	2
1	496	1117.736134961007	2
1	497	1118.541280830103	1
1	501	1120.370427437659	1
1	509	1132.884289700795	1
1	510	1133.524710689495	0
1	512	1138.101066537554	0
1	513	1142.342101542927	0
1	515	1158.997769375823	0
1	517	1164.389614103138	1
1	518	1166.16187848017	1
1	519	1168.249127734746	0
1	521	1176.368381827385	0
1	522	1177.552506042201	0
1	530	1199.872236254162	0
1	534	1204.278596782078	1
1	539	1209.467598345595	2
1	541	1210.977892395936	2
1	545	1220.359491688636	1
1	546	1220.464961411127	0
1	548	1232.961859612421	0
1	549	1233.860707085106	0
1	551	1236.984180589291	0
1	553	1241.706954241873	1
1	554	1243.516574591763	1
1	555	1244.059263907245	0
1	560	1250.196517913514	0
1	561	1256.290433616611	0
1	563	1268.951555771959	0
1	567	1273.774004397802	0
1	571	1287.623521008735	0
1	573	1293.2470797061	0
1	575	1300.845123160787	0
1	576	1307.398728639172	0
1	578	1320.578965987141	0
1	579	1320.826315397655	0
1	581	1332.584785782388	0
1	582	1335.466660530231	0
1	584	1341.640472899657	0
1	585	1342.760289391144	0
1	587	1352.712257866263	0
1	589	1353.596872460635	1
1	590	1354.092269908751	1
1	591	1354.182656941885	0
1	593	1354.430462899995	0
1	594	1356.519264633322	0
1	596	1363.525267817574	0
1	598	1363.98202022208	1
1	599	1365.501387112406	1
1	600	1366.106499844448	0
1	602	1366.79840673552	0
1	604	1367.798799028257	1
1	605	1370.774244644749	1
1	606	1371.201307713588	0
1	608	1380.988650301259	0
1	609	1381.119892724894	0
1	611	1383.440373029984	0
1	615	1392.343772227585	0
1	619	1405.945167179226	0
1	624	1413.145063785583	0
1	626	1422.396675441742	0
1	627	1427.058391822751	0
1	629	1429.627255756317	0
1	631	1430.685088772856	1
1	632	1430.764463135407	1
1	633	1433.344292828527	0
1	635	1439.937483048556	0
1	639	1440.601567088654	1
1	641	1441.274379830186	2
1	643	1460.274334972857	2
1	644	1460.63470599052	1
1	648	1468.815753587498	0
1	650	1470.089611214683	0
1	651	1470.575765931667	0
1	653	1477.856523929648	0
1	654	1478.94155168459	0
1	656	1479.634303538207	0
1	657	1480.594301159943	0
1	659	1481.017581247421	0
1	660	1483.563927611195	0
1	664	1489.97936585555	0
1	667	1499.513136980461	1
1	668	1500.085408902905	1
1	669	1501.78556704545	0
1	674	1529.541644465283	0
1	675	1530.18399382206	0
1	679	1534.061715485615	0
1	681	1537.522081223714	0
1	683	1538.630925993558	0
1	684	1544.164804676477	0
1	686	1553.230681240834	0
1	688	1553.449239273142	1
1	690	1553.946754001386	2
1	694	1561.300505661371	3
1	696	1562.463800429604	4
1	698	1566.131236080638	5
1	700	1577.06850103574	5
1	702	1577.652101419888	5
1	703	1584.254061975532	5
1	704	1585.991068064968	4
1	705	1586.213433080008	3
1	706	1586.509526145644	2
1	711	1595.558615324041	2
1	712	1598.953138639408	2
1	713	1599.162040073682	1
1	715	1602.787541439405	1
1	716	1612.13849673687	1
1	717	1613.200224165259	0
1	719	1629.290346216222	0
1	720	1630.37779912547	0
1	722	1637.768291493497	0
1	723	1638.033991821878	0
1	725	1639.148682106153	0
1	726	1640.803095538066	0
1	731	1657.708909622613	0
1	732	1658.917783276086	0
1	734	1675.495492245268	0
1	735	1678.883742509487	0
1	737	1682.1846757928	0
1	738	1683.969861344494	0
1	744	1697.637724245331	0
1	747	1712.806272629125	0
1	749	1714.252640392117	0
1	750	1722.369741487663	0
1	752	1725.952996459446	0
1	753	1726.042472481391	0
1	758	1733.091468649534	0
1	759	1734.252566979127	0
1	764	1743.602300963212	0
1	765	1744.01644327937	0
1	773	1769.737070293725	0
1	774	1769.768186665026	0
1	779	1797.429649869354	0
1	780	1798.400052286211	0
1	782	1808.423608925901	0
1	786	1811.117469180127	1
1	788	1812.727691339913	2
1	790	1817.253288383733	2
1	791	1817.565801811101	1
1	792	1817.860258384955	0
1	794	1819.29507133408	0
1	798	1823.829339928366	1
1	800	1825.560043535677	1
1	801	1827.186887068968	0
1	806	1850.05842958545	0
1	807	1853.048427542868	0
1	814	1870.140801328938	0
1	816	1872.093750590139	1
1	819	1876.405968623866	2
1	821	1878.066848027262	3
1	823	1880.162037838015	4
1	824	1880.397789689216	4
1	825	1884.326234852216	3
1	826	1886.133900493973	2
1	827	1887.611144796854	1
1	828	1889.090365684761	0
1	833	1914.482613606068	0
1	835	1920.880977758516	1
1	836	1923.312119684253	1
1	838	1924.746660298332	1
1	839	1927.341676801771	1
1	840	1929.128694585068	0
1	842	1929.7353207484	0
1	843	1929.786826133163	0
1	845	1951.433106009163	0
1	846	1953.097417406819	0
1	848	1961.080825932835	0
1	849	1963.206022366897	0
1	851	1968.963691792235	0
1	852	1969.100922047782	0
1	854	1974.704298001108	0
1	855	1976.029249534202	0
1	857	1979.34222648922	0
1	858	1980.049237733523	0
1	860	1982.36574677823	0
1	862	1983.838293113229	1
1	867	1989.156610482477	2
1	869	1990.350194517302	3
1	870	1990.885745133642	3
1	874	1995.780825651345	3
1	876	1996.531113902884	4
1	881	2017.973714403317	4
1	883	2019.802131646665	4
1	884	2020.442488160491	4
1	886	2021.949410744452	4
1	887	2026.423199290098	4
1	888	2026.561880902385	3
1	889	2030.007949813413	2
1	890	2030.536227435043	1
1	891	2041.530862535009	0
1	895	2060.879589853667	0
1	897	2060.908898717302	1
1	899	2063.02690129282	1
1	900	2065.255510989847	0
1	904	2070.679099586889	0
1	906	2078.484446927783	0
1	908	2091.617982071237	0
1	910	2092.486468161446	1
1	911	2093.382934122175	1
1	915	2097.918596021431	0
1	919	2120.154046587702	0
1	921	2122.347612504237	0
1	927	2133.359064701743	0
1	929	2140.34363870594	1
1	933	2151.696984518615	2
1	940	2165.460219418262	3
1	945	2182.510072591547	3
1	947	2182.948533678196	3
1	948	2184.64379367421	3
1	952	2189.646182425831	3
1	954	2193.914878067786	4
1	956	2193.954164107906	5
1	958	2194.561011312908	6
1	961	2200.766102351387	7
1	962	2201.803693713968	7
1	963	2209.481477487082	6
1	965	2210.22901050779	6
1	966	2211.273467386093	6
1	968	2211.800957408794	6
1	970	2213.125016198576	7
1	971	2215.706530824176	7
1	973	2216.818198176185	7
1	974	2217.015825642286	7
1	975	2217.705442179191	6
1	976	2223.426436547653	5
1	981	2231.069777978458	5
1	982	2231.3350878268	5
1	983	2231.719762709569	4
1	984	2231.935669578289	3
1	985	2235.502283640092	2
1	986	2235.744235389732	1
1	987	2237.6143927528	0
1	989	2245.062037414236	0
1	990	2251.840053384935	0
1	995	2260.881398963393	0
1	996	2263.584639572516	0
1	1000	2274.961049532209	0
1	1005	2280.214129127697	1
1	1007	2281.784855347759	1
1	1008	2287.371804552898	0
1	1017	2305.165130442435	0
1	1020	2312.538773997341	0
1	1025	2333.953071763477	0
1	1026	2342.345368620805	0
1	1034	2360.789919575655	0
1	1035	2361.116096914229	0
1	1037	2362.698859064813	0
1	1039	2363.643523370556	1
1	1040	2366.372317285231	1
1	1041	2368.69645625085	0
1	1046	2392.218169230268	0
1	1048	2394.39108518217	1
1	1049	2395.77659346854	1
1	1054	2400.655127529596	1
1	1060	2408.898363050178	2
1	1063	2415.578372193748	2
1	1064	2416.938422148105	1
1	1069	2423.295046423066	1
1	1071	2423.399860528197	2
1	1072	2426.572430960134	2
1	1076	2435.799752180565	1
1	1078	2437.376253249859	1
1	1079	2438.38422607061	1
1	1081	2439.988562019943	1
1	1082	2442.029576221127	1
1	1086	2454.193264941292	0
1	1088	2479.732826589049	0
1	1090	2480.108407740282	1
1	1094	2486.467355047382	1
1	1095	2494.736939865916	0
2	134	354.557151855681	0
2	137	363.823894831212	0
2	140	367.437653693906	1.824379061093
2	145	373.879184651171	4.503929333899
2	146	377.240930417918	6.655696545846
2	149	379.681710898725	0
2	152	396.392065199602	0
2	155	396.962941503147	0.480609173891
2	161	409.135381695178	3.172001024673
2	164	410.850292778012	0
2	167	413.949212177533	0
2	172	423.179376904119	8.778516726283
2	175	425.656831155802	9.868155064001
2	176	429.074717394366	4.348019781512
2	182	457.121458760955	1.009591039379
2	195	483.742136880528	10.966900025535
2	196	485.435990821433	6.931143201006
2	197	487.726275178759	9.029347157748
2	206	508.451775855767	0
2	209	509.224275486798	0.366567319525
2	218	528.484405229962	4.194595861812
2	224	553.294729384193	0
2	230	574.948036761525	1.532539911226
2	233	579.327708019238	0
2	236	583.707434073908	2.478219766691
2	239	587.051509254189	0
2	244	591.533300242239	3.702731376757
2	245	591.922492378734	3.412244485664
2	248	597.69174064835	0
2	251	599.625904239714	0
2	254	607.55192205565	6.087123758229
2	257	621.555207288251	0
2	260	634.774522045433	0
2	263	653.323311617842	0
2	266	658.573298451177	0
2	272	684.49641219479	0
2	275	698.293145496156	6.290901872561
2	281	717.064407110693	4.636352344311
2	284	740.165402144317	0
2	293	759.218878497593	1.019808163718
2	296	765.574160589746	0
2	305	771.031482821439	3.911090396223
2	308	772.493880101359	3.89552374701
2	311	777.128636464295	7.385220399903
2	312	780.908445765543	10.800897963759
2	315	783.302040422455	11.472086324586
2	316	783.360040785423	8.932495367383
2	319	785.430668910412	3.12408996901
2	320	787.585547359331	2.906790163605
2	330	807.057315871453	14.946691661603
2	331	807.061424671375	12.957499476102
2	334	809.996903072627	5.742628022913
2	335	811.80835634654	3.754408431836
2	340	816.042684469667	2.855525163656
2	341	818.595390558751	2.650187592778
2	344	826.437857566554	0
2	353	849.00663421975	17.862843682193
2	354	849.021013143523	17.412532983678
2	355	854.455948537036	18.255435355479
2	356	855.205664458463	8.990368684277
2	359	858.393079839003	2.39835341546
2	362	862.448082171422	3.929787912199
2	365	865.949991548917	1.979918139742
2	368	873.102858222541	0
2	373	878.21271781633	3.616141043394
2	374	878.769843689547	2.201263022957
2	377	885.172340007252	0
2	380	889.881592834636	0
2	383	894.21520461275	0
2	389	901.197466405341	0
2	392	907.503892790405	0
2	403	925.94036855499	6.831585596019
2	412	936.384572202334	12.832175081846
2	413	936.551275967526	10.072875334145
2	414	937.82394724715	10.477224376992
2	415	938.311692707459	3.839608175031
2	418	939.750717232799	4.313005968141
2	419	943.952145579465	5.598743355095
2	422	948.159850924412	0
2	425	950.136511138446	1.491000622689
2	434	991.711032248549	20.479728489639
2	440	997.739497752726	0
2	443	1002.247055797812	0
2	449	1005.519157793383	0.578377156502
2	452	1015.089663101238	0
2	462	1036.111676825833	4.366959616356
2	467	1042.932800806982	9.063000439644
2	468	1043.15905086168	7.940422747491
2	469	1044.090263025041	1.984183656371
2	470	1044.385684645261	1.492350454911
2	473	1045.993324866228	1.085614768007
2	479	1060.278131749906	3.799904671235
2	491	1109.361159789568	27.825750870324
2	496	1117.736134961007	6.812115303183
2	497	1118.541280830103	1.96405457718
2	508	1131.069132158194	11.84541684076
2	509	1132.884289700795	12.513862263136
2	512	1138.101066537554	0
2	515	1158.997769375823	0
2	518	1166.16187848017	1.772264377032
2	521	1176.368381827385	0
2	530	1199.872236254162	0
2	540	1210.860461139053	8.583570392361
2	541	1210.977892395936	6.699295613858
2	544	1216.182506000487	6.714907654892
2	545	1220.359491688636	8.276193442038
2	548	1232.961859612421	0
2	551	1236.984180589291	0
2	554	1243.516574591763	1.80962034989
2	560	1250.196517913514	0
2	563	1268.951555771959	0
2	566	1273.766078390264	1.489951844789
2	572	1288.892359057906	1.268838049171
2	575	1300.845123160787	0
2	578	1320.578965987141	0
2	581	1332.584785782388	0
2	584	1341.640472899657	0
2	587	1352.712257866263	0
2	590	1354.092269908751	0.495397448116
2	593	1354.430462899995	0
2	596	1363.525267817574	0
2	599	1365.501387112406	1.519366890326
2	602	1366.79840673552	0
2	605	1370.774244644749	2.975445616492
2	608	1380.988650301259	0
2	611	1383.440373029984	0
2	614	1392.018907553345	4.386508292442
2	623	1412.62236977107	6.677202591844
2	626	1422.396675441742	0
2	629	1429.627255756317	0
2	632	1430.764463135407	0.079374362551
2	635	1439.937483048556	0
2	642	1459.93913027083	19.636605110793
2	643	1460.274334972857	19.672767884203
2	644	1460.63470599052	19.360326160334
2	647	1466.773412105189	4.218117370116
2	650	1470.089611214683	0
2	653	1477.856523929648	0
2	656	1479.634303538207	0
2	659	1481.017581247421	0
2	665	1492.273731521513	2.294365665963
2	668	1500.085408902905	0.572271922444
2	674	1529.541644465283	0
2	680	1535.332410730452	1.270695244837
2	683	1538.630925993558	0
2	686	1553.230681240834	0
2	699	1570.325920848247	16.876681575105
2	700	1577.06850103574	23.121747034354
2	703	1584.254061975532	25.755884636989
2	704	1585.991068064968	24.690562403597
2	705	1586.213433080008	23.749632650404
2	706	1586.509526145644	20.378290065006
2	709	1594.315512307498	16.66341088761
2	712	1598.953138639408	8.482403417359
2	713	1599.162040073682	3.603424749641
2	716	1612.13849673687	9.350955297465
2	719	1629.290346216222	0
2	722	1637.768291493497	0
2	725	1639.148682106153	0
2	731	1657.708909622613	0
2	734	1675.495492245268	0
2	737	1682.1846757928	0
2	746	1711.640150520499	14.002426275168
2	749	1714.252640392117	0
2	752	1725.952996459446	0
2	758	1733.091468649534	0
2	764	1743.602300963212	0
2	773	1769.737070293725	0
2	779	1797.429649869354	0
2	782	1808.423608925901	0
2	789	1813.926207029395	3.919625893155
2	790	1817.253288383733	6.135819203606
2	791	1817.565801811101	4.838110471188
2	794	1819.29507133408	0
2	799	1824.984692359989	5.150485118187
2	800	1825.560043535677	1.730703607311
2	806	1850.05842958545	0
2	817	1875.655322523061	5.514521194123
2	824	1880.397789689216	8.304039099077
2	825	1884.326234852216	7.92026622835
2	826	1886.133900493973	8.067052466711
2	827	1887.611144796854	7.449106958839
2	833	1914.482613606068	0
2	836	1923.312119684253	2.431141925737
2	839	1927.341676801771	2.595016503439
2	842	1929.7353207484	0
2	845	1951.433106009163	0
2	848	1961.080825932835	0
2	851	1968.963691792235	0
2	854	1974.704298001108	0
2	857	1979.34222648922	0
2	860	1982.36574677823	0
2	865	1987.360030182384	3.521737069155
2	870	1990.885745133642	6.532568707942
2	880	2013.932538834711	24.775928352234
2	881	2017.973714403317	27.623519886015
2	884	2020.442488160491	27.002717526336
2	887	2026.423199290098	30.642373638753
2	888	2026.561880902385	30.030766999501
2	889	2030.007949813413	10.205818166748
2	890	2030.536227435043	8.586816690591
2	898	2061.52128979755	0.641699943883
2	899	2063.02690129282	2.118002575518
2	905	2075.449876627895	4.770777041006
2	908	2091.617982071237	0
2	911	2093.382934122175	0.896465960729
2	914	2097.067418616707	3.526813933106
2	920	2121.735152665867	1.581106078165
2	944	2181.394420470128	48.035355768385
2	945	2182.510072591547	42.166433885607
2	948	2184.64379367421	32.946809155595
2	959	2197.996519126697	32.536299708435
2	962	2201.803693713968	18.855160035772
2	963	2209.481477487082	20.268969379642
2	966	2211.273467386093	21.627284960262
2	971	2215.706530824176	21.79165275639
2	974	2217.015825642286	23.06166153438
2	975	2217.705442179191	23.144430866283
2	976	2223.426436547653	22.660334196266
2	979	2230.332948746516	20.103938238726
2	982	2231.3350878268	19.534130418006
2	983	2231.719762709569	18.594746510993
2	984	2231.935669578289	15.117471402104
2	985	2235.502283640092	7.490871393506
2	986	2235.744235389732	4.674457411274
2	989	2245.062037414236	0
2	995	2260.881398963393	0
2	1001	2275.024637924153	0.063588391944
2	1006	2280.758591196012	3.613456538629
2	1007	2281.784855347759	1.570726220062
2	1019	2312.196212062494	7.031081620059
2	1025	2333.953071763477	0
2	1034	2360.789919575655	0
2	1037	2362.698859064813	0
2	1040	2366.372317285231	2.728793914675
2	1046	2392.218169230268	0
2	1049	2395.77659346854	1.38550828637
2	1052	2398.977733970859	0.009281338809
2	1062	2412.483263496037	11.828135966441
2	1063	2415.578372193748	10.876883077567
2	1064	2416.938422148105	8.040059097927
2	1067	2422.731361348289	3.763034434268
2	1072	2426.572430960134	3.277384537068
2	1075	2435.043486394581	11.643625866384
2	1076	2435.799752180565	8.788889236349
2	1079	2438.38422607061	1.007972820751
2	1082	2442.029576221127	2.041014201184
2	1085	2453.327238660816	9.893310067144
2	1088	2479.732826589049	0
2	1093	2485.451134323738	5.342726583456
2	1094	2486.467355047382	5.84613495059
3	135	354.988010212333	27
3	140	367.437653693906	28
3	146	377.240930417918	29
3	147	377.534796483337	30
3	150	380.48252182178	31
3	155	396.962941503147	32
3	156	398.300033093933	33
3	162	409.452396442505	34
3	165	411.728018954802	35
3	175	425.656831155802	36
3	176	429.074717394366	37
3	177	430.928856115445	38
3	183	459.289244941687	39
3	196	485.435990821433	40
3	197	487.726275178759	41
3	198	491.01699377477	42
3	209	509.224275486798	43
3	210	509.260995722956	44
3	219	529.321989003026	45
3	225	553.539762304426	46
3	231	575.679231315027	47
3	236	583.707434073908	48
3	237	584.699554704639	49
3	244	591.533300242239	50
3	245	591.922492378734	51
3	246	597.496084991993	52
3	249	598.14438510257	53
3	254	607.55192205565	54
3	255	615.857693202351	55
3	258	623.615267506405	56
3	261	642.835922032726	57
3	264	653.560596173901	58
3	267	659.095212753318	59
3	275	698.293145496156	60
3	276	698.354662597259	61
3	282	718.68676266751	62
3	285	740.73753779065	63
3	294	762.106165397201	64
3	308	772.493880101359	65
3	311	777.128636464295	66
3	312	780.908445765543	67
3	315	783.302040422455	68
3	316	783.360040785423	69
3	319	785.430668910412	70
3	320	787.585547359331	71
3	321	788.733353765274	72
3	331	807.061424671375	73
3	334	809.996903072627	74
3	335	811.80835634654	75
3	340	816.042684469667	76
3	341	818.595390558751	77
3	342	825.092600574431	78
3	354	849.021013143523	79
3	355	854.455948537036	80
3	356	855.205664458463	81
3	359	858.393079839003	82
3	362	862.448082171422	83
3	366	867.177476251011	84
3	373	878.21271781633	85
3	374	878.769843689547	86
3	375	885.171601988687	87
3	378	888.154633140129	88
3	381	889.887134510209	89
3	384	896.356804644753	90
3	390	902.782249917931	91
3	393	909.670986416698	92
3	413	936.551275967526	93
3	414	937.82394724715	94
3	415	938.311692707459	95
3	418	939.750717232799	96
3	419	943.952145579465	97
3	420	944.996725294951	98
3	425	950.136511138446	99
3	426	952.482229521585	100
3	435	995.394523054317	101
3	441	998.283255708979	102
3	444	1003.905692199028	103
3	450	1005.843144156553	104
3	453	1015.163522370448	105
3	467	1042.932800806982	106
3	468	1043.15905086168	107
3	469	1044.090263025041	108
3	470	1044.385684645261	109
3	473	1045.993324866228	110
3	474	1046.716683877931	111
3	480	1060.438708982428	112
3	496	1117.736134961007	113
3	497	1118.541280830103	114
3	509	1132.884289700795	115
3	510	1133.524710689495	116
3	513	1142.342101542927	117
3	518	1166.16187848017	118
3	519	1168.249127734746	119
3	522	1177.552506042201	120
3	541	1210.977892395936	121
3	545	1220.359491688636	122
3	546	1220.464961411127	123
3	549	1233.860707085106	124
3	554	1243.516574591763	125
3	555	1244.059263907245	126
3	561	1256.290433616611	127
3	567	1273.774004397802	128
3	573	1293.2470797061	129
3	576	1307.398728639172	130
3	579	1320.826315397655	131
3	582	1335.466660530231	132
3	585	1342.760289391144	133
3	590	1354.092269908751	134
3	591	1354.182656941885	135
3	594	1356.519264633322	136
3	599	1365.501387112406	137
3	600	1366.106499844448	138
3	605	1370.774244644749	139
3	606	1371.201307713588	140
3	609	1381.119892724894	141
3	615	1392.343772227585	142
3	624	1413.145063785583	143
3	627	1427.058391822751	144
3	632	1430.764463135407	145
3	633	1433.344292828527	146
3	643	1460.274334972857	147
3	644	1460.63470599052	148
3	648	1468.815753587498	149
3	651	1470.575765931667	150
3	654	1478.94155168459	151
3	657	1480.594301159943	152
3	660	1483.563927611195	153
3	668	1500.085408902905	154
3	669	1501.78556704545	155
3	675	1530.18399382206	156
3	681	1537.522081223714	157
3	684	1544.164804676477	158
3	700	1577.06850103574	159
3	703	1584.254061975532	160
3	704	1585.991068064968	161
3	705	1586.213433080008	162
3	706	1586.509526145644	163
3	712	1598.953138639408	164
3	713	1599.162040073682	165
3	716	1612.13849673687	166
3	717	1613.200224165259	167
3	720	1630.37779912547	168
3	723	1638.033991821878	169
3	726	1640.803095538066	170
3	732	1658.917783276086	171
3	735	1678.883742509487	172
3	738	1683.969861344494	173
3	747	1712.806272629125	174
3	750	1722.369741487663	175
3	753	1726.042472481391	176
3	759	1734.252566979127	177
3	765	1744.01644327937	178
3	774	1769.768186665026	179
3	780	1798.400052286211	180
3	790	1817.253288383733	181
3	791	1817.565801811101	182
3	792	1817.860258384955	183
3	800	1825.560043535677	184
3	801	1827.186887068968	185
3	807	1853.048427542868	186
3	824	1880.397789689216	187
3	825	1884.326234852216	188
3	826	1886.133900493973	189
3	827	1887.611144796854	190
3	828	1889.090365684761	191
3	836	1923.312119684253	192
3	839	1927.341676801771	193
3	840	1929.128694585068	194
3	843	1929.786826133163	195
3	846	1953.097417406819	196
3	849	1963.206022366897	197
3	852	1969.100922047782	198
3	855	1976.029249534202	199
3	858	1980.049237733523	200
3	870	1990.885745133642	201
3	881	2017.973714403317	202
3	884	2020.442488160491	203
3	887	2026.423199290098	204
3	888	2026.561880902385	205
3	889	2030.007949813413	206
3	890	2030.536227435043	207
3	891	2041.530862535009	208
3	899	2063.02690129282	209
3	900	2065.255510989847	210
3	906	2078.484446927783	211
3	911	2093.382934122175	212
3	915	2097.918596021431	213
3	921	2122.347612504237	214
3	945	2182.510072591547	215
3	948	2184.64379367421	216
3	962	2201.803693713968	217
3	963	2209.481477487082	218
3	966	2211.273467386093	219
3	971	2215.706530824176	220
3	974	2217.015825642286	221
3	975	2217.705442179191	222
3	976	2223.426436547653	223
3	982	2231.3350878268	224
3	983	2231.719762709569	225
3	984	2231.935669578289	226
3	985	2235.502283640092	227
3	986	2235.744235389732	228
3	987	2237.6143927528	229
3	990	2251.840053384935	230
3	996	2263.584639572516	231
3	1007	2281.784855347759	232
3	1008	2287.371804552898	233
3	1020	2312.538773997341	234
3	1026	2342.345368620805	235
3	1035	2361.116096914229	236
3	1040	2366.372317285231	237
3	1041	2368.69645625085	238
3	1049	2395.77659346854	239
3	1063	2415.578372193748	240
3	1064	2416.938422148105	241
3	1072	2426.572430960134	242
3	1076	2435.799752180565	243
3	1079	2438.38422607061	244
3	1082	2442.029576221127	245
3	1086	2454.193264941292	246
3	1094	2486.467355047382	247
3	1095	2494.736939865916	248
4	135	354.988010212333	0.430858356652
4	140	367.437653693906	3.613758862694
4	146	377.240930417918	7.865675100646
4	147	377.534796483337	6.949562611265
4	150	380.48252182178	0.800810923055
4	155	396.962941503147	0.570876303545
4	156	398.300033093933	1.817700764677
4	162	409.452396442505	3.489015772
4	165	411.728018954802	0.87772617679
4	175	425.656831155802	11.255970977966
4	176	429.074717394366	13.286041302565
4	177	430.928856115445	6.202158502591
4	183	459.289244941687	3.177377220111
4	196	485.435990821433	12.66075396644
4	197	487.726275178759	9.221427558332
4	198	491.01699377477	12.320065753759
4	209	509.224275486798	0.772499631031
4	210	509.260995722956	0.403287555683
4	219	529.321989003026	5.032179634876
4	225	553.539762304426	0.245032920233
4	231	575.679231315027	2.263734464728
4	236	583.707434073908	4.37972605467
4	237	584.699554704639	3.470340397422
4	244	591.533300242239	4.48179098805
4	245	591.922492378734	4.091923513252
4	246	597.496084991993	8.985837098923
4	249	598.14438510257	0.45264445422
4	254	607.55192205565	7.926017815936
4	255	615.857693202351	14.39289490493
4	258	623.615267506405	2.060060218154
4	261	642.835922032726	8.061399987293
4	264	653.560596173901	0.237284556059
4	267	659.095212753318	0.521914302141
4	275	698.293145496156	13.796733301366
4	276	698.354662597259	6.352418973664
4	282	718.68676266751	6.258707901128
4	285	740.73753779065	0.572135646333
4	294	762.106165397201	3.907095063326
4	308	772.493880101359	5.373487676143
4	311	777.128636464295	8.530280109946
4	312	780.908445765543	11.165029701151
4	315	783.302040422455	13.194492620671
4	316	783.360040785423	11.530086687554
4	319	785.430668910412	11.003123492372
4	320	787.585547359331	5.278968417929
4	321	788.733353765274	4.054596569548
4	331	807.061424671375	14.950800461525
4	334	809.996903072627	15.892977877354
4	335	811.80835634654	7.554081296826
4	340	816.042684469667	7.988736554963
4	341	818.595390558751	5.40823125274
4	342	825.092600574431	9.147397608458
4	354	849.021013143523	17.877222605966
4	355	854.455948537036	22.847468377191
4	356	855.205664458463	19.005151276906
4	359	858.393079839003	12.177784064817
4	362	862.448082171422	6.453355747879
4	366	867.177476251011	3.207402841836
4	373	878.21271781633	5.109859593789
4	374	878.769843689547	4.173266916611
4	375	885.171601988687	8.603021322097
4	378	888.154633140129	2.982293132877
4	381	889.887134510209	0.005541675573
4	384	896.356804644753	2.141600032003
4	390	902.782249917931	1.58478351259
4	393	909.670986416698	2.167093626293
4	413	936.551275967526	12.998878847038
4	414	937.82394724715	11.345546613769
4	415	938.311692707459	10.964969837301
4	418	939.750717232799	5.278632700371
4	419	943.952145579465	8.514434314807
4	420	944.996725294951	6.643323070581
4	425	950.136511138446	1.976660214034
4	426	952.482229521585	3.836719005828
4	435	995.394523054317	24.163219295407
4	441	998.283255708979	0.543757956253
4	444	1003.905692199028	1.658636401216
4	450	1005.843144156553	0.902363519672
4	453	1015.163522370448	0.07385926921
4	467	1042.932800806982	11.188083597505
4	468	1043.15905086168	9.289250494342
4	469	1044.090263025041	8.871634910852
4	470	1044.385684645261	2.279605276591
4	473	1045.993324866228	3.099990675878
4	474	1046.716683877931	1.80897377971
4	480	1060.438708982428	3.960481903757
4	496	1117.736134961007	36.200726041763
4	497	1118.541280830103	7.617261172279
4	509	1132.884289700795	13.660574383361
4	510	1133.524710689495	13.154283251836
4	513	1142.342101542927	4.241035005373
4	518	1166.16187848017	7.164109104347
4	519	1168.249127734746	3.859513631608
4	522	1177.552506042201	1.184124214816
4	541	1210.977892395936	8.701001649244
4	545	1220.359491688636	10.891893343041
4	546	1220.464961411127	8.381663164529
4	549	1233.860707085106	0.898847472685
4	554	1243.516574591763	6.532394002472
4	555	1244.059263907245	2.352309665372
4	561	1256.290433616611	6.093915703097
4	567	1273.774004397802	1.497877852327
4	573	1293.2470797061	5.623558697365
4	576	1307.398728639172	6.553605478385
4	579	1320.826315397655	0.247349410514
4	582	1335.466660530231	2.881874747843
4	585	1342.760289391144	1.119816491487
4	590	1354.092269908751	1.380012042488
4	591	1354.182656941885	0.58578448125
4	594	1356.519264633322	2.088801733327
4	599	1365.501387112406	1.976119294832
4	600	1366.106499844448	2.124479622368
4	605	1370.774244644749	3.975837909229
4	606	1371.201307713588	3.402508685331
4	609	1381.119892724894	0.131242423635
4	615	1392.343772227585	4.711372966682
4	624	1413.145063785583	7.199896606357
4	627	1427.058391822751	4.661716381009
4	632	1430.764463135407	1.13720737909
4	633	1433.344292828527	2.659204055671
4	643	1460.274334972857	19.97180981282
4	644	1460.63470599052	20.033138901866
4	648	1468.815753587498	6.260458852425
4	651	1470.575765931667	0.486154716984
4	654	1478.94155168459	1.085027754942
4	657	1480.594301159943	0.959997621736
4	660	1483.563927611195	2.546346363774
4	668	1500.085408902905	10.106043047355
4	669	1501.78556704545	2.272430064989
4	675	1530.18399382206	0.642349356777
4	681	1537.522081223714	3.460365738099
4	684	1544.164804676477	5.533878682919
4	700	1577.06850103574	23.619261762598
4	703	1584.254061975532	30.307307974146
4	704	1585.991068064968	27.492890726425
4	705	1586.213433080008	24.912927418637
4	706	1586.509526145644	24.04572571604
4	712	1598.953138639408	21.30103721952
4	713	1599.162040073682	8.691304851633
4	716	1612.13849673687	16.579881412829
4	717	1613.200224165259	10.412682725854
4	720	1630.37779912547	1.087452909248
4	723	1638.033991821878	0.265700328381
4	726	1640.803095538066	1.654413431913
4	732	1658.917783276086	1.208873653473
4	735	1678.883742509487	3.388250264219
4	738	1683.969861344494	1.785185551694
4	747	1712.806272629125	15.168548383794
4	750	1722.369741487663	8.117101095546
4	753	1726.042472481391	0.089476021945
4	759	1734.252566979127	1.161098329593
4	765	1744.01644327937	0.414142316158
4	774	1769.768186665026	0.031116371301
4	780	1798.400052286211	0.970402416857
4	790	1817.253288383733	7.246707247493
4	791	1817.565801811101	6.448332630974
4	792	1817.860258384955	5.132567045042
4	800	1825.560043535677	5.725836293875
4	801	1827.186887068968	3.357547140602
4	807	1853.048427542868	2.989997957418
4	824	1880.397789689216	10.256988360278
4	825	1884.326234852216	12.232484262077
4	826	1886.133900493973	9.727931870107
4	827	1887.611144796854	9.544296769592
4	828	1889.090365684761	8.928327846746
4	836	1923.312119684253	8.829506078185
4	839	1927.341676801771	6.460699043255
4	840	1929.128694585068	4.382034286736
4	843	1929.786826133163	0.051505384763
4	846	1953.097417406819	1.664311397656
4	849	1963.206022366897	2.125196434062
4	852	1969.100922047782	0.137230255547
4	855	1976.029249534202	1.324951533094
4	858	1980.049237733523	0.707011244303
4	870	1990.885745133642	7.047452020413
4	881	2017.973714403317	28.81710392084
4	884	2020.442488160491	30.092293643189
4	887	2026.423199290098	32.983428655943
4	888	2026.561880902385	30.78105525104
4	889	2030.007949813413	33.476835910529
4	890	2030.536227435043	10.734095788378
4	891	2041.530862535009	19.581451790557
4	899	2063.02690129282	2.147311439153
4	900	2065.255510989847	4.346612272545
4	906	2078.484446927783	7.805347340894
4	911	2093.382934122175	1.764952050938
4	915	2097.918596021431	4.37799133783
4	921	2122.347612504237	2.193565916535
4	945	2182.510072591547	49.151007889804
4	948	2184.64379367421	44.30015496827
4	962	2201.803693713968	36.343474295706
4	963	2209.481477487082	26.532943808886
4	966	2211.273467386093	22.060959278653
4	971	2215.706530824176	26.060348398345
4	974	2217.015825642286	23.1009475745
4	975	2217.705442179191	23.751278071285
4	976	2223.426436547653	28.865425234745
4	982	2231.3350878268	21.10607731901
4	983	2231.719762709569	19.918805300775
4	984	2231.935669578289	18.810653379713
4	985	2235.502283640092	18.684085463907
4	986	2235.744235389732	7.732823143146
4	987	2237.6143927528	6.544614774342
4	990	2251.840053384935	6.778015970699
4	996	2263.584639572516	2.703240609123
4	1007	2281.784855347759	4.639720690376
4	1008	2287.371804552898	7.157675425201
4	1020	2312.538773997341	7.373643554906
4	1026	2342.345368620805	8.392296857328
4	1035	2361.116096914229	0.326177338574
4	1040	2366.372317285231	3.673458220418
4	1041	2368.69645625085	5.052932880294
4	1049	2395.77659346854	3.558424238272
4	1063	2415.578372193748	14.923244664152
4	1064	2416.938422148105	12.236933031924
4	1072	2426.572430960134	7.604104046113
4	1076	2435.799752180565	12.399891652368
4	1079	2438.38422607061	11.373363126394
4	1082	2442.029576221127	4.653322971268
4	1086	2454.193264941292	10.75933634762
4	1094	2486.467355047382	6.3589473071
4	1095	2494.736939865916	14.115719769124
5	142	369.375255317272	1
5	158	404.258574086135	1
5	171	415.788676091801	1
5	179	443.919676013075	1
5	185	470.546870107225	1
5	193	480.431995840156	2
5	200	495.029730108993	1
5	203	500.513567475372	1
5	212	517.809300423735	1
5	215	521.192237302952	1
5	221	541.925002229654	1
5	227	567.695925539455	1
5	269	660.252978140038	1
5	278	709.366630100926	1
5	287	743.646848964604	1
5	290	756.458935907148	1
5	298	767.120392425216	1
5	323	789.815789590426	1
5	348	831.608480159845	1
5	364	863.970073409175	1
5	386	898.688180290939	1
5	395	910.944778126664	1
5	397	912.065066633432	2
5	409	934.472084532428	1
5	428	959.834294333765	1
5	430	963.034023953894	2
5	437	995.44102465029	1
5	446	1004.276199296497	1
5	455	1030.943152599568	1
5	476	1050.110245986447	1
5	482	1074.807943387107	1
5	486	1086.494175780376	2
5	489	1102.06552599861	2
5	499	1119.223715317434	1
5	503	1121.890324746436	2
5	506	1123.663479696237	2
5	524	1186.897939430832	1
5	526	1191.951539220539	2
5	532	1202.276890746692	1
5	536	1207.192094069512	2
5	543	1212.083298246598	1
5	557	1247.010455122903	1
5	565	1272.276126545475	1
5	569	1284.608791838486	1
5	613	1387.632399260903	1
5	617	1403.412013724196	1
5	621	1409.315926484005	2
5	637	1440.302525160037	1
5	646	1462.555294735073	1
5	662	1489.486066902343	1
5	671	1507.762238717833	1
5	677	1533.228522866138	1
5	692	1558.498177338543	1
5	708	1590.470735222049	1
5	728	1645.874418155944	1
5	740	1688.598277283569	1
5	742	1697.269698461538	2
5	755	1731.744765826945	1
5	761	1737.595552176882	1
5	767	1744.899527686484	1
5	770	1755.198627303625	1
5	776	1782.557906561692	1
5	784	1810.00658113624	1
5	796	1819.834207241802	1
5	803	1845.586409673488	1
5	809	1858.271437782732	1
5	812	1868.692586631094	1
5	830	1893.453134115984	1
5	864	1984.3531764257	1
5	872	1993.439770634155	1
5	878	2005.414674315447	2
5	893	2057.829292268349	1
5	902	2067.19127090892	1
5	913	2093.540604683601	1
5	917	2118.272495163052	1
5	923	2123.862463980623	1
5	925	2125.583614538701	2
5	931	2148.351335550223	3
5	936	2158.513685384924	3
5	938	2159.742235841395	4
5	950	2189.21250810744	1
5	978	2228.011412246586	1
5	992	2256.953625658148	1
5	998	2270.467559923692	1
5	1003	2277.145134657383	1
5	1010	2292.356304954715	1
5	1012	2296.559424856657	2
5	1015	2299.848805152245	2
5	1022	2312.593632662147	1
5	1028	2345.24593224152	1
5	1031	2353.399464487008	1
5	1043	2372.427930054302	1
5	1051	2398.96845263205	1
5	1056	2404.701489116181	1
5	1058	2408.893875339512	2
5	1066	2418.968326914021	1
5	1074	2427.010862944216	1
5	1084	2443.433928593672	1
5	1092	2480.621220096792	1
5	1097	2496.852317827315	1
6	142	369.375255317272	0
6	145	373.879184651171	0
6	158	404.258574086135	0
6	161	409.135381695178	0
6	171	415.788676091801	0
6	172	423.179376904119	0
6	179	443.919676013075	0
6	182	457.121458760955	0
6	185	470.546870107225	0
6	193	480.431995840156	1
6	194	481.130885634458	1
6	195	483.742136880528	0
6	200	495.029730108993	0
6	201	498.146837028424	0
6	203	500.513567475372	0
6	204	503.757921901871	0
6	212	517.809300423735	0
6	213	518.252669904668	0
6	215	521.192237302952	0
6	218	528.484405229962	0
6	221	541.925002229654	0
6	222	544.134234471488	0
6	227	567.695925539455	0
6	230	574.948036761525	0
6	269	660.252978140038	0
6	270	675.875334304131	0
6	278	709.366630100926	0
6	281	717.064407110693	0
6	287	743.646848964604	0
6	288	745.206958161511	0
6	290	756.458935907148	0
6	293	759.218878497593	0
6	298	767.120392425216	0
6	305	771.031482821439	0
6	323	789.815789590426	0
6	330	807.057315871453	0
6	348	831.608480159845	0
6	353	849.00663421975	0
6	364	863.970073409175	0
6	365	865.949991548917	0
6	386	898.688180290939	0
6	387	898.852074256528	0
6	395	910.944778126664	0
6	397	912.065066633432	1
6	400	919.975552691652	1
6	403	925.94036855499	0
6	409	934.472084532428	0
6	412	936.384572202334	0
6	428	959.834294333765	0
6	430	963.034023953894	1
6	433	979.323410178137	1
6	434	991.711032248549	0
6	437	995.44102465029	0
6	438	997.142452927342	0
6	446	1004.276199296497	0
6	449	1005.519157793383	0
6	455	1030.943152599568	0
6	462	1036.111676825833	0
6	476	1050.110245986447	0
6	479	1060.278131749906	0
6	482	1074.807943387107	0
6	486	1086.494175780376	1
6	487	1090.396941583769	1
6	489	1102.06552599861	1
6	490	1108.432233355869	1
6	491	1109.361159789568	0
6	499	1119.223715317434	0
6	503	1121.890324746436	1
6	504	1123.09579366783	1
6	506	1123.663479696237	1
6	507	1127.912970362238	1
6	508	1131.069132158194	0
6	524	1186.897939430832	0
6	526	1191.951539220539	1
6	527	1195.919517838663	1
6	528	1198.794792362476	0
6	532	1202.276890746692	0
6	536	1207.192094069512	1
6	537	1209.463790687551	1
6	540	1210.860461139053	0
6	543	1212.083298246598	0
6	544	1216.182506000487	0
6	557	1247.010455122903	0
6	558	1247.698722521208	0
6	565	1272.276126545475	0
6	566	1273.766078390264	0
6	569	1284.608791838486	0
6	572	1288.892359057906	0
6	613	1387.632399260903	0
6	614	1392.018907553345	0
6	617	1403.412013724196	0
6	621	1409.315926484005	1
6	622	1409.594488667959	1
6	623	1412.62236977107	0
6	637	1440.302525160037	0
6	642	1459.93913027083	0
6	646	1462.555294735073	0
6	647	1466.773412105189	0
6	662	1489.486066902343	0
6	665	1492.273731521513	0
6	671	1507.762238717833	0
6	672	1510.723206122173	0
6	677	1533.228522866138	0
6	680	1535.332410730452	0
6	692	1558.498177338543	0
6	699	1570.325920848247	0
6	708	1590.470735222049	0
6	709	1594.315512307498	0
6	728	1645.874418155944	0
6	729	1655.389201252372	0
6	740	1688.598277283569	0
6	742	1697.269698461538	1
6	745	1709.190496183648	1
6	746	1711.640150520499	0
6	755	1731.744765826945	0
6	756	1733.031343914108	0
6	761	1737.595552176882	0
6	762	1743.121164603029	0
6	767	1744.899527686484	0
6	768	1745.900434924241	0
6	770	1755.198627303625	0
6	771	1757.298332970767	0
6	776	1782.557906561692	0
6	777	1783.124719867562	0
6	784	1810.00658113624	0
6	789	1813.926207029395	0
6	796	1819.834207241802	0
6	799	1824.984692359989	0
6	803	1845.586409673488	0
6	804	1848.416350716367	0
6	809	1858.271437782732	0
6	810	1860.685323143484	0
6	812	1868.692586631094	0
6	817	1875.655322523061	0
6	830	1893.453134115984	0
6	831	1895.613010106632	0
6	864	1984.3531764257	0
6	865	1987.360030182384	0
6	872	1993.439770634155	0
6	878	2005.414674315447	1
6	879	2009.938237655829	1
6	880	2013.932538834711	0
6	893	2057.829292268349	0
6	898	2061.52128979755	0
6	902	2067.19127090892	0
6	905	2075.449876627895	0
6	913	2093.540604683601	0
6	914	2097.067418616707	0
6	917	2118.272495163052	0
6	920	2121.735152665867	0
6	923	2123.862463980623	0
6	925	2125.583614538701	1
6	931	2148.351335550223	2
6	934	2151.71343808112	2
6	936	2158.513685384924	2
6	938	2159.742235841395	3
6	941	2167.111765687112	3
6	942	2177.367426053299	2
6	943	2178.660938082772	1
6	944	2181.394420470128	0
6	950	2189.21250810744	0
6	959	2197.996519126697	0
6	978	2228.011412246586	0
6	979	2230.332948746516	0
6	992	2256.953625658148	0
6	993	2260.521012522931	0
6	998	2270.467559923692	0
6	1001	2275.024637924153	0
6	1003	2277.145134657383	0
6	1006	2280.758591196012	0
6	1010	2292.356304954715	0
6	1012	2296.559424856657	1
6	1013	2298.701532792968	1
6	1015	2299.848805152245	1
6	1018	2305.241575243413	1
6	1019	2312.196212062494	0
6	1022	2312.593632662147	0
6	1023	2317.403906710574	0
6	1028	2345.24593224152	0
6	1029	2347.195528567834	0
6	1031	2353.399464487008	0
6	1032	2356.883130044317	0
6	1043	2372.427930054302	0
6	1044	2375.804865220702	0
6	1051	2398.96845263205	0
6	1052	2398.977733970859	0
6	1056	2404.701489116181	0
6	1058	2408.893875339512	1
6	1061	2411.854064320865	1
6	1062	2412.483263496037	0
6	1066	2418.968326914021	0
6	1067	2422.731361348289	0
6	1074	2427.010862944216	0
6	1075	2435.043486394581	0
6	1084	2443.433928593672	0
6	1085	2453.327238660816	0
6	1092	2480.621220096792	0
6	1093	2485.451134323738	0
6	1097	2496.852317827315	0
7	142	369.375255317272	6
7	171	415.788676091801	7
7	298	767.120392425216	8
7	348	831.608480159845	9
7	364	863.970073409175	10
7	409	934.472084532428	11
7	499	1119.223715317434	12
7	532	1202.276890746692	13
7	543	1212.083298246598	14
7	565	1272.276126545475	15
7	613	1387.632399260903	16
7	637	1440.302525160037	17
7	646	1462.555294735073	18
7	692	1558.498177338543	19
7	708	1590.470735222049	20
7	784	1810.00658113624	21
7	796	1819.834207241802	22
7	864	1984.3531764257	23
7	872	1993.439770634155	24
7	913	2093.540604683601	25
7	950	2189.21250810744	26
7	978	2228.011412246586	27
7	1003	2277.145134657383	28
7	1051	2398.96845263205	29
7	1056	2404.701489116181	30
7	1066	2418.968326914021	31
7	1074	2427.010862944216	32
7	1084	2443.433928593672	33
7	1092	2480.621220096792	34
8	142	369.375255317272	0
8	158	404.258574086135	0
8	171	415.788676091801	0
8	179	443.919676013075	0
8	185	470.546870107225	0
8	194	481.130885634458	0.698889794302
8	200	495.029730108993	0
8	203	500.513567475372	0
8	212	517.809300423735	0
8	215	521.192237302952	0
8	221	541.925002229654	0
8	227	567.695925539455	0
8	269	660.252978140038	0
8	278	709.366630100926	0
8	287	743.646848964604	0
8	290	756.458935907148	0
8	298	767.120392425216	0
8	323	789.815789590426	0
8	348	831.608480159845	0
8	364	863.970073409175	0
8	386	898.688180290939	0
8	395	910.944778126664	0
8	400	919.975552691652	7.91048605822
8	409	934.472084532428	0
8	428	959.834294333765	0
8	433	979.323410178137	16.289386224243
8	437	995.44102465029	0
8	446	1004.276199296497	0
8	455	1030.943152599568	0
8	476	1050.110245986447	0
8	482	1074.807943387107	0
8	487	1090.396941583769	3.902765803393
8	490	1108.432233355869	6.366707357259
8	499	1119.223715317434	0
8	504	1123.09579366783	1.205468921394
8	507	1127.912970362238	4.249490666001
8	524	1186.897939430832	0
8	527	1195.919517838663	3.967978618124
8	532	1202.276890746692	0
8	537	1209.463790687551	2.271696618039
8	543	1212.083298246598	0
8	557	1247.010455122903	0
8	565	1272.276126545475	0
8	569	1284.608791838486	0
8	613	1387.632399260903	0
8	617	1403.412013724196	0
8	622	1409.594488667959	0.278562183954
8	637	1440.302525160037	0
8	646	1462.555294735073	0
8	662	1489.486066902343	0
8	671	1507.762238717833	0
8	677	1533.228522866138	0
8	692	1558.498177338543	0
8	708	1590.470735222049	0
8	728	1645.874418155944	0
8	740	1688.598277283569	0
8	745	1709.190496183648	11.92079772211
8	755	1731.744765826945	0
8	761	1737.595552176882	0
8	767	1744.899527686484	0
8	770	1755.198627303625	0
8	776	1782.557906561692	0
8	784	1810.00658113624	0
8	796	1819.834207241802	0
8	803	1845.586409673488	0
8	809	1858.271437782732	0
8	812	1868.692586631094	0
8	830	1893.453134115984	0
8	864	1984.3531764257	0
8	872	1993.439770634155	0
8	879	2009.938237655829	4.523563340382
8	893	2057.829292268349	0
8	902	2067.19127090892	0
8	913	2093.540604683601	0
8	917	2118.272495163052	0
8	923	2123.862463980623	0
8	934	2151.71343808112	26.129823542419
8	941	2167.111765687112	18.760430136889
8	942	2177.367426053299	18.853740668375
8	943	2178.660938082772	18.918702241377
8	950	2189.21250810744	0
8	978	2228.011412246586	0
8	992	2256.953625658148	0
8	998	2270.467559923692	0
8	1003	2277.145134657383	0
8	1010	2292.356304954715	0
8	1013	2298.701532792968	2.142107936311
8	1018	2305.241575243413	5.392770091168
8	1022	2312.593632662147	0
8	1028	2345.24593224152	0
8	1031	2353.399464487008	0
8	1043	2372.427930054302	0
8	1051	2398.96845263205	0
8	1056	2404.701489116181	0
8	1061	2411.854064320865	2.960188981353
8	1066	2418.968326914021	0
8	1074	2427.010862944216	0
8	1084	2443.433928593672	0
8	1092	2480.621220096792	0
8	1097	2496.852317827315	0
9	145	373.879184651171	19
9	161	409.135381695178	20
9	172	423.179376904119	21
9	182	457.121458760955	22
9	194	481.130885634458	23
9	195	483.742136880528	24
9	201	498.146837028424	25
9	204	503.757921901871	26
9	213	518.252669904668	27
9	218	528.484405229962	28
9	222	544.134234471488	29
9	230	574.948036761525	30
9	270	675.875334304131	31
9	281	717.064407110693	32
9	288	745.206958161511	33
9	293	759.218878497593	34
9	305	771.031482821439	35
9	330	807.057315871453	36
9	353	849.00663421975	37
9	365	865.949991548917	38
9	387	898.852074256528	39
9	400	919.975552691652	40
9	403	925.94036855499	41
9	412	936.384572202334	42
9	433	979.323410178137	43
9	434	991.711032248549	44
9	438	997.142452927342	45
9	449	1005.519157793383	46
9	462	1036.111676825833	47
9	479	1060.278131749906	48
9	487	1090.396941583769	49
9	490	1108.432233355869	50
9	491	1109.361159789568	51
9	504	1123.09579366783	52
9	507	1127.912970362238	53
9	508	1131.069132158194	54
9	527	1195.919517838663	55
9	528	1198.794792362476	56
9	537	1209.463790687551	57
9	540	1210.860461139053	58
9	544	1216.182506000487	59
9	558	1247.698722521208	60
9	566	1273.766078390264	61
9	572	1288.892359057906	62
9	614	1392.018907553345	63
9	622	1409.594488667959	64
9	623	1412.62236977107	65
9	642	1459.93913027083	66
9	647	1466.773412105189	67
9	665	1492.273731521513	68
9	672	1510.723206122173	69
9	680	1535.332410730452	70
9	699	1570.325920848247	71
9	709	1594.315512307498	72
9	729	1655.389201252372	73
9	745	1709.190496183648	74
9	746	1711.640150520499	75
9	756	1733.031343914108	76
9	762	1743.121164603029	77
9	768	1745.900434924241	78
9	771	1757.298332970767	79
9	777	1783.124719867562	80
9	789	1813.926207029395	81
9	799	1824.984692359989	82
9	804	1848.416350716367	83
9	810	1860.685323143484	84
9	817	1875.655322523061	85
9	831	1895.613010106632	86
9	865	1987.360030182384	87
9	879	2009.938237655829	88
9	880	2013.932538834711	89
9	898	2061.52128979755	90
9	905	2075.449876627895	91
9	914	2097.067418616707	92
9	920	2121.735152665867	93
9	934	2151.71343808112	94
9	941	2167.111765687112	95
9	942	2177.367426053299	96
9	943	2178.660938082772	97
9	944	2181.394420470128	98
9	959	2197.996519126697	99
9	979	2230.332948746516	100
9	993	2260.521012522931	101
9	1001	2275.024637924153	102
9	1006	2280.758591196012	103
9	1013	2298.701532792968	104
9	1018	2305.241575243413	105
9	1019	2312.196212062494	106
9	1023	2317.403906710574	107
9	1029	2347.195528567834	108
9	1032	2356.883130044317	109
9	1044	2375.804865220702	110
9	1052	2398.977733970859	111
9	1061	2411.854064320865	112
9	1062	2412.483263496037	113
9	1067	2422.731361348289	114
9	1075	2435.043486394581	115
9	1085	2453.327238660816	116
9	1093	2485.451134323738	117
10	145	373.879184651171	4.503929333899
10	161	409.135381695178	4.876807609043
10	172	423.179376904119	7.390700812318
10	182	457.121458760955	13.20178274788
10	194	481.130885634458	10.584015527233
10	195	483.742136880528	3.310141040372
10	201	498.146837028424	3.117106919431
10	204	503.757921901871	3.244354426499
10	213	518.252669904668	0.443369480933
10	218	528.484405229962	7.29216792701
10	222	544.134234471488	2.209232241834
10	230	574.948036761525	7.25211122207
10	270	675.875334304131	15.622356164093
10	281	717.064407110693	7.697777009767
10	288	745.206958161511	1.560109196907
10	293	759.218878497593	2.759942590445
10	305	771.031482821439	3.911090396223
10	330	807.057315871453	17.241526281027
10	353	849.00663421975	17.398154059905
10	365	865.949991548917	1.979918139742
10	387	898.852074256528	0.163893965589
10	400	919.975552691652	9.030774564988
10	403	925.94036855499	13.875301921558
10	412	936.384572202334	1.912487669906
10	433	979.323410178137	19.489115844372
10	434	991.711032248549	28.677008294655
10	438	997.142452927342	1.701428277052
10	449	1005.519157793383	1.242958496886
10	462	1036.111676825833	5.168524226265
10	479	1060.278131749906	10.167885763459
10	487	1090.396941583769	15.588998196662
10	490	1108.432233355869	21.938057575493
10	491	1109.361159789568	7.295633790958
10	504	1123.09579366783	3.872078350396
10	507	1127.912970362238	6.022645615802
10	508	1131.069132158194	7.405652461957
10	527	1195.919517838663	9.021578407831
10	528	1198.794792362476	6.843253141937
10	537	1209.463790687551	7.186899940859
10	540	1210.860461139053	3.668367069541
10	544	1216.182506000487	4.099207753889
10	558	1247.698722521208	0.688267398305
10	566	1273.766078390264	1.489951844789
10	572	1288.892359057906	4.28356721942
10	614	1392.018907553345	4.386508292442
10	622	1409.594488667959	6.182474943763
10	623	1412.62236977107	3.306443287065
10	642	1459.93913027083	19.636605110793
10	647	1466.773412105189	4.218117370116
10	665	1492.273731521513	2.78766461917
10	672	1510.723206122173	2.96096740434
10	680	1535.332410730452	2.103887864314
10	699	1570.325920848247	11.827743509704
10	709	1594.315512307498	3.844777085449
10	729	1655.389201252372	9.514783096428
10	745	1709.190496183648	20.592218900079
10	746	1711.640150520499	14.370452058961
10	756	1733.031343914108	1.286578087163
10	762	1743.121164603029	5.525612426147
10	768	1745.900434924241	1.000907237757
10	771	1757.298332970767	2.099705667142
10	777	1783.124719867562	0.56681330587
10	789	1813.926207029395	3.919625893155
10	799	1824.984692359989	5.150485118187
10	804	1848.416350716367	2.829941042879
10	810	1860.685323143484	2.413885360752
10	817	1875.655322523061	6.962735891967
10	831	1895.613010106632	2.159875990648
10	865	1987.360030182384	3.006853756684
10	879	2009.938237655829	16.498467021674
10	880	2013.932538834711	8.517864519264
10	898	2061.52128979755	3.691997529201
10	905	2075.449876627895	8.258605718975
10	914	2097.067418616707	3.526813933106
10	920	2121.735152665867	3.462657502815
10	934	2151.71343808112	27.850974100497
10	941	2167.111765687112	41.528151148411
10	942	2177.367426053299	29.016090503076
10	943	2178.660938082772	20.147252697848
10	944	2181.394420470128	21.652184628733
10	959	2197.996519126697	8.784011019257
10	979	2230.332948746516	2.32153649993
10	993	2260.521012522931	3.567386864783
10	1001	2275.024637924153	4.557078000461
10	1006	2280.758591196012	3.613456538629
10	1013	2298.701532792968	6.345227838253
10	1018	2305.241575243413	8.682150386756
10	1019	2312.196212062494	12.347406910249
10	1023	2317.403906710574	4.810274048427
10	1029	2347.195528567834	1.949596326314
10	1032	2356.883130044317	3.483665557309
10	1044	2375.804865220702	3.3769351664
10	1052	2398.977733970859	0.009281338809
10	1061	2411.854064320865	7.152575204684
10	1062	2412.483263496037	3.589388156525
10	1067	2422.731361348289	3.763034434268
10	1075	2435.043486394581	8.032623450365
10	1085	2453.327238660816	9.893310067144
10	1093	2485.451134323738	4.829914226946
11	1098	2500	0.0992
12	1098	2500	0.0468

