version 2
run experiments_easy_game_mode1-691-20230308-12:04:18-21891
attr configname experiments_easy_game_mode1
attr datetime 20230308-12:04:18
attr experiment experiments_easy_game_mode1
attr inifile omnetpp.ini
attr iterationvars "$0=5.5, $1=3.5, $2=100"
attr iterationvarsf 5.5,3.5,100-
attr measurement "$0=5.5, $1=3.5, $2=100"
attr network Network
attr processid 21891
attr repetition 1
attr replication #1
attr resultdir results
attr runnumber 691
attr seedset 1
param *.boss.arrival_mean 20
param *.boss.service_mean 5.5
param *.minion.arrival_mean 10
param *.minion.service_mean 3.5
param *.player.recover_rate_x 100
param **.minion.arrival_distribution 0
param **.minion.service_distribution 0
param **.boss.arrival_distribution 0
param **.boss.service_distribution 0

vector 0 Network.player minion_jobs_number_stat:vector ETV
attr source signal_minion_jobs_number
vector 1 Network.player minion_jobs_queue_number_stat:vector ETV
attr source signal_minion_jobs_queue_number
vector 2 Network.player minion_waiting_time_stat:vector ETV
attr source signal_minion_waiting_time
vector 3 Network.player minion_defeated_stat:vector ETV
attr source signal_minion_defeated
vector 4 Network.player minion_response_time_stat:vector ETV
attr source signal_minion_response_time
vector 5 Network.player boss_jobs_number_stat:vector ETV
attr source signal_boss_jobs_number
vector 6 Network.player boss_jobs_queue_number_stat:vector ETV
attr source signal_boss_jobs_queue_number
vector 7 Network.player minion_recovered_stat:vector ETV
attr source signal_minion_recovered
vector 8 Network.player boss_waiting_time_stat:vector ETV
attr source signal_boss_waiting_time
vector 9 Network.player boss_defeated_stat:vector ETV
attr source signal_boss_defeated
vector 10 Network.player boss_response_time_stat:vector ETV
attr source signal_boss_response_time
vector 11 Network.player minion_throughput:vector ETV
attr source signal_minion_throughput
vector 12 Network.player boss_throughput:vector ETV
attr source signal_boss_throughput
0	134	354.557151855681	1
0	137	363.823894831212	1
0	139	365.613274632813	2
0	144	370.585233872072	2
0	147	379.681710898725	3
0	152	396.392065199602	1
0	154	396.482332329256	2
0	160	405.963380670505	1
0	164	410.850292778012	1
0	167	413.949212177533	1
0	169	414.400860177836	2
0	174	424.726697612854	3
0	182	456.111867721576	1
0	187	472.775236854993	1
0	189	478.504847620427	2
0	191	478.696928021011	3
0	206	508.451775855767	1
0	208	508.857708167273	2
0	217	524.28980936815	1
0	224	553.294729384193	1
0	229	573.415496850299	1
0	233	579.327708019238	1
0	235	581.229214307217	2
0	239	587.051509254189	1
0	241	587.830568865482	2
0	243	588.51024789307	3
0	247	597.69174064835	2
0	249	599.625904239714	3
0	251	601.464798297421	4
0	256	621.555207288251	2
0	260	634.774522045433	1
0	263	653.323311617842	1
0	266	658.573298451177	1
0	272	684.49641219479	1
0	274	692.002243623595	2
0	280	712.428054766382	1
0	284	740.165402144317	1
0	292	758.199070333875	1
0	296	765.574160589746	1
0	300	768.598356354349	2
0	302	769.743416064392	3
0	304	770.107547801784	4
0	307	771.829954097869	5
0	310	774.42754541804	5
0	313	782.306578941402	5
0	315	784.678757195726	6
0	322	792.11062420985	4
0	324	794.103925195273	5
0	326	804.254275049714	6
0	330	808.053947914704	6
0	335	813.187159306011	4
0	337	815.945202965973	5
0	342	826.437857566554	3
0	345	831.143790537557	3
0	349	836.200513181557	4
0	351	846.215295774186	5
0	354	855.994726423543	6
0	356	858.518294259223	7
0	365	873.102858222541	4
0	367	874.596576772936	5
0	369	876.56858066659	6
0	373	885.172340007252	5
0	376	889.881592834636	5
0	378	894.21520461275	6
0	385	901.197466405341	5
0	390	907.503892790405	3
0	397	919.108782958971	4
0	399	923.552397120488	5
0	403	926.478400633381	5
0	405	927.346722870158	6
0	411	935.437711264658	5
0	416	938.35340222437	4
0	419	948.159850924412	4
0	421	948.645510515757	5
0	429	971.23130375891	4
0	439	997.739497752726	2
0	443	1002.247055797812	1
0	447	1004.940780636881	2
0	452	1015.089663101238	1
0	457	1031.744717209477	1
0	459	1033.869800367338	2
0	461	1035.218628114189	3
0	464	1042.10607936867	4
0	466	1042.89333419035	5
0	469	1044.907710098221	5
0	477	1056.478227078671	2
0	484	1081.535408919244	1
0	493	1110.924019657824	2
0	496	1116.577226252923	2
0	501	1120.370427437659	2
0	512	1138.101066537554	1
0	515	1158.997769375823	1
0	517	1164.389614103138	2
0	521	1176.368381827385	1
0	530	1199.872236254162	1
0	534	1204.278596782078	2
0	539	1209.467598345595	3
0	548	1232.961859612421	1
0	551	1236.984180589291	1
0	553	1241.706954241873	2
0	560	1250.196517913514	1
0	563	1268.951555771959	1
0	571	1287.623521008735	1
0	575	1300.845123160787	1
0	578	1320.578965987141	1
0	581	1332.584785782388	1
0	584	1341.640472899657	1
0	587	1352.712257866263	1
0	589	1353.596872460635	2
0	591	1354.430462899995	3
0	596	1363.525267817574	1
0	598	1363.98202022208	2
0	601	1366.79840673552	2
0	604	1367.798799028257	2
0	608	1380.988650301259	1
0	611	1383.440373029984	1
0	619	1405.945167179226	1
0	626	1422.396675441742	1
0	629	1429.627255756317	1
0	631	1430.685088772856	2
0	635	1439.937483048556	1
0	639	1440.601567088654	2
0	641	1441.274379830186	3
0	650	1470.089611214683	1
0	653	1477.856523929648	1
0	656	1479.634303538207	1
0	659	1481.017581247421	1
0	664	1489.97936585555	1
0	667	1499.513136980461	2
0	674	1529.541644465283	1
0	679	1534.061715485615	1
0	683	1538.630925993558	1
0	686	1553.230681240834	1
0	688	1553.449239273142	2
0	690	1553.946754001386	3
0	694	1561.300505661371	4
0	696	1562.463800429604	5
0	698	1566.131236080638	6
0	701	1577.652101419888	7
0	710	1595.558615324041	4
0	713	1602.787541439405	4
0	717	1629.290346216222	3
0	722	1637.768291493497	1
0	725	1639.148682106153	1
0	731	1657.708909622613	1
0	734	1675.495492245268	1
0	737	1682.1846757928	1
0	744	1697.637724245331	1
0	749	1714.252640392117	1
0	752	1725.952996459446	1
0	758	1733.091468649534	1
0	764	1743.602300963212	1
0	773	1769.737070293725	1
0	779	1797.429649869354	1
0	782	1808.423608925901	1
0	786	1811.117469180127	2
0	788	1812.727691339913	3
0	791	1819.29507133408	4
0	796	1823.829339928366	4
0	806	1850.05842958545	1
0	814	1870.140801328938	1
0	816	1872.093750590139	2
0	819	1876.405968623866	3
0	821	1878.066848027262	4
0	823	1880.162037838015	5
0	833	1914.482613606068	1
0	835	1920.880977758516	2
0	837	1924.746660298332	3
0	840	1929.7353207484	3
0	845	1951.433106009163	1
0	848	1961.080825932835	1
0	851	1968.963691792235	1
0	854	1974.704298001108	1
0	857	1979.34222648922	1
0	860	1982.36574677823	1
0	862	1983.838293113229	2
0	867	1989.156610482477	3
0	869	1990.350194517302	4
0	874	1995.780825651345	4
0	876	1996.531113902884	5
0	883	2019.802131646665	5
0	886	2021.949410744452	5
0	895	2060.879589853667	1
0	897	2060.908898717302	2
0	904	2070.679099586889	1
0	908	2091.617982071237	1
0	910	2092.486468161446	2
0	919	2120.154046587702	1
0	927	2133.359064701743	1
0	929	2140.34363870594	2
0	934	2151.696984518615	3
0	941	2165.460219418262	4
0	948	2182.948533678196	3
0	953	2189.646182425831	3
0	955	2193.914878067786	4
0	957	2193.954164107906	5
0	959	2194.561011312908	6
0	962	2200.766102351387	7
0	965	2210.22901050779	7
0	968	2211.800957408794	7
0	970	2213.125016198576	8
0	972	2216.818198176185	9
0	981	2231.069777978458	6
0	988	2245.062037414236	2
0	995	2260.881398963393	1
0	1001	2274.961049532209	1
0	1006	2280.214129127697	2
0	1018	2305.165130442435	1
0	1025	2333.953071763477	1
0	1034	2360.789919575655	1
0	1037	2362.698859064813	1
0	1039	2363.643523370556	2
0	1046	2392.218169230268	1
0	1048	2394.39108518217	2
0	1054	2400.655127529596	2
0	1060	2408.898363050178	3
0	1068	2423.295046423066	3
0	1070	2423.399860528197	4
0	1075	2437.376253249859	5
0	1077	2439.988562019943	6
0	1088	2479.732826589049	1
0	1090	2480.108407740282	2
1	134	354.557151855681	0
1	135	355.160353554994	0
1	137	363.823894831212	0
1	139	365.613274632813	1
1	140	368.883157238984	1
1	144	370.585233872072	1
1	147	379.681710898725	2
1	148	380.572718584494	2
1	149	380.984131076081	1
1	150	382.105266368359	0
1	152	396.392065199602	0
1	154	396.482332329256	1
1	155	397.191292024564	1
1	156	399.063220251664	0
1	160	405.963380670505	0
1	162	408.828924247737	0
1	164	410.850292778012	0
1	165	412.079109425518	0
1	167	413.949212177533	0
1	169	414.400860177836	1
1	174	424.726697612854	2
1	175	425.510781962272	2
1	176	432.411358307122	1
1	177	435.007152516632	0
1	182	456.111867721576	0
1	183	459.146768374601	0
1	187	472.775236854993	0
1	189	478.504847620427	1
1	191	478.696928021011	2
1	196	485.847914225548	2
1	197	490.454920259964	1
1	198	492.462048381388	0
1	206	508.451775855767	0
1	208	508.857708167273	1
1	209	509.533275339211	1
1	210	509.584683669832	0
1	217	524.28980936815	0
1	219	528.53515052348	0
1	224	553.294729384193	0
1	225	553.637775472519	0
1	229	573.415496850299	0
1	231	574.855999717648	0
1	233	579.327708019238	0
1	235	581.229214307217	1
1	236	585.459324495776	1
1	237	586.848293378799	0
1	239	587.051509254189	0
1	241	587.830568865482	1
1	243	588.51024789307	2
1	244	593.326016637458	2
1	245	593.870885628551	1
1	247	597.69174064835	1
1	249	599.625904239714	2
1	251	601.464798297421	3
1	252	601.673915287114	3
1	253	602.307617523022	2
1	254	613.404042465333	1
1	256	621.555207288251	1
1	257	625.032122070715	1
1	258	627.916206376131	0
1	260	634.774522045433	0
1	261	646.060482027643	0
1	263	653.323311617842	0
1	264	653.655509996325	0
1	266	658.573298451177	0
1	267	659.303978474175	0
1	272	684.49641219479	0
1	274	692.002243623595	1
1	275	703.811838816702	1
1	276	703.897962758246	0
1	280	712.428054766382	0
1	282	718.151431504118	0
1	284	740.165402144317	0
1	285	740.966392049183	0
1	292	758.199070333875	0
1	294	762.836473604668	0
1	296	765.574160589746	0
1	300	768.598356354349	1
1	302	769.743416064392	2
1	304	770.107547801784	3
1	307	771.829954097869	4
1	308	774.074244108967	4
1	310	774.42754541804	4
1	311	780.562903017078	4
1	313	782.306578941402	4
1	315	784.678757195726	5
1	316	785.854636038825	5
1	317	789.205668558501	4
1	318	789.286869066656	3
1	322	792.11062420985	3
1	324	794.103925195273	4
1	326	804.254275049714	5
1	328	807.421603195166	5
1	330	808.053947914704	5
1	331	809.028532163487	5
1	332	811.83090634309	4
1	333	811.83665866298	3
1	335	813.187159306011	3
1	337	815.945202965973	4
1	338	815.946328424733	4
1	339	818.482363008212	3
1	340	824.41042238059	2
1	342	826.437857566554	2
1	343	827.984210905308	2
1	345	831.143790537557	2
1	349	836.200513181557	3
1	351	846.215295774186	4
1	354	855.994726423543	5
1	356	858.518294259223	6
1	357	861.177776315137	6
1	358	861.197906808419	5
1	362	866.694991048185	4
1	363	871.157372580941	3
1	365	873.102858222541	3
1	367	874.596576772936	4
1	369	876.56858066659	5
1	370	876.834375846328	5
1	371	880.683642162114	4
1	373	885.172340007252	4
1	374	887.331377370423	4
1	376	889.881592834636	4
1	378	894.21520461275	5
1	379	894.485180801728	5
1	380	895.265157024232	4
1	385	901.197466405341	4
1	386	903.002070186311	4
1	387	903.009828532114	3
1	388	906.008068576919	2
1	390	907.503892790405	2
1	397	919.108782958971	3
1	399	923.552397120488	4
1	401	925.852051560566	4
1	403	926.478400633381	4
1	405	927.346722870158	5
1	406	928.885982637377	5
1	407	933.357454431062	4
1	411	935.437711264658	4
1	413	936.32372860131	4
1	414	938.105468392783	3
1	416	938.35340222437	3
1	417	938.788312037215	3
1	419	948.159850924412	3
1	421	948.645510515757	4
1	422	952.658345446017	4
1	423	958.54034513135	3
1	429	971.23130375891	3
1	432	989.574243022844	3
1	433	992.858248759238	2
1	434	993.175767543745	1
1	439	997.739497752726	1
1	440	1001.042526192345	1
1	441	1001.803787331099	0
1	443	1002.247055797812	0
1	447	1004.940780636881	1
1	449	1005.876871033634	1
1	450	1006.330451942072	0
1	452	1015.089663101238	0
1	453	1015.193066078132	0
1	457	1031.744717209477	0
1	459	1033.869800367338	1
1	461	1035.218628114189	2
1	464	1042.10607936867	3
1	466	1042.89333419035	4
1	467	1044.866092826169	4
1	469	1044.907710098221	4
1	470	1045.182842902747	4
1	471	1046.486539931452	3
1	472	1046.90013019976	2
1	473	1049.150826509113	1
1	477	1056.478227078671	1
1	479	1058.817604429144	1
1	480	1059.042412554675	0
1	484	1081.535408919244	0
1	493	1110.924019657824	1
1	494	1115.770245583051	1
1	496	1116.577226252923	1
1	497	1116.897449799786	1
1	501	1120.370427437659	1
1	509	1131.195752439342	1
1	510	1132.092341823523	0
1	512	1138.101066537554	0
1	513	1144.038515545077	0
1	515	1158.997769375823	0
1	517	1164.389614103138	1
1	518	1169.027522121909	1
1	519	1171.949671078315	0
1	521	1176.368381827385	0
1	522	1178.026155728127	0
1	530	1199.872236254162	0
1	534	1204.278596782078	1
1	539	1209.467598345595	2
1	541	1211.43319548845	2
1	545	1221.399638617144	1
1	546	1222.845556276896	0
1	548	1232.961859612421	0
1	549	1234.22024607418	0
1	551	1236.984180589291	0
1	553	1241.706954241873	1
1	554	1246.129532192752	1
1	555	1246.889297234426	0
1	560	1250.196517913514	0
1	561	1258.727999897849	0
1	563	1268.951555771959	0
1	567	1275.833305082111	0
1	571	1287.623521008735	0
1	573	1294.329957623928	0
1	575	1300.845123160787	0
1	576	1310.020170830526	0
1	578	1320.578965987141	0
1	579	1320.92525516186	0
1	581	1332.584785782388	0
1	582	1336.619410429368	0
1	584	1341.640472899657	0
1	585	1343.208215987739	0
1	587	1352.712257866263	0
1	589	1353.596872460635	1
1	591	1354.430462899995	2
1	592	1354.644274725746	2
1	593	1354.770816572133	1
1	594	1357.695138998791	0
1	596	1363.525267817574	0
1	598	1363.98202022208	1
1	599	1366.291834830339	1
1	601	1366.79840673552	1
1	602	1367.138992655197	1
1	604	1367.798799028257	1
1	605	1372.705165728118	1
1	606	1373.303054024493	0
1	608	1380.988650301259	0
1	609	1381.172389694348	0
1	611	1383.440373029984	0
1	615	1394.888759866198	0
1	619	1405.945167179226	0
1	624	1411.991560715841	0
1	626	1422.396675441742	0
1	627	1428.923078375154	0
1	629	1429.627255756317	0
1	631	1430.685088772856	1
1	632	1431.219346087043	1
1	633	1434.831107657412	0
1	635	1439.937483048556	0
1	639	1440.601567088654	1
1	641	1441.274379830186	2
1	643	1457.762532317435	2
1	644	1458.267051742163	1
1	648	1468.358101616645	0
1	650	1470.089611214683	0
1	651	1470.77022781846	0
1	653	1477.856523929648	0
1	654	1479.375562786567	0
1	656	1479.634303538207	0
1	657	1480.978300208637	0
1	659	1481.017581247421	0
1	660	1484.582466156705	0
1	664	1489.97936585555	0
1	667	1499.513136980461	1
1	668	1502.781208375588	1
1	669	1505.161429775151	0
1	674	1529.541644465283	0
1	675	1530.44093356477	0
1	679	1534.061715485615	0
1	681	1538.07427436497	0
1	683	1538.630925993558	0
1	684	1546.378356149644	0
1	686	1553.230681240834	0
1	688	1553.449239273142	1
1	690	1553.946754001386	2
1	694	1561.300505661371	3
1	696	1562.463800429604	4
1	698	1566.131236080638	5
1	701	1577.652101419888	6
1	702	1577.945880263091	6
1	703	1588.0056655788	5
1	707	1594.035319161562	4
1	708	1594.449849453452	3
1	710	1595.558615324041	3
1	711	1600.288004168403	3
1	713	1602.787541439405	3
1	714	1606.780681033077	3
1	715	1612.886564753309	2
1	717	1629.290346216222	2
1	718	1631.053604081773	2
1	719	1632.540022481517	1
1	720	1634.062456554464	0
1	722	1637.768291493497	0
1	723	1638.14027195323	0
1	725	1639.148682106153	0
1	726	1641.464860910832	0
1	731	1657.708909622613	0
1	732	1659.401332737475	0
1	734	1675.495492245268	0
1	735	1680.239042615175	0
1	737	1682.1846757928	0
1	738	1684.683935565171	0
1	744	1697.637724245331	0
1	747	1709.727817897664	0
1	749	1714.252640392117	0
1	750	1725.616581925882	0
1	752	1725.952996459446	0
1	753	1726.078262890169	0
1	758	1733.091468649534	0
1	759	1734.717006310965	0
1	764	1743.602300963212	0
1	765	1744.182100205833	0
1	773	1769.737070293725	0
1	774	1769.780633213546	0
1	779	1797.429649869354	0
1	780	1798.788213252954	0
1	782	1808.423608925901	0
1	786	1811.117469180127	1
1	788	1812.727691339913	2
1	791	1819.29507133408	3
1	792	1819.83273345734	3
1	796	1823.829339928366	3
1	798	1824.60454923751	3
1	799	1826.164831154284	2
1	800	1826.602344988149	1
1	801	1828.879925934757	0
1	806	1850.05842958545	0
1	807	1854.244426725835	0
1	814	1870.140801328938	0
1	816	1872.093750590139	1
1	819	1876.405968623866	2
1	821	1878.066848027262	3
1	823	1880.162037838015	4
1	824	1881.223586418452	4
1	825	1886.723409646652	3
1	826	1889.254141545112	2
1	827	1891.322283569145	1
1	828	1893.393192812215	0
1	833	1914.482613606068	0
1	835	1920.880977758516	1
1	837	1924.746660298332	2
1	838	1926.843922115527	2
1	840	1929.7353207484	2
1	841	1932.485302080053	2
1	842	1934.987126976668	1
1	843	1935.059234515336	0
1	845	1951.433106009163	0
1	846	1953.763141965881	0
1	848	1961.080825932835	0
1	849	1964.056100940522	0
1	851	1968.963691792235	0
1	852	1969.15581415	0
1	854	1974.704298001108	0
1	855	1976.55923014744	0
1	857	1979.34222648922	0
1	858	1980.332042231244	0
1	860	1982.36574677823	0
1	862	1983.838293113229	1
1	867	1989.156610482477	2
1	869	1990.350194517302	3
1	870	1991.833438228502	3
1	874	1995.780825651345	3
1	876	1996.531113902884	4
1	881	2016.437451061444	4
1	883	2019.802131646665	4
1	884	2019.893734321488	4
1	886	2021.949410744452	4
1	887	2034.178225601395	4
1	888	2034.372379858597	3
1	889	2039.196876334037	2
1	890	2039.93646500432	1
1	891	2055.328954144272	0
1	895	2060.879589853667	0
1	897	2060.908898717302	1
1	899	2063.061146271051	1
1	900	2066.181199846889	0
1	904	2070.679099586889	0
1	906	2078.427720321743	0
1	908	2091.617982071237	0
1	910	2092.486468161446	1
1	914	2097.937219010378	1
1	915	2098.912167206193	0
1	919	2120.154046587702	0
1	921	2122.05987990069	0
1	927	2133.359064701743	0
1	929	2140.34363870594	1
1	934	2151.696984518615	2
1	941	2165.460219418262	3
1	945	2174.10526321096	3
1	946	2177.092472726688	2
1	948	2182.948533678196	2
1	949	2185.997458791826	2
1	953	2189.646182425831	2
1	955	2193.914878067786	3
1	957	2193.954164107906	4
1	959	2194.561011312908	5
1	962	2200.766102351387	6
1	963	2207.394030098401	6
1	965	2210.22901050779	6
1	966	2210.784776968194	6
1	968	2211.800957408794	6
1	970	2213.125016198576	7
1	972	2216.818198176185	8
1	973	2216.991065781511	8
1	974	2218.824078526865	7
1	975	2219.789541678532	6
1	976	2227.798933794379	5
1	981	2231.069777978458	5
1	982	2231.378783997385	5
1	983	2231.917328833262	4
1	984	2232.21959844947	3
1	985	2237.212858135994	2
1	986	2243.963875725371	1
1	988	2245.062037414236	1
1	989	2246.582096033667	1
1	990	2256.071318392646	0
1	995	2260.881398963393	0
1	996	2264.665935816165	0
1	1001	2274.961049532209	0
1	1006	2280.214129127697	1
1	1007	2283.525342297655	1
1	1008	2291.34707118485	0
1	1018	2305.165130442435	0
1	1020	2309.623505370084	0
1	1025	2333.953071763477	0
1	1029	2347.790575477477	0
1	1034	2360.789919575655	0
1	1035	2361.246567849658	0
1	1037	2362.698859064813	0
1	1039	2363.643523370556	1
1	1040	2367.841700573398	1
1	1041	2371.095495125265	0
1	1046	2392.218169230268	0
1	1048	2394.39108518217	1
1	1049	2397.199963163848	1
1	1054	2400.655127529596	1
1	1060	2408.898363050178	2
1	1063	2415.619219614393	2
1	1068	2423.295046423066	2
1	1070	2423.399860528197	3
1	1075	2437.376253249859	4
1	1077	2439.988562019943	5
1	1081	2456.037259181955	5
1	1082	2457.096031282333	4
1	1083	2462.443598833304	3
1	1084	2467.547089044027	2
1	1085	2470.725619158256	1
1	1086	2473.14027447696	0
1	1088	2479.732826589049	0
1	1090	2480.108407740282	1
1	1094	2486.130779609617	1
2	134	354.557151855681	0
2	137	363.823894831212	0
2	140	368.883157238984	3.269882606171
2	145	373.186272445956	3.811017128684
2	148	380.572718584494	9.987484712422
2	149	380.984131076081	1.302420177356
2	152	396.392065199602	0
2	155	397.191292024564	0.708959695308
2	161	408.385103601479	2.421722930974
2	164	410.850292778012	0
2	167	413.949212177533	0
2	172	422.042346009916	7.64148583208
2	175	425.510781962272	9.722105870471
2	176	432.411358307122	7.684660694268
2	182	456.111867721576	0
2	192	479.502575553345	6.727338698352
2	195	482.641516125292	4.136668504865
2	196	485.847914225548	7.150986204537
2	197	490.454920259964	10.022924419808
2	206	508.451775855767	0
2	209	509.533275339211	0.675567171938
2	218	527.362533241191	3.072723873041
2	224	553.294729384193	0
2	230	573.832327342745	0.416830492446
2	233	579.327708019238	0
2	236	585.459324495776	4.230110188559
2	239	587.051509254189	0
2	244	593.326016637458	5.495447771976
2	245	593.870885628551	5.360637735481
2	252	601.673915287114	3.982174638764
2	253	602.307617523022	2.681713283308
2	254	613.404042465333	11.939244167912
2	257	625.032122070715	3.476914782464
2	260	634.774522045433	0
2	263	653.323311617842	0
2	266	658.573298451177	0
2	272	684.49641219479	0
2	275	703.811838816702	11.809595193107
2	281	715.880133724575	3.452078958193
2	284	740.165402144317	0
2	293	758.794271945217	0.595201611342
2	296	765.574160589746	0
2	305	770.429776606636	3.30938418142
2	308	774.074244108967	5.475887754618
2	311	780.562903017078	10.819486952686
2	316	785.854636038825	15.747088237041
2	317	789.205668558501	17.375714460632
2	318	789.286869066656	14.859323648616
2	327	804.404773366679	22.098194425277
2	328	807.421603195166	22.74284599944
2	331	809.028532163487	19.212742573061
2	332	811.83090634309	19.72028213324
2	333	811.83665866298	17.732733467707
2	338	815.946328424733	11.692053375019
2	339	818.482363008212	10.428415093508
2	340	824.41042238059	11.223263074579
2	343	827.984210905308	12.039007939335
2	352	846.329995133611	19.892137567057
2	357	861.177776315137	30.03398577758
2	358	861.197906808419	29.589426648574
2	361	865.645388758187	29.44487557663
2	362	866.694991048185	20.479695273999
2	363	871.157372580941	15.162646157398
2	370	876.834375846328	18.316081587105
2	371	880.683642162114	16.713568752939
2	374	887.331377370423	14.228519147882
2	379	894.485180801728	19.888604028792
2	380	895.265157024232	18.696576357642
2	383	898.826859800283	13.654519793031
2	386	903.002070186311	13.120477351675
2	387	903.009828532114	8.794623919364
2	388	906.008068576919	7.31988828598
2	400	923.63335464294	22.435888237599
2	401	925.852051560566	18.348158770161
2	406	928.885982637377	17.941204510713
2	407	933.357454431062	14.248671472091
2	412	936.090343330041	12.537946209553
2	413	936.32372860131	9.845327967929
2	414	938.105468392783	10.758745522625
2	417	938.788312037215	4.316227504787
2	422	952.658345446017	17.220634181359
2	423	958.54034513135	20.18694290698
2	431	986.806918723197	38.647067798785
2	432	989.574243022844	40.928732507087
2	433	992.858248759238	33.023954425473
2	434	993.175767543745	21.944463784835
2	437	996.880694730873	1.439670080583
2	440	1001.042526192345	3.303028439619
2	443	1002.247055797812	0
2	448	1005.327933409247	1.05173411275
2	449	1005.876871033634	0.936090396753
2	452	1015.089663101238	0
2	462	1035.316519252561	3.571802043084
2	467	1044.866092826169	10.996292458831
2	470	1045.182842902747	9.964214788558
2	471	1046.486539931452	4.380460562782
2	472	1046.90013019976	4.00679600941
2	473	1049.150826509113	4.243116410892
2	478	1058.71384163245	8.603595646003
2	479	1058.817604429144	2.339377350473
2	491	1104.045280343037	22.509871423793
2	494	1115.770245583051	4.846225925227
2	497	1116.897449799786	0.320223546863
2	508	1129.246760336538	10.023045019104
2	509	1131.195752439342	10.825325001683
2	512	1138.101066537554	0
2	515	1158.997769375823	0
2	518	1169.027522121909	4.637908018771
2	521	1176.368381827385	0
2	530	1199.872236254162	0
2	540	1209.53991184792	7.263021101228
2	541	1211.43319548845	7.154598706372
2	544	1215.551858653735	6.08426030814
2	545	1221.399638617144	9.316340370546
2	548	1232.961859612421	0
2	551	1236.984180589291	0
2	554	1246.129532192752	4.422577950879
2	560	1250.196517913514	0
2	563	1268.951555771959	0
2	566	1273.536855029527	1.260728484052
2	572	1288.233348716456	0.609827707721
2	575	1300.845123160787	0
2	578	1320.578965987141	0
2	581	1332.584785782388	0
2	584	1341.640472899657	0
2	587	1352.712257866263	0
2	592	1354.644274725746	1.047402265111
2	593	1354.770816572133	0.340353672138
2	596	1363.525267817574	0
2	599	1366.291834830339	2.309814608259
2	602	1367.138992655197	0.340585919677
2	605	1372.705165728118	4.906366699861
2	608	1380.988650301259	0
2	611	1383.440373029984	0
2	614	1391.344060123739	3.711660862836
2	620	1408.643338676611	2.698171497385
2	623	1411.877979725099	2.562053241094
2	626	1422.396675441742	0
2	629	1429.627255756317	0
2	632	1431.219346087043	0.534257314187
2	635	1439.937483048556	0
2	642	1456.918114099939	16.615588939902
2	643	1457.762532317435	17.160965228781
2	644	1458.267051742163	16.992671911977
2	647	1466.124470971325	3.569176236252
2	650	1470.089611214683	0
2	653	1477.856523929648	0
2	656	1479.634303538207	0
2	659	1481.017581247421	0
2	665	1491.84486004164	1.86549418609
2	668	1502.781208375588	3.268071395127
2	674	1529.541644465283	0
2	680	1535.008735674404	0.947020188789
2	683	1538.630925993558	0
2	686	1553.230681240834	0
2	699	1568.5062680006	15.057028727458
2	702	1577.945880263091	23.999126261705
2	703	1588.0056655788	29.507488240257
2	706	1593.724008140506	32.423502479135
2	707	1594.035319161562	31.571518731958
2	708	1594.449849453452	28.318613372814
2	711	1600.288004168403	22.635902748515
2	714	1606.780681033077	16.309945811028
2	715	1612.886564753309	17.327949429268
2	718	1631.053604081773	28.266062642368
2	719	1632.540022481517	3.249676265295
2	722	1637.768291493497	0
2	725	1639.148682106153	0
2	731	1657.708909622613	0
2	734	1675.495492245268	0
2	737	1682.1846757928	0
2	746	1708.095246945587	10.457522700256
2	749	1714.252640392117	0
2	752	1725.952996459446	0
2	758	1733.091468649534	0
2	764	1743.602300963212	0
2	773	1769.737070293725	0
2	779	1797.429649869354	0
2	782	1808.423608925901	0
2	789	1813.323187661217	3.316606524977
2	792	1819.83273345734	8.715264277213
2	797	1824.192310034114	11.464618694201
2	798	1824.60454923751	5.30947790343
2	799	1826.164831154284	6.330623912482
2	800	1826.602344988149	2.773005059783
2	806	1850.05842958545	0
2	817	1874.584132385835	4.443331056897
2	824	1881.223586418452	9.129835828313
2	825	1886.723409646652	10.317441022786
2	826	1889.254141545112	11.18729351785
2	827	1891.322283569145	11.16024573113
2	833	1914.482613606068	0
2	838	1926.843922115527	5.962944357011
2	841	1932.485302080053	7.738641781721
2	842	1934.987126976668	5.251806228268
2	845	1951.433106009163	0
2	848	1961.080825932835	0
2	851	1968.963691792235	0
2	854	1974.704298001108	0
2	857	1979.34222648922	0
2	860	1982.36574677823	0
2	865	1986.89743729674	3.059144183511
2	870	1991.833438228502	7.480261802802
2	880	2010.779805265395	21.623194782918
2	881	2016.437451061444	26.087256544142
2	884	2019.893734321488	26.453963687333
2	887	2034.178225601395	38.39739995005
2	888	2034.372379858597	37.841265955713
2	889	2039.196876334037	19.394744687372
2	890	2039.93646500432	17.987054259868
2	898	2060.953290177673	0.073700324006
2	899	2063.061146271051	2.152247553749
2	905	2074.179321901899	3.50022231501
2	908	2091.617982071237	0
2	913	2096.524831857768	4.038363696322
2	914	2097.937219010378	4.396614326777
2	920	2121.202436126972	1.04838953927
2	944	2172.543350240973	39.18428553923
2	945	2174.10526321096	33.76162450502
2	946	2177.092472726688	25.395488208073
2	949	2185.997458791826	20.537239373564
2	960	2196.645132816042	13.696599137846
2	963	2207.394030098401	18.181521990961
2	966	2210.784776968194	21.138594542363
2	973	2216.991065781511	23.076187713725
2	974	2218.824078526865	24.869914418959
2	975	2219.789541678532	25.228530365624
2	976	2227.798933794379	27.032831442992
2	979	2229.975789284988	19.746778777198
2	982	2231.378783997385	19.577826588591
2	983	2231.917328833262	18.792312634686
2	984	2232.21959844947	15.401400273285
2	985	2237.212858135994	9.201445889408
2	986	2243.963875725371	12.894097746913
2	989	2246.582096033667	1.520058619431
2	995	2260.881398963393	0
2	1001	2274.961049532209	0
2	1004	2280.202674805453	3.05754014807
2	1007	2283.525342297655	3.311213169958
2	1019	2309.143918661298	3.978788218863
2	1025	2333.953071763477	0
2	1028	2346.895590671478	1.649658429958
2	1034	2360.789919575655	0
2	1037	2362.698859064813	0
2	1040	2367.841700573398	4.198177202842
2	1046	2392.218169230268	0
2	1049	2397.199963163848	2.808877981678
2	1052	2398.97630607258	0.00785344053
2	1062	2411.286067437597	10.630939908001
2	1063	2415.619219614393	10.917730498212
2	1066	2422.152432973786	13.254069923608
2	1073	2433.807698171448	14.839371257427
2	1080	2451.805190958178	28.510144535112
2	1081	2456.037259181955	32.637398653758
2	1082	2457.096031282333	30.085168338117
2	1083	2462.443598833304	25.067345583445
2	1084	2467.547089044027	27.558527024084
2	1085	2470.725619158256	27.291690564584
2	1088	2479.732826589049	0
2	1093	2484.708070596515	4.599662856233
2	1094	2486.130779609617	5.509559512825
3	135	355.160353554994	27
3	140	368.883157238984	28
3	148	380.572718584494	29
3	149	380.984131076081	30
3	150	382.105266368359	31
3	155	397.191292024564	32
3	156	399.063220251664	33
3	162	408.828924247737	34
3	165	412.079109425518	35
3	175	425.510781962272	36
3	176	432.411358307122	37
3	177	435.007152516632	38
3	183	459.146768374601	39
3	196	485.847914225548	40
3	197	490.454920259964	41
3	198	492.462048381388	42
3	209	509.533275339211	43
3	210	509.584683669832	44
3	219	528.53515052348	45
3	225	553.637775472519	46
3	231	574.855999717648	47
3	236	585.459324495776	48
3	237	586.848293378799	49
3	244	593.326016637458	50
3	245	593.870885628551	51
3	252	601.673915287114	52
3	253	602.307617523022	53
3	254	613.404042465333	54
3	257	625.032122070715	55
3	258	627.916206376131	56
3	261	646.060482027643	57
3	264	653.655509996325	58
3	267	659.303978474175	59
3	275	703.811838816702	60
3	276	703.897962758246	61
3	282	718.151431504118	62
3	285	740.966392049183	63
3	294	762.836473604668	64
3	308	774.074244108967	65
3	311	780.562903017078	66
3	316	785.854636038825	67
3	317	789.205668558501	68
3	318	789.286869066656	69
3	328	807.421603195166	70
3	331	809.028532163487	71
3	332	811.83090634309	72
3	333	811.83665866298	73
3	338	815.946328424733	74
3	339	818.482363008212	75
3	340	824.41042238059	76
3	343	827.984210905308	77
3	357	861.177776315137	78
3	358	861.197906808419	79
3	362	866.694991048185	80
3	363	871.157372580941	81
3	370	876.834375846328	82
3	371	880.683642162114	83
3	374	887.331377370423	84
3	379	894.485180801728	85
3	380	895.265157024232	86
3	386	903.002070186311	87
3	387	903.009828532114	88
3	388	906.008068576919	89
3	401	925.852051560566	90
3	406	928.885982637377	91
3	407	933.357454431062	92
3	413	936.32372860131	93
3	414	938.105468392783	94
3	417	938.788312037215	95
3	422	952.658345446017	96
3	423	958.54034513135	97
3	432	989.574243022844	98
3	433	992.858248759238	99
3	434	993.175767543745	100
3	440	1001.042526192345	101
3	441	1001.803787331099	102
3	449	1005.876871033634	103
3	450	1006.330451942072	104
3	453	1015.193066078132	105
3	467	1044.866092826169	106
3	470	1045.182842902747	107
3	471	1046.486539931452	108
3	472	1046.90013019976	109
3	473	1049.150826509113	110
3	479	1058.817604429144	111
3	480	1059.042412554675	112
3	494	1115.770245583051	113
3	497	1116.897449799786	114
3	509	1131.195752439342	115
3	510	1132.092341823523	116
3	513	1144.038515545077	117
3	518	1169.027522121909	118
3	519	1171.949671078315	119
3	522	1178.026155728127	120
3	541	1211.43319548845	121
3	545	1221.399638617144	122
3	546	1222.845556276896	123
3	549	1234.22024607418	124
3	554	1246.129532192752	125
3	555	1246.889297234426	126
3	561	1258.727999897849	127
3	567	1275.833305082111	128
3	573	1294.329957623928	129
3	576	1310.020170830526	130
3	579	1320.92525516186	131
3	582	1336.619410429368	132
3	585	1343.208215987739	133
3	592	1354.644274725746	134
3	593	1354.770816572133	135
3	594	1357.695138998791	136
3	599	1366.291834830339	137
3	602	1367.138992655197	138
3	605	1372.705165728118	139
3	606	1373.303054024493	140
3	609	1381.172389694348	141
3	615	1394.888759866198	142
3	624	1411.991560715841	143
3	627	1428.923078375154	144
3	632	1431.219346087043	145
3	633	1434.831107657412	146
3	643	1457.762532317435	147
3	644	1458.267051742163	148
3	648	1468.358101616645	149
3	651	1470.77022781846	150
3	654	1479.375562786567	151
3	657	1480.978300208637	152
3	660	1484.582466156705	153
3	668	1502.781208375588	154
3	669	1505.161429775151	155
3	675	1530.44093356477	156
3	681	1538.07427436497	157
3	684	1546.378356149644	158
3	702	1577.945880263091	159
3	703	1588.0056655788	160
3	707	1594.035319161562	161
3	708	1594.449849453452	162
3	711	1600.288004168403	163
3	714	1606.780681033077	164
3	715	1612.886564753309	165
3	718	1631.053604081773	166
3	719	1632.540022481517	167
3	720	1634.062456554464	168
3	723	1638.14027195323	169
3	726	1641.464860910832	170
3	732	1659.401332737475	171
3	735	1680.239042615175	172
3	738	1684.683935565171	173
3	747	1709.727817897664	174
3	750	1725.616581925882	175
3	753	1726.078262890169	176
3	759	1734.717006310965	177
3	765	1744.182100205833	178
3	774	1769.780633213546	179
3	780	1798.788213252954	180
3	792	1819.83273345734	181
3	798	1824.60454923751	182
3	799	1826.164831154284	183
3	800	1826.602344988149	184
3	801	1828.879925934757	185
3	807	1854.244426725835	186
3	824	1881.223586418452	187
3	825	1886.723409646652	188
3	826	1889.254141545112	189
3	827	1891.322283569145	190
3	828	1893.393192812215	191
3	838	1926.843922115527	192
3	841	1932.485302080053	193
3	842	1934.987126976668	194
3	843	1935.059234515336	195
3	846	1953.763141965881	196
3	849	1964.056100940522	197
3	852	1969.15581415	198
3	855	1976.55923014744	199
3	858	1980.332042231244	200
3	870	1991.833438228502	201
3	881	2016.437451061444	202
3	884	2019.893734321488	203
3	887	2034.178225601395	204
3	888	2034.372379858597	205
3	889	2039.196876334037	206
3	890	2039.93646500432	207
3	891	2055.328954144272	208
3	899	2063.061146271051	209
3	900	2066.181199846889	210
3	906	2078.427720321743	211
3	914	2097.937219010378	212
3	915	2098.912167206193	213
3	921	2122.05987990069	214
3	945	2174.10526321096	215
3	946	2177.092472726688	216
3	949	2185.997458791826	217
3	963	2207.394030098401	218
3	966	2210.784776968194	219
3	973	2216.991065781511	220
3	974	2218.824078526865	221
3	975	2219.789541678532	222
3	976	2227.798933794379	223
3	982	2231.378783997385	224
3	983	2231.917328833262	225
3	984	2232.21959844947	226
3	985	2237.212858135994	227
3	986	2243.963875725371	228
3	989	2246.582096033667	229
3	990	2256.071318392646	230
3	996	2264.665935816165	231
3	1007	2283.525342297655	232
3	1008	2291.34707118485	233
3	1020	2309.623505370084	234
3	1029	2347.790575477477	235
3	1035	2361.246567849658	236
3	1040	2367.841700573398	237
3	1041	2371.095495125265	238
3	1049	2397.199963163848	239
3	1063	2415.619219614393	240
3	1081	2456.037259181955	241
3	1082	2457.096031282333	242
3	1083	2462.443598833304	243
3	1084	2467.547089044027	244
3	1085	2470.725619158256	245
3	1086	2473.14027447696	246
3	1094	2486.130779609617	247
4	135	355.160353554994	0.603201699313
4	140	368.883157238984	5.059262407772
4	148	380.572718584494	11.197463267222
4	149	380.984131076081	10.398897204009
4	150	382.105266368359	2.423555469634
4	155	397.191292024564	0.799226824962
4	156	399.063220251664	2.580887922408
4	162	408.828924247737	2.865543577232
4	165	412.079109425518	1.228816647506
4	175	425.510781962272	11.109921784436
4	176	432.411358307122	16.622682215321
4	177	435.007152516632	10.280454903778
4	183	459.146768374601	3.034900653025
4	196	485.847914225548	7.343066605121
4	197	490.454920259964	11.757992238953
4	198	492.462048381388	12.030052541232
4	209	509.533275339211	1.081499483444
4	210	509.584683669832	0.726975502559
4	219	528.53515052348	4.24534115533
4	225	553.637775472519	0.343046088326
4	231	574.855999717648	1.440502867349
4	236	585.459324495776	6.131616476538
4	237	586.848293378799	5.619079071582
4	244	593.326016637458	6.274507383269
4	245	593.870885628551	6.040316763069
4	252	601.673915287114	13.163667394044
4	253	602.307617523022	4.615876874672
4	254	613.404042465333	13.778138225619
4	257	625.032122070715	23.567323773294
4	258	627.916206376131	6.36099908788
4	261	646.060482027643	11.28595998221
4	264	653.655509996325	0.332198378483
4	267	659.303978474175	0.730680022998
4	275	703.811838816702	19.315426621912
4	276	703.897962758246	11.895719134651
4	282	718.151431504118	5.723376737736
4	285	740.966392049183	0.800989904866
4	294	762.836473604668	4.637403270793
4	308	774.074244108967	6.953851683751
4	311	780.562903017078	11.964546662729
4	316	785.854636038825	16.111219974433
4	317	789.205668558501	19.098120756717
4	318	789.286869066656	17.456914968787
4	328	807.421603195166	25.115024253764
4	331	809.028532163487	24.349774967761
4	332	811.83090634309	22.015116752664
4	333	811.83665866298	19.72603445313
4	338	815.946328424733	21.84240322946
4	339	818.482363008212	14.228087958498
4	340	824.41042238059	16.356474465886
4	343	827.984210905308	14.797051599297
4	357	861.177776315137	34.739918748583
4	358	861.197906808419	30.054116270862
4	362	866.694991048185	30.494477866628
4	363	871.157372580941	24.942076806755
4	370	876.834375846328	20.839649422785
4	371	880.683642162114	22.165347902891
4	374	887.331377370423	23.361303961248
4	379	894.485180801728	21.382322579187
4	380	895.265157024232	20.668580251296
4	386	903.002070186311	17.829730179059
4	387	903.009828532114	13.128235697478
4	388	906.008068576919	11.792863964169
4	401	925.852051560566	24.654585155225
4	406	928.885982637377	21.382089846972
4	407	933.357454431062	22.412676304398
4	413	936.32372860131	12.771331480822
4	414	938.105468392783	11.627067759402
4	417	938.788312037215	11.441589167057
4	422	952.658345446017	18.186260913589
4	423	958.54034513135	23.102633866692
4	432	989.574243022844	41.414392098432
4	433	992.858248759238	44.212738243481
4	434	993.175767543745	33.34147320998
4	440	1001.042526192345	5.601501542055
4	441	1001.803787331099	4.064289578373
4	449	1005.876871033634	1.600671737137
4	450	1006.330451942072	1.389671305191
4	453	1015.193066078132	0.103402976894
4	467	1044.866092826169	13.121375616692
4	470	1045.182842902747	11.313042535409
4	471	1046.486539931452	11.267911817263
4	472	1046.90013019976	4.79405083109
4	473	1049.150826509113	6.257492318763
4	479	1058.817604429144	8.707358442697
4	480	1059.042412554675	2.564185476004
4	494	1115.770245583051	34.234836663807
4	497	1116.897449799786	5.973430141962
4	509	1131.195752439342	11.972037121908
4	510	1132.092341823523	11.721914385864
4	513	1144.038515545077	5.937449007523
4	518	1169.027522121909	10.029752746086
4	519	1171.949671078315	7.560056975177
4	522	1178.026155728127	1.657773900742
4	541	1211.43319548845	9.156304741758
4	545	1221.399638617144	11.932040271549
4	546	1222.845556276896	10.762258030298
4	549	1234.22024607418	1.258386461759
4	554	1246.129532192752	9.145351603461
4	555	1246.889297234426	5.182342992553
4	561	1258.727999897849	8.531481984335
4	567	1275.833305082111	3.557178536636
4	573	1294.329957623928	6.706436615193
4	576	1310.020170830526	9.175047669739
4	579	1320.92525516186	0.346289174719
4	582	1336.619410429368	4.03462464698
4	585	1343.208215987739	1.567743088082
4	592	1354.644274725746	1.932016859483
4	593	1354.770816572133	1.173944111498
4	594	1357.695138998791	3.264676098796
4	599	1366.291834830339	2.766567012765
4	602	1367.138992655197	3.156972433117
4	605	1372.705165728118	5.906758992598
4	606	1373.303054024493	5.504254996236
4	609	1381.172389694348	0.183739393089
4	615	1394.888759866198	7.256360605295
4	624	1411.991560715841	2.675634231836
4	627	1428.923078375154	6.526402933412
4	632	1431.219346087043	1.592090330726
4	633	1434.831107657412	4.146018884556
4	643	1457.762532317435	17.460007157398
4	644	1458.267051742163	17.665484653509
4	648	1468.358101616645	5.802806881572
4	651	1470.77022781846	0.680616603777
4	654	1479.375562786567	1.519038856919
4	657	1480.978300208637	1.34399667043
4	660	1484.582466156705	3.564884909284
4	668	1502.781208375588	12.801842520038
4	669	1505.161429775151	5.64829279469
4	675	1530.44093356477	0.899289099487
4	681	1538.07427436497	4.012558879355
4	684	1546.378356149644	7.747430156086
4	702	1577.945880263091	24.496640989949
4	703	1588.0056655788	34.058911577414
4	707	1594.035319161562	32.734813500191
4	708	1594.449849453452	31.986049023848
4	711	1600.288004168403	34.156768087765
4	714	1606.780681033077	29.128579613189
4	715	1612.886564753309	22.41582953126
4	718	1631.053604081773	35.494988757732
4	719	1632.540022481517	29.752481042112
4	720	1634.062456554464	4.772110338242
4	723	1638.14027195323	0.371980459733
4	726	1641.464860910832	2.316178804679
4	732	1659.401332737475	1.692423114862
4	735	1680.239042615175	4.743550369907
4	738	1684.683935565171	2.499259772371
4	747	1709.727817897664	12.090093652333
4	750	1725.616581925882	11.363941533765
4	753	1726.078262890169	0.125266430723
4	759	1734.717006310965	1.625537661431
4	765	1744.182100205833	0.579799242621
4	774	1769.780633213546	0.043562919821
4	780	1798.788213252954	1.3585633836
4	792	1819.83273345734	9.8261523211
4	798	1824.60454923751	11.876857897597
4	799	1826.164831154284	6.869759820204
4	800	1826.602344988149	6.768137746347
4	801	1828.879925934757	5.050586006391
4	807	1854.244426725835	4.185997140385
4	824	1881.223586418452	11.082785089514
4	825	1886.723409646652	14.629659056513
4	826	1889.254141545112	12.848172921246
4	827	1891.322283569145	13.255435541883
4	828	1893.393192812215	13.2311549742
4	838	1926.843922115527	12.361308509459
4	841	1932.485302080053	11.604324321537
4	842	1934.987126976668	10.240466678336
4	843	1935.059234515336	5.323913766936
4	846	1953.763141965881	2.330035956718
4	849	1964.056100940522	2.975275007687
4	852	1969.15581415	0.192122357765
4	855	1976.55923014744	1.854932146332
4	858	1980.332042231244	0.989815742024
4	870	1991.833438228502	7.995145115273
4	881	2016.437451061444	27.280840578967
4	884	2019.893734321488	29.543539804186
4	887	2034.178225601395	40.73845496724
4	888	2034.372379858597	38.591554207252
4	889	2039.196876334037	42.665762431153
4	890	2039.93646500432	20.134333357655
4	891	2055.328954144272	33.37954339982
4	899	2063.061146271051	2.181556417384
4	900	2066.181199846889	5.272301129587
4	906	2078.427720321743	7.748620734854
4	914	2097.937219010378	5.450750848932
4	915	2098.912167206193	5.371562522592
4	921	2122.05987990069	1.905833312988
4	945	2174.10526321096	40.746198509217
4	946	2177.092472726688	36.748834020748
4	949	2185.997458791826	34.300474273211
4	963	2207.394030098401	24.445496420205
4	966	2210.784776968194	21.572268860754
4	973	2216.991065781511	27.34488335568
4	974	2218.824078526865	24.909200459079
4	975	2219.789541678532	25.835377570626
4	976	2227.798933794379	33.237922481471
4	982	2231.378783997385	21.149773489595
4	983	2231.917328833262	20.116371424468
4	984	2232.21959844947	19.094582250894
4	985	2237.212858135994	20.394659959809
4	986	2243.963875725371	15.952463478785
4	989	2246.582096033667	15.512318055209
4	990	2256.071318392646	11.00928097841
4	996	2264.665935816165	3.784536852772
4	1007	2283.525342297655	6.380207640272
4	1008	2291.34707118485	11.132942057153
4	1020	2309.623505370084	4.458374927649
4	1029	2347.790575477477	2.544643235957
4	1035	2361.246567849658	0.456648274003
4	1040	2367.841700573398	5.142841508585
4	1041	2371.095495125265	7.451971754709
4	1049	2397.199963163848	4.98179393358
4	1063	2415.619219614393	14.964092084797
4	1081	2456.037259181955	32.742212758889
4	1082	2457.096031282333	33.696170754136
4	1083	2462.443598833304	35.432735889088
4	1084	2467.547089044027	30.170835794168
4	1085	2470.725619158256	30.737057138313
4	1086	2473.14027447696	29.706345883288
4	1094	2486.130779609617	6.022371869335
5	142	369.375255317272	1
5	158	404.258574086135	1
5	171	415.788676091801	1
5	179	443.919676013075	1
5	185	470.546870107225	1
5	194	480.431995840156	1
5	200	495.029730108993	1
5	203	500.513567475372	1
5	212	517.809300423735	1
5	215	521.192237302952	1
5	221	541.925002229654	1
5	227	567.695925539455	1
5	269	660.252978140038	1
5	278	709.366630100926	1
5	287	743.646848964604	1
5	290	756.458935907148	1
5	298	767.120392425216	1
5	320	789.815789590426	1
5	347	831.608480159845	1
5	360	863.970073409175	1
5	382	898.688180290939	1
5	392	910.944778126664	1
5	394	912.065066633432	2
5	409	934.472084532428	1
5	425	959.834294333765	1
5	427	963.034023953894	2
5	436	995.44102465029	1
5	445	1004.276199296497	1
5	455	1030.943152599568	1
5	475	1050.110245986447	1
5	482	1074.807943387107	1
5	486	1086.494175780376	2
5	489	1102.06552599861	2
5	499	1119.223715317434	1
5	503	1121.890324746436	2
5	506	1123.663479696237	2
5	524	1186.897939430832	1
5	526	1191.951539220539	2
5	532	1202.276890746692	1
5	536	1207.192094069512	2
5	543	1212.083298246598	1
5	557	1247.010455122903	1
5	565	1272.276126545475	1
5	569	1284.608791838486	1
5	613	1387.632399260903	1
5	617	1403.412013724196	1
5	622	1409.315926484005	1
5	637	1440.302525160037	1
5	646	1462.555294735073	1
5	662	1489.486066902343	1
5	671	1507.762238717833	1
5	677	1533.228522866138	1
5	692	1558.498177338543	1
5	705	1590.470735222049	1
5	728	1645.874418155944	1
5	740	1688.598277283569	1
5	742	1697.269698461538	2
5	755	1731.744765826945	1
5	761	1737.595552176882	1
5	767	1744.899527686484	1
5	770	1755.198627303625	1
5	776	1782.557906561692	1
5	784	1810.00658113624	1
5	794	1819.834207241802	1
5	803	1845.586409673488	1
5	809	1858.271437782732	1
5	812	1868.692586631094	1
5	830	1893.453134115984	1
5	864	1984.3531764257	1
5	872	1993.439770634155	1
5	878	2005.414674315447	2
5	893	2057.829292268349	1
5	902	2067.19127090892	1
5	912	2093.540604683601	1
5	917	2118.272495163052	1
5	923	2123.862463980623	1
5	925	2125.583614538701	2
5	932	2148.351335550223	2
5	936	2158.513685384924	3
5	938	2159.742235841395	4
5	951	2189.21250810744	1
5	978	2228.011412246586	1
5	992	2256.953625658148	1
5	998	2270.467559923692	1
5	1003	2277.145134657383	1
5	1010	2292.356304954715	1
5	1012	2296.559424856657	2
5	1015	2299.848805152245	2
5	1022	2312.593632662147	1
5	1027	2345.24593224152	1
5	1031	2353.399464487008	1
5	1043	2372.427930054302	1
5	1051	2398.96845263205	1
5	1056	2404.701489116181	1
5	1058	2408.893875339512	2
5	1065	2418.968326914021	1
5	1072	2427.010862944216	1
5	1079	2443.433928593672	1
5	1092	2480.621220096792	1
5	1096	2496.852317827315	1
6	142	369.375255317272	0
6	145	373.186272445956	0
6	158	404.258574086135	0
6	161	408.385103601479	0
6	171	415.788676091801	0
6	172	422.042346009916	0
6	179	443.919676013075	0
6	180	455.090415261281	0
6	185	470.546870107225	0
6	192	479.502575553345	0
6	194	480.431995840156	0
6	195	482.641516125292	0
6	200	495.029730108993	0
6	201	497.667282117742	0
6	203	500.513567475372	0
6	204	503.25879045164	0
6	212	517.809300423735	0
6	213	518.184459215293	0
6	215	521.192237302952	0
6	218	527.362533241191	0
6	221	541.925002229654	0
6	222	543.794352588129	0
6	227	567.695925539455	0
6	230	573.832327342745	0
6	269	660.252978140038	0
6	270	673.471894894271	0
6	278	709.366630100926	0
6	281	715.880133724575	0
6	287	743.646848964604	0
6	288	744.966941361987	0
6	290	756.458935907148	0
6	293	758.794271945217	0
6	298	767.120392425216	0
6	305	770.429776606636	0
6	320	789.815789590426	0
6	327	804.404773366679	0
6	347	831.608480159845	0
6	352	846.329995133611	0
6	360	863.970073409175	0
6	361	865.645388758187	0
6	382	898.688180290939	0
6	383	898.826859800283	0
6	392	910.944778126664	0
6	394	912.065066633432	1
6	395	918.586202758577	1
6	400	923.63335464294	0
6	409	934.472084532428	0
6	412	936.090343330041	0
6	425	959.834294333765	0
6	427	963.034023953894	1
6	430	976.325084663618	1
6	431	986.806918723197	0
6	436	995.44102465029	0
6	437	996.880694730873	0
6	445	1004.276199296497	0
6	448	1005.327933409247	0
6	455	1030.943152599568	0
6	462	1035.316519252561	0
6	475	1050.110245986447	0
6	478	1058.71384163245	0
6	482	1074.807943387107	0
6	486	1086.494175780376	1
6	487	1087.998634168898	1
6	489	1102.06552599861	1
6	490	1103.259265668368	1
6	491	1104.045280343037	0
6	499	1119.223715317434	0
6	503	1121.890324746436	1
6	504	1122.50008930623	1
6	506	1123.663479696237	1
6	507	1126.576161893806	1
6	508	1129.246760336538	0
6	524	1186.897939430832	0
6	526	1191.951539220539	1
6	527	1194.531582698996	1
6	528	1196.964507296069	0
6	532	1202.276890746692	0
6	536	1207.192094069512	1
6	537	1208.358113773572	1
6	540	1209.53991184792	0
6	543	1212.083298246598	0
6	544	1215.551858653735	0
6	557	1247.010455122903	0
6	558	1247.592835229161	0
6	565	1272.276126545475	0
6	566	1273.536855029527	0
6	569	1284.608791838486	0
6	572	1288.233348716456	0
6	613	1387.632399260903	0
6	614	1391.344060123739	0
6	617	1403.412013724196	0
6	620	1408.643338676611	0
6	622	1409.315926484005	0
6	623	1411.877979725099	0
6	637	1440.302525160037	0
6	642	1456.918114099939	0
6	646	1462.555294735073	0
6	647	1466.124470971325	0
6	662	1489.486066902343	0
6	665	1491.84486004164	0
6	671	1507.762238717833	0
6	672	1510.267672675351	0
6	677	1533.228522866138	0
6	680	1535.008735674404	0
6	692	1558.498177338543	0
6	699	1568.5062680006	0
6	705	1590.470735222049	0
6	706	1593.724008140506	0
6	728	1645.874418155944	0
6	729	1653.925388468306	0
6	740	1688.598277283569	0
6	742	1697.269698461538	1
6	745	1706.022462506713	1
6	746	1708.095246945587	0
6	755	1731.744765826945	0
6	756	1732.833408823775	0
6	761	1737.595552176882	0
6	762	1742.271070383622	0
6	767	1744.899527686484	0
6	768	1745.746449195355	0
6	770	1755.198627303625	0
6	771	1756.975301329669	0
6	776	1782.557906561692	0
6	777	1783.037517820505	0
6	784	1810.00658113624	0
6	789	1813.323187661217	0
6	794	1819.834207241802	0
6	797	1824.192310034114	0
6	803	1845.586409673488	0
6	804	1847.980975171309	0
6	809	1858.271437782732	0
6	810	1860.313956164906	0
6	812	1868.692586631094	0
6	817	1874.584132385835	0
6	830	1893.453134115984	0
6	831	1895.280721492686	0
6	864	1984.3531764257	0
6	865	1986.89743729674	0
6	872	1993.439770634155	0
6	878	2005.414674315447	1
6	879	2007.400011960187	1
6	880	2010.779805265395	0
6	893	2057.829292268349	0
6	898	2060.953290177673	0
6	902	2067.19127090892	0
6	905	2074.179321901899	0
6	912	2093.540604683601	0
6	913	2096.524831857768	0
6	917	2118.272495163052	0
6	920	2121.202436126972	0
6	923	2123.862463980623	0
6	925	2125.583614538701	1
6	930	2147.42867283489	1
6	932	2148.351335550223	1
6	936	2158.513685384924	2
6	938	2159.742235841395	3
6	939	2160.458026963037	3
6	942	2169.135893426733	2
6	943	2170.230403605518	1
6	944	2172.543350240973	0
6	951	2189.21250810744	0
6	960	2196.645132816042	0
6	978	2228.011412246586	0
6	979	2229.975789284988	0
6	992	2256.953625658148	0
6	993	2259.972183774502	0
6	998	2270.467559923692	0
6	999	2274.323549001005	0
6	1003	2277.145134657383	0
6	1004	2280.202674805453	0
6	1010	2292.356304954715	0
6	1012	2296.559424856657	1
6	1013	2297.725343894775	1
6	1015	2299.848805152245	1
6	1016	2303.259225968229	1
6	1019	2309.143918661298	0
6	1022	2312.593632662147	0
6	1023	2316.663864549277	0
6	1027	2345.24593224152	0
6	1028	2346.895590671478	0
6	1031	2353.399464487008	0
6	1032	2356.347181497039	0
6	1043	2372.427930054302	0
6	1044	2375.285336733563	0
6	1051	2398.96845263205	0
6	1052	2398.97630607258	0
6	1056	2404.701489116181	0
6	1058	2408.893875339512	1
6	1061	2410.753668135529	1
6	1062	2411.286067437597	0
6	1065	2418.968326914021	0
6	1066	2422.152432973786	0
6	1072	2427.010862944216	0
6	1073	2433.807698171448	0
6	1079	2443.433928593672	0
6	1080	2451.805190958178	0
6	1092	2480.621220096792	0
6	1093	2484.708070596515	0
6	1096	2496.852317827315	0
7	142	369.375255317272	6
7	171	415.788676091801	7
7	194	480.431995840156	8
7	298	767.120392425216	9
7	320	789.815789590426	10
7	347	831.608480159845	11
7	360	863.970073409175	12
7	382	898.688180290939	13
7	392	910.944778126664	14
7	409	934.472084532428	15
7	425	959.834294333765	16
7	436	995.44102465029	17
7	445	1004.276199296497	18
7	475	1050.110245986447	19
7	499	1119.223715317434	20
7	532	1202.276890746692	21
7	543	1212.083298246598	22
7	565	1272.276126545475	23
7	613	1387.632399260903	24
7	622	1409.315926484005	25
7	637	1440.302525160037	26
7	646	1462.555294735073	27
7	692	1558.498177338543	28
7	705	1590.470735222049	29
7	784	1810.00658113624	30
7	794	1819.834207241802	31
7	864	1984.3531764257	32
7	872	1993.439770634155	33
7	912	2093.540604683601	34
7	951	2189.21250810744	35
7	978	2228.011412246586	36
7	1003	2277.145134657383	37
7	1027	2345.24593224152	38
7	1051	2398.96845263205	39
7	1056	2404.701489116181	40
7	1065	2418.968326914021	41
7	1072	2427.010862944216	42
7	1079	2443.433928593672	43
7	1092	2480.621220096792	44
7	1096	2496.852317827315	45
8	142	369.375255317272	0
8	158	404.258574086135	0
8	171	415.788676091801	0
8	179	443.919676013075	0
8	185	470.546870107225	0
8	194	480.431995840156	0
8	200	495.029730108993	0
8	203	500.513567475372	0
8	212	517.809300423735	0
8	215	521.192237302952	0
8	221	541.925002229654	0
8	227	567.695925539455	0
8	269	660.252978140038	0
8	278	709.366630100926	0
8	287	743.646848964604	0
8	290	756.458935907148	0
8	298	767.120392425216	0
8	320	789.815789590426	0
8	347	831.608480159845	0
8	360	863.970073409175	0
8	382	898.688180290939	0
8	392	910.944778126664	0
8	395	918.586202758577	6.521136125145
8	409	934.472084532428	0
8	425	959.834294333765	0
8	430	976.325084663618	13.291060709724
8	436	995.44102465029	0
8	445	1004.276199296497	0
8	455	1030.943152599568	0
8	475	1050.110245986447	0
8	482	1074.807943387107	0
8	487	1087.998634168898	1.504458388522
8	490	1103.259265668368	1.193739669758
8	499	1119.223715317434	0
8	504	1122.50008930623	0.609764559794
8	507	1126.576161893806	2.912682197569
8	524	1186.897939430832	0
8	527	1194.531582698996	2.580043478457
8	532	1202.276890746692	0
8	537	1208.358113773572	1.16601970406
8	543	1212.083298246598	0
8	557	1247.010455122903	0
8	565	1272.276126545475	0
8	569	1284.608791838486	0
8	613	1387.632399260903	0
8	617	1403.412013724196	0
8	622	1409.315926484005	0
8	637	1440.302525160037	0
8	646	1462.555294735073	0
8	662	1489.486066902343	0
8	671	1507.762238717833	0
8	677	1533.228522866138	0
8	692	1558.498177338543	0
8	705	1590.470735222049	0
8	728	1645.874418155944	0
8	740	1688.598277283569	0
8	745	1706.022462506713	8.752764045175
8	755	1731.744765826945	0
8	761	1737.595552176882	0
8	767	1744.899527686484	0
8	770	1755.198627303625	0
8	776	1782.557906561692	0
8	784	1810.00658113624	0
8	794	1819.834207241802	0
8	803	1845.586409673488	0
8	809	1858.271437782732	0
8	812	1868.692586631094	0
8	830	1893.453134115984	0
8	864	1984.3531764257	0
8	872	1993.439770634155	0
8	879	2007.400011960187	1.98533764474
8	893	2057.829292268349	0
8	902	2067.19127090892	0
8	912	2093.540604683601	0
8	917	2118.272495163052	0
8	923	2123.862463980623	0
8	930	2147.42867283489	21.845058296189
8	939	2160.458026963037	12.106691412814
8	942	2169.135893426733	10.622208041809
8	943	2170.230403605518	10.488167764123
8	951	2189.21250810744	0
8	978	2228.011412246586	0
8	992	2256.953625658148	0
8	998	2270.467559923692	0
8	1003	2277.145134657383	0
8	1010	2292.356304954715	0
8	1013	2297.725343894775	1.165919038118
8	1016	2303.259225968229	3.410420815984
8	1022	2312.593632662147	0
8	1027	2345.24593224152	0
8	1031	2353.399464487008	0
8	1043	2372.427930054302	0
8	1051	2398.96845263205	0
8	1056	2404.701489116181	0
8	1061	2410.753668135529	1.859792796017
8	1065	2418.968326914021	0
8	1072	2427.010862944216	0
8	1079	2443.433928593672	0
8	1092	2480.621220096792	0
8	1096	2496.852317827315	0
9	145	373.186272445956	19
9	161	408.385103601479	20
9	172	422.042346009916	21
9	180	455.090415261281	22
9	192	479.502575553345	23
9	195	482.641516125292	24
9	201	497.667282117742	25
9	204	503.25879045164	26
9	213	518.184459215293	27
9	218	527.362533241191	28
9	222	543.794352588129	29
9	230	573.832327342745	30
9	270	673.471894894271	31
9	281	715.880133724575	32
9	288	744.966941361987	33
9	293	758.794271945217	34
9	305	770.429776606636	35
9	327	804.404773366679	36
9	352	846.329995133611	37
9	361	865.645388758187	38
9	383	898.826859800283	39
9	395	918.586202758577	40
9	400	923.63335464294	41
9	412	936.090343330041	42
9	430	976.325084663618	43
9	431	986.806918723197	44
9	437	996.880694730873	45
9	448	1005.327933409247	46
9	462	1035.316519252561	47
9	478	1058.71384163245	48
9	487	1087.998634168898	49
9	490	1103.259265668368	50
9	491	1104.045280343037	51
9	504	1122.50008930623	52
9	507	1126.576161893806	53
9	508	1129.246760336538	54
9	527	1194.531582698996	55
9	528	1196.964507296069	56
9	537	1208.358113773572	57
9	540	1209.53991184792	58
9	544	1215.551858653735	59
9	558	1247.592835229161	60
9	566	1273.536855029527	61
9	572	1288.233348716456	62
9	614	1391.344060123739	63
9	620	1408.643338676611	64
9	623	1411.877979725099	65
9	642	1456.918114099939	66
9	647	1466.124470971325	67
9	665	1491.84486004164	68
9	672	1510.267672675351	69
9	680	1535.008735674404	70
9	699	1568.5062680006	71
9	706	1593.724008140506	72
9	729	1653.925388468306	73
9	745	1706.022462506713	74
9	746	1708.095246945587	75
9	756	1732.833408823775	76
9	762	1742.271070383622	77
9	768	1745.746449195355	78
9	771	1756.975301329669	79
9	777	1783.037517820505	80
9	789	1813.323187661217	81
9	797	1824.192310034114	82
9	804	1847.980975171309	83
9	810	1860.313956164906	84
9	817	1874.584132385835	85
9	831	1895.280721492686	86
9	865	1986.89743729674	87
9	879	2007.400011960187	88
9	880	2010.779805265395	89
9	898	2060.953290177673	90
9	905	2074.179321901899	91
9	913	2096.524831857768	92
9	920	2121.202436126972	93
9	930	2147.42867283489	94
9	939	2160.458026963037	95
9	942	2169.135893426733	96
9	943	2170.230403605518	97
9	944	2172.543350240973	98
9	960	2196.645132816042	99
9	979	2229.975789284988	100
9	993	2259.972183774502	101
9	999	2274.323549001005	102
9	1004	2280.202674805453	103
9	1013	2297.725343894775	104
9	1016	2303.259225968229	105
9	1019	2309.143918661298	106
9	1023	2316.663864549277	107
9	1028	2346.895590671478	108
9	1032	2356.347181497039	109
9	1044	2375.285336733563	110
9	1052	2398.97630607258	111
9	1061	2410.753668135529	112
9	1062	2411.286067437597	113
9	1066	2422.152432973786	114
9	1073	2433.807698171448	115
9	1080	2451.805190958178	116
9	1093	2484.708070596515	117
10	145	373.186272445956	3.811017128684
10	161	408.385103601479	4.126529515344
10	172	422.042346009916	6.253669918115
10	180	455.090415261281	11.170739248206
10	192	479.502575553345	8.95570544612
10	195	482.641516125292	2.209520285136
10	201	497.667282117742	2.637552008749
10	204	503.25879045164	2.745222976268
10	213	518.184459215293	0.375158791558
10	218	527.362533241191	6.170295938239
10	222	543.794352588129	1.869350358475
10	230	573.832327342745	6.13640180329
10	270	673.471894894271	13.218916754233
10	281	715.880133724575	6.513503623649
10	288	744.966941361987	1.320092397383
10	293	758.794271945217	2.335336038069
10	305	770.429776606636	3.30938418142
10	327	804.404773366679	14.588983776253
10	352	846.329995133611	14.721514973766
10	361	865.645388758187	1.675315349012
10	383	898.826859800283	0.138679509344
10	395	918.586202758577	7.641424631913
10	400	923.63335464294	11.568288009508
10	412	936.090343330041	1.618258797613
10	430	976.325084663618	16.490790329853
10	431	986.806918723197	23.772894769303
10	437	996.880694730873	1.439670080583
10	448	1005.327933409247	1.05173411275
10	462	1035.316519252561	4.373366652993
10	478	1058.71384163245	8.603595646003
10	487	1087.998634168898	13.190690781791
10	490	1103.259265668368	16.765089887992
10	491	1104.045280343037	1.979754344427
10	504	1122.50008930623	3.276373988796
10	507	1126.576161893806	4.68583714737
10	508	1129.246760336538	5.583280640301
10	527	1194.531582698996	7.633643268164
10	528	1196.964507296069	5.01296807553
10	537	1208.358113773572	6.08122302688
10	540	1209.53991184792	2.347817778408
10	544	1215.551858653735	3.468560407137
10	558	1247.592835229161	0.582380106258
10	566	1273.536855029527	1.260728484052
10	572	1288.233348716456	3.62455687797
10	614	1391.344060123739	3.711660862836
10	620	1408.643338676611	5.231324952415
10	623	1411.877979725099	2.562053241094
10	642	1456.918114099939	16.615588939902
10	647	1466.124470971325	3.569176236252
10	665	1491.84486004164	2.358793139297
10	672	1510.267672675351	2.505433957518
10	680	1535.008735674404	1.780212808266
10	699	1568.5062680006	10.008090662057
10	706	1593.724008140506	3.253272918457
10	729	1653.925388468306	8.050970312362
10	745	1706.022462506713	17.424185223144
10	746	1708.095246945587	10.825548484049
10	756	1732.833408823775	1.08864299683
10	762	1742.271070383622	4.67551820674
10	768	1745.746449195355	0.846921508871
10	771	1756.975301329669	1.776674026044
10	777	1783.037517820505	0.479611258813
10	789	1813.323187661217	3.316606524977
10	797	1824.192310034114	4.358102792312
10	804	1847.980975171309	2.394565497821
10	810	1860.313956164906	2.042518382174
10	817	1874.584132385835	5.891545754741
10	831	1895.280721492686	1.827587376702
10	865	1986.89743729674	2.54426087104
10	879	2007.400011960187	13.960241326032
10	880	2010.779805265395	5.365130949948
10	898	2060.953290177673	3.123997909324
10	905	2074.179321901899	6.988050992979
10	913	2096.524831857768	2.984227174167
10	920	2121.202436126972	2.92994096392
10	930	2147.42867283489	23.566208854267
10	939	2160.458026963037	34.874412424336
10	942	2169.135893426733	20.78455787651
10	943	2170.230403605518	11.716718220594
10	944	2172.543350240973	12.801114399578
10	960	2196.645132816042	7.432624708602
10	979	2229.975789284988	1.964377038402
10	993	2259.972183774502	3.018558116354
10	999	2274.323549001005	3.855989077313
10	1004	2280.202674805453	3.05754014807
10	1013	2297.725343894775	5.36903894006
10	1016	2303.259225968229	6.699801111572
10	1019	2309.143918661298	9.295113509053
10	1023	2316.663864549277	4.07023188713
10	1028	2346.895590671478	1.649658429958
10	1032	2356.347181497039	2.947717010031
10	1044	2375.285336733563	2.857406679261
10	1052	2398.97630607258	0.00785344053
10	1061	2410.753668135529	6.052179019348
10	1062	2411.286067437597	2.392192098085
10	1066	2422.152432973786	3.184106059765
10	1073	2433.807698171448	6.796835227232
10	1080	2451.805190958178	8.371262364506
10	1093	2484.708070596515	4.086850499723
11	1097	2500	0.0988
12	1097	2500	0.0468

