version 2
run experiments_easy_game_mode1-1450-20230308-12:07:09-26038
attr configname experiments_easy_game_mode1
attr datetime 20230308-12:07:09
attr experiment experiments_easy_game_mode1
attr inifile omnetpp.ini
attr iterationvars "$0=7, $1=1, $2=0"
attr iterationvarsf 7,1,0-
attr measurement "$0=7, $1=1, $2=0"
attr network Network
attr processid 26038
attr repetition 10
attr replication #10
attr resultdir results
attr runnumber 1450
attr seedset 10
param *.boss.arrival_mean 20
param *.boss.service_mean 7
param *.minion.arrival_mean 10
param *.minion.service_mean 1
param *.player.recover_rate_x 0
param **.minion.arrival_distribution 0
param **.minion.service_distribution 0
param **.boss.arrival_distribution 0
param **.boss.service_distribution 0

vector 0 Network.player boss_defeated_stat:vector ETV
attr source signal_boss_defeated
vector 1 Network.player boss_jobs_queue_number_stat:vector ETV
attr source signal_boss_jobs_queue_number
vector 2 Network.player boss_response_time_stat:vector ETV
attr source signal_boss_response_time
vector 3 Network.player boss_waiting_time_stat:vector ETV
attr source signal_boss_waiting_time
vector 4 Network.player minion_waiting_time_stat:vector ETV
attr source signal_minion_waiting_time
vector 5 Network.player minion_defeated_stat:vector ETV
attr source signal_minion_defeated
vector 6 Network.player minion_jobs_queue_number_stat:vector ETV
attr source signal_minion_jobs_queue_number
vector 7 Network.player minion_response_time_stat:vector ETV
attr source signal_minion_response_time
vector 8 Network.player minion_jobs_number_stat:vector ETV
attr source signal_minion_jobs_number
vector 9 Network.player boss_jobs_number_stat:vector ETV
attr source signal_boss_jobs_number
vector 10 Network.player minion_recovered_stat:vector ETV
attr source signal_minion_recovered
vector 11 Network.player minion_throughput:vector ETV
attr source signal_minion_throughput
vector 12 Network.player boss_throughput:vector ETV
attr source signal_boss_throughput
0	171	350.195326475439	20
0	172	353.712435963767	21
0	173	354.828424502645	22
0	202	431.1623722939	23
0	210	445.50633540098	24
0	219	483.210634221353	25
0	240	541.366282554729	26
0	245	542.13070744133	27
0	256	563.798265676207	28
0	259	577.90164057047	29
0	292	648.532228765342	30
0	293	650.280698920358	31
0	304	673.467189168476	32
0	305	677.101422149618	33
0	315	698.383341399421	34
0	320	709.834327336919	35
0	321	711.129210403495	36
0	326	719.185652409168	37
0	329	722.949059655945	38
0	341	738.949029678849	39
0	350	748.266889855658	40
0	372	773.015687202205	41
0	377	779.799313346098	42
0	382	804.695702277608	43
0	383	808.315604217921	44
0	384	811.722826672754	45
0	420	868.161167282228	46
0	429	889.789641508788	47
0	432	895.458427948248	48
0	433	899.589509543278	49
0	434	903.510983993632	50
0	447	920.690558405843	51
0	455	933.255928366248	52
0	459	937.260108575062	53
0	462	948.129411551485	54
0	469	976.656152539641	55
0	480	1044.039688674635	56
0	483	1062.929478563543	57
0	500	1084.241962116325	58
0	501	1086.371534161893	59
0	516	1116.121217019266	60
0	519	1132.036154403689	61
0	538	1158.634400861563	62
0	539	1164.119006756591	63
0	551	1174.641456925712	64
0	552	1179.159912118982	65
0	559	1191.351410818153	66
0	597	1238.689705465562	67
0	603	1289.86687089025	68
0	649	1382.819096173916	69
0	650	1386.356414166003	70
0	661	1422.405495347362	71
0	674	1436.922652018632	72
0	681	1453.790187222117	73
0	688	1476.948813485906	74
0	689	1482.163665628729	75
0	698	1493.260855742118	76
0	701	1494.029707850036	77
0	702	1494.912240369572	78
0	705	1496.30920879658	79
0	714	1515.723498483699	80
0	717	1537.132745464426	81
0	718	1538.298916857349	82
0	719	1542.015555489205	83
0	737	1568.856980366399	84
0	748	1582.875231704093	85
0	751	1589.448528354544	86
0	762	1624.697050609141	87
0	767	1628.961365784307	88
0	776	1639.736792765209	89
0	785	1657.591914687075	90
0	792	1660.805190884615	91
0	811	1705.554978618477	92
0	816	1721.449007969913	93
0	817	1722.462745901614	94
0	818	1724.085311432989	95
0	828	1736.02260645644	96
0	838	1744.048695025952	97
0	849	1774.605415015442	98
0	856	1809.935595068528	99
0	859	1815.257096385087	100
0	876	1841.089662865547	101
0	888	1871.290282928443	102
0	902	1902.680729578839	103
0	911	1917.005427545384	104
0	924	1972.365555766804	105
0	942	1987.13693708689	106
0	957	2025.415017511206	107
0	972	2077.224074124962	108
0	982	2101.26811341362	109
0	1000	2123.996540045689	110
0	1014	2172.721166836859	111
0	1017	2177.425668667287	112
0	1022	2186.678134779194	113
0	1026	2199.830084835806	114
0	1029	2208.71588676047	115
0	1036	2225.359899806222	116
0	1037	2231.943264405477	117
0	1052	2280.791806037517	118
0	1064	2294.096141745224	119
0	1092	2338.053697073727	120
0	1093	2339.669121391353	121
0	1107	2374.926691373565	122
0	1108	2376.481362963736	123
0	1125	2401.030177399129	124
0	1141	2431.499756624484	125
0	1149	2443.148217776544	126
0	1152	2449.28062572136	127
1	171	350.195326475439	2
1	172	353.712435963767	1
1	173	354.828424502645	0
1	199	419.824288542282	0
1	202	431.1623722939	0
1	209	445.426883461239	0
1	210	445.50633540098	0
1	218	481.155473799364	0
1	219	483.210634221353	0
1	239	536.946986058516	0
1	240	541.366282554729	0
1	242	541.720738592907	0
1	244	541.736319955185	1
1	245	542.13070744133	1
1	247	545.749899725905	1
1	256	563.798265676207	1
1	259	577.90164057047	0
1	287	642.852204457678	0
1	289	646.904432915695	1
1	292	648.532228765342	1
1	293	650.280698920358	0
1	301	666.123998518003	0
1	303	673.379073049835	1
1	304	673.467189168476	1
1	305	677.101422149618	0
1	314	692.296201596188	0
1	315	698.383341399421	0
1	317	707.174758416955	0
1	319	707.316586279335	1
1	320	709.834327336919	1
1	321	711.129210403495	0
1	323	718.627327699064	0
1	325	719.093978241006	1
1	326	719.185652409168	1
1	329	722.949059655945	0
1	332	725.978438086876	0
1	341	738.949029678849	0
1	345	740.857761909457	0
1	350	748.266889855658	0
1	359	759.785179545867	0
1	367	769.99705848	1
1	371	773.001749095169	2
1	372	773.015687202205	2
1	374	773.957541426202	2
1	377	779.799313346098	2
1	379	780.867851638882	2
1	382	804.695702277608	2
1	383	808.315604217921	1
1	384	811.722826672754	0
1	407	853.673845421965	0
1	411	862.799389841877	1
1	419	868.098797839271	2
1	420	868.161167282228	2
1	426	880.277491819915	2
1	428	882.177038103687	3
1	429	889.789641508788	3
1	432	895.458427948248	2
1	433	899.589509543278	1
1	434	903.510983993632	0
1	446	912.935758198835	0
1	447	920.690558405843	0
1	452	932.202672012874	0
1	455	933.255928366248	0
1	458	936.657389288969	0
1	459	937.260108575062	0
1	461	946.297682443241	0
1	462	948.129411551485	0
1	464	960.738265453186	0
1	469	976.656152539641	0
1	479	1042.502595974247	0
1	480	1044.039688674635	0
1	482	1060.452690583967	0
1	483	1062.929478563543	0
1	491	1073.028472791389	0
1	493	1073.979749661901	1
1	500	1084.241962116325	1
1	501	1086.371534161893	0
1	515	1113.293494763991	0
1	516	1116.121217019266	0
1	518	1132.000155132253	0
1	519	1132.036154403689	0
1	533	1154.808071207918	0
1	537	1158.547296278815	1
1	538	1158.634400861563	1
1	539	1164.119006756591	0
1	542	1170.522199205898	0
1	546	1171.867477851254	1
1	548	1172.13455232041	2
1	551	1174.641456925712	2
1	552	1179.159912118982	1
1	559	1191.351410818153	0
1	596	1231.608305717097	0
1	597	1238.689705465562	0
1	602	1288.624242739881	0
1	603	1289.86687089025	0
1	644	1356.036850805122	0
1	646	1372.606487445524	1
1	649	1382.819096173916	1
1	650	1386.356414166003	0
1	656	1405.653119015198	0
1	658	1415.389328740932	1
1	661	1422.405495347362	1
1	663	1422.655085990457	1
1	665	1422.976987813847	2
1	669	1425.03253417898	3
1	673	1430.283059070374	4
1	674	1436.922652018632	4
1	680	1453.338074498799	4
1	681	1453.790187222117	4
1	683	1458.853815662555	4
1	687	1470.455632448849	5
1	688	1476.948813485906	5
1	689	1482.163665628729	4
1	698	1493.260855742118	3
1	700	1493.449335598144	3
1	701	1494.029707850036	3
1	702	1494.912240369572	2
1	704	1496.052380205525	2
1	705	1496.30920879658	2
1	713	1514.884379549808	2
1	714	1515.723498483699	2
1	716	1528.555324124831	2
1	717	1537.132745464426	2
1	718	1538.298916857349	1
1	719	1542.015555489205	0
1	734	1564.373909976404	0
1	736	1565.073784446035	1
1	737	1568.856980366399	1
1	739	1568.88161662372	1
1	748	1582.875231704093	1
1	751	1589.448528354544	0
1	761	1616.890074396541	0
1	762	1624.697050609141	0
1	764	1626.810805176556	0
1	767	1628.961365784307	0
1	771	1632.799960695581	0
1	775	1636.823592669957	1
1	776	1639.736792765209	1
1	785	1657.591914687075	0
1	791	1658.548708404319	0
1	792	1660.805190884615	0
1	800	1686.708174305305	0
1	802	1694.179105853179	1
1	810	1705.252233173425	2
1	811	1705.554978618477	2
1	815	1719.93445107556	2
1	816	1721.449007969913	2
1	817	1722.462745901614	1
1	818	1724.085311432989	0
1	821	1724.59685573388	0
1	828	1736.02260645644	0
1	837	1740.42133159935	0
1	838	1744.048695025952	0
1	842	1757.194056480443	0
1	844	1761.281828584842	1
1	846	1761.918109262225	2
1	849	1774.605415015442	2
1	856	1809.935595068528	1
1	859	1815.257096385087	0
1	875	1831.77425238343	0
1	876	1841.089662865547	0
1	887	1868.713537013691	0
1	888	1871.290282928443	0
1	899	1898.558444776125	0
1	902	1902.680729578839	0
1	910	1910.506246022932	0
1	911	1917.005427545384	0
1	923	1966.608133512492	0
1	924	1972.365555766804	0
1	935	1976.663636876505	0
1	942	1987.13693708689	0
1	956	2021.706676798273	0
1	957	2025.415017511206	0
1	971	2073.959348802285	0
1	972	2077.224074124962	0
1	977	2092.180436930985	0
1	982	2101.26811341362	0
1	995	2118.166042985004	0
1	1000	2123.996540045689	0
1	1013	2169.154750841632	0
1	1014	2172.721166836859	0
1	1016	2177.061307273094	0
1	1017	2177.425668667287	0
1	1019	2178.914416394662	0
1	1022	2186.678134779194	0
1	1025	2195.814478513715	0
1	1026	2199.830084835806	0
1	1028	2200.177172437229	0
1	1029	2208.71588676047	0
1	1031	2214.891347264506	0
1	1033	2215.816986545285	1
1	1036	2225.359899806222	1
1	1037	2231.943264405477	0
1	1051	2280.78927417951	0
1	1052	2280.791806037517	0
1	1063	2288.659915777357	0
1	1064	2294.096141745224	0
1	1085	2325.886460952761	0
1	1089	2335.729066720743	1
1	1092	2338.053697073727	1
1	1093	2339.669121391353	0
1	1100	2363.241703758442	0
1	1102	2369.572912620892	1
1	1107	2374.926691373565	1
1	1108	2376.481362963736	0
1	1118	2385.090107213244	0
1	1125	2401.030177399129	0
1	1136	2420.381264551342	0
1	1141	2431.499756624484	0
1	1148	2438.055371942036	0
1	1149	2443.148217776544	0
1	1151	2446.879911890008	0
1	1152	2449.28062572136	0
2	171	350.195326475439	2.019474265233
2	172	353.712435963767	5.120597502317
2	173	354.828424502645	5.075282042822
2	202	431.1623722939	11.338083751618
2	210	445.50633540098	0.079451939741
2	219	483.210634221353	2.055160421989
2	240	541.366282554729	4.419296496213
2	245	542.13070744133	0.409968848423
2	256	563.798265676207	22.061945721022
2	259	577.90164057047	32.151740844565
2	292	648.532228765342	5.680024307664
2	293	650.280698920358	3.376266004663
2	304	673.467189168476	7.343190650473
2	305	677.101422149618	3.722349099783
2	315	698.383341399421	6.087139803233
2	320	709.834327336919	2.659568919964
2	321	711.129210403495	3.81262412416
2	326	719.185652409168	0.558324710104
2	329	722.949059655945	3.855081414939
2	341	738.949029678849	12.970591591973
2	350	748.266889855658	7.409127946201
2	372	773.015687202205	13.230507656338
2	377	779.799313346098	9.802254866098
2	382	804.695702277608	31.693953182439
2	383	808.315604217921	34.358062791719
2	384	811.722826672754	30.854975033872
2	420	868.161167282228	14.487321860263
2	429	889.789641508788	26.990251666911
2	432	895.458427948248	27.359630108977
2	433	899.589509543278	19.312017723363
2	434	903.510983993632	21.333945889945
2	447	920.690558405843	7.754800207008
2	455	933.255928366248	1.053256353374
2	459	937.260108575062	0.602719286093
2	462	948.129411551485	1.831729108244
2	469	976.656152539641	15.917887086455
2	480	1044.039688674635	1.537092700388
2	483	1062.929478563543	2.476787979576
2	500	1084.241962116325	11.213489324936
2	501	1086.371534161893	12.391784499992
2	516	1116.121217019266	2.827722255275
2	519	1132.036154403689	0.035999271436
2	538	1158.634400861563	3.826329653645
2	539	1164.119006756591	5.571710477776
2	551	1174.641456925712	4.119257719814
2	552	1179.159912118982	7.292434267728
2	559	1191.351410818153	19.216858497743
2	597	1238.689705465562	7.081399748465
2	603	1289.86687089025	1.242628150369
2	649	1382.819096173916	26.782245368794
2	650	1386.356414166003	13.749926720479
2	661	1422.405495347362	16.752376332164
2	674	1436.922652018632	21.5333232777
2	681	1453.790187222117	31.13510123166
2	688	1476.948813485906	53.971825672059
2	689	1482.163665628729	57.131131449749
2	698	1493.260855742118	62.977796671744
2	701	1494.029707850036	40.691633351237
2	702	1494.912240369572	36.058424707017
2	705	1496.30920879658	25.853576347731
2	714	1515.723498483699	22.274162885555
2	717	1537.132745464426	41.080365258901
2	718	1538.298916857349	23.414537307541
2	719	1542.015555489205	13.460231364374
2	737	1568.856980366399	4.483070389995
2	748	1582.875231704093	17.801447258058
2	751	1589.448528354544	20.566911730824
2	762	1624.697050609141	7.8069762126
2	767	1628.961365784307	2.150560607751
2	776	1639.736792765209	6.936832069628
2	785	1657.591914687075	20.768322017118
2	792	1660.805190884615	2.256482480296
2	811	1705.554978618477	18.846804313172
2	816	1721.449007969913	27.269902116734
2	817	1722.462745901614	17.210512728189
2	818	1724.085311432989	4.150860357429
2	828	1736.02260645644	11.42575072256
2	838	1744.048695025952	3.627363426602
2	849	1774.605415015442	17.411358534999
2	856	1809.935595068528	48.653766483686
2	859	1815.257096385087	53.338987122862
2	876	1841.089662865547	9.315410482117
2	888	1871.290282928443	2.576745914752
2	902	1902.680729578839	4.122284802714
2	911	1917.005427545384	6.499181522452
2	924	1972.365555766804	5.757422254312
2	942	1987.13693708689	10.473300210385
2	957	2025.415017511206	3.708340712933
2	972	2077.224074124962	3.264725322677
2	982	2101.26811341362	9.087676482635
2	1000	2123.996540045689	5.830497060685
2	1014	2172.721166836859	3.566415995227
2	1017	2177.425668667287	0.364361394193
2	1022	2186.678134779194	7.763718384532
2	1026	2199.830084835806	4.015606322091
2	1029	2208.71588676047	8.538714323241
2	1036	2225.359899806222	10.468552541716
2	1037	2231.943264405477	16.126277860192
2	1052	2280.791806037517	0.002531858007
2	1064	2294.096141745224	5.436225967867
2	1092	2338.053697073727	12.167236120966
2	1093	2339.669121391353	3.94005467061
2	1107	2374.926691373565	11.684987615123
2	1108	2376.481362963736	6.908450342844
2	1125	2401.030177399129	15.940070185885
2	1141	2431.499756624484	11.118492073142
2	1149	2443.148217776544	5.092845834508
2	1152	2449.28062572136	2.400713831352
3	171	350.195326475439	1.603488013989
3	172	353.712435963767	3.959293503944
3	199	419.824288542282	0
3	209	445.426883461239	0
3	218	481.155473799364	0
3	239	536.946986058516	0
3	242	541.720738592907	0
3	245	542.13070744133	0.394387486145
3	256	563.798265676207	18.048365950302
3	287	642.852204457678	0
3	292	648.532228765342	1.627795849647
3	301	666.123998518003	0
3	304	673.467189168476	0.088116118641
3	314	692.296201596188	0
3	317	707.174758416955	0
3	320	709.834327336919	2.517741057584
3	323	718.627327699064	0
3	326	719.185652409168	0.091674168162
3	332	725.978438086876	0
3	345	740.857761909457	0
3	359	759.785179545867	0
3	372	773.015687202205	3.018628722205
3	377	779.799313346098	6.797564250929
3	382	804.695702277608	30.738160851406
3	383	808.315604217921	27.447752579039
3	407	853.673845421965	0
3	420	868.161167282228	5.361777440351
3	429	889.789641508788	21.690843669517
3	432	895.458427948248	15.180936128333
3	433	899.589509543278	17.412471439591
3	446	912.935758198835	0
3	452	932.202672012874	0
3	458	936.657389288969	0
3	461	946.297682443241	0
3	464	960.738265453186	0
3	479	1042.502595974247	0
3	482	1060.452690583967	0
3	491	1073.028472791389	0
3	500	1084.241962116325	10.262212454424
3	515	1113.293494763991	0
3	518	1132.000155132253	0
3	533	1154.808071207918	0
3	538	1158.634400861563	0.087104582748
3	542	1170.522199205898	0
3	551	1174.641456925712	2.773979074458
3	552	1179.159912118982	7.025359798572
3	596	1231.608305717097	0
3	602	1288.624242739881	0
3	644	1356.036850805122	0
3	649	1382.819096173916	10.212608728392
3	656	1405.653119015198	0
3	661	1422.405495347362	7.01616660643
3	674	1436.922652018632	14.267566028175
3	681	1453.790187222117	30.81319940827
3	688	1476.948813485906	51.916279306926
3	689	1482.163665628729	51.880606558355
3	698	1493.260855742118	39.922781243319
3	701	1494.029707850036	35.175892187481
3	702	1494.912240369572	24.456607920723
3	705	1496.30920879658	2.859873198436
3	714	1515.723498483699	19.671118278174
3	717	1537.132745464426	22.248365914618
3	718	1538.298916857349	9.743592732518
3	734	1564.373909976404	0
3	737	1568.856980366399	3.783195920364
3	748	1582.875231704093	13.993615080373
3	761	1616.890074396541	0
3	764	1626.810805176556	0
3	771	1632.799960695581	0
3	776	1639.736792765209	2.913200095252
3	791	1658.548708404319	0
3	800	1686.708174305305	0
3	811	1705.554978618477	11.375872765298
3	816	1721.449007969913	16.196774796488
3	817	1722.462745901614	2.528294826054
3	821	1724.59685573388	0
3	837	1740.42133159935	0
3	842	1757.194056480443	0
3	849	1774.605415015442	13.3235864306
3	856	1809.935595068528	48.017485806303
3	875	1831.77425238343	0
3	887	1868.713537013691	0
3	899	1898.558444776125	0
3	910	1910.506246022932	0
3	923	1966.608133512492	0
3	935	1976.663636876505	0
3	956	2021.706676798273	0
3	971	2073.959348802285	0
3	977	2092.180436930985	0
3	995	2118.166042985004	0
3	1013	2169.154750841632	0
3	1016	2177.061307273094	0
3	1019	2178.914416394662	0
3	1025	2195.814478513715	0
3	1028	2200.177172437229	0
3	1031	2214.891347264506	0
3	1036	2225.359899806222	9.542913260937
3	1051	2280.78927417951	0
3	1063	2288.659915777357	0
3	1085	2325.886460952761	0
3	1092	2338.053697073727	2.324630352984
3	1100	2363.241703758442	0
3	1107	2374.926691373565	5.353778752673
3	1118	2385.090107213244	0
3	1136	2420.381264551342	0
3	1148	2438.055371942036	0
3	1151	2446.879911890008	0
4	173	354.828424502645	5.488280852604
4	176	367.376450425266	0
4	179	384.176460755635	0
4	182	386.436038687455	0
4	185	391.952056832985	0
4	188	393.866115821959	0
4	191	404.473974224828	0
4	194	410.436848643051	0
4	197	418.962261761174	0
4	202	431.1623722939	11.338083751618
4	203	431.451502390013	1.408831338279
4	206	441.443807283647	0
4	212	473.00260902335	0
4	215	475.369278079737	0
4	221	493.286867919828	0
4	224	501.939221806893	0
4	227	509.038289566614	0
4	230	518.619025209951	0
4	233	528.562184431506	0
4	236	530.409486620472	0
4	259	577.90164057047	29.471953332592
4	260	578.777764016116	25.925573169798
4	261	579.979677578981	21.197514922913
4	262	580.085072950873	20.299947899121
4	265	583.033817684651	8.881634393582
4	266	584.386104447037	2.608963713812
4	269	591.908523466924	0
4	272	595.245884919689	0
4	275	599.744693744301	0
4	278	614.054973155262	0
4	281	614.201791139699	0
4	284	639.373022439287	0
4	293	650.280698920358	3.099145492868
4	296	658.412344747376	0
4	299	662.241880940892	0
4	305	677.101422149618	10.977423631615
4	308	680.765205574722	1.030115904929
4	311	682.205325218687	0.9038103473
4	329	722.949059655945	3.195002785478
4	341	738.949029678849	11.234488863655
4	342	739.82184110848	11.258682456965
4	343	740.458823361489	9.81950150886
4	350	748.266889855658	10.214972787157
4	353	749.747328244169	8.889566334712
4	354	751.408821520979	8.265609196278
4	355	752.966327613209	6.922460407823
4	356	753.861968019395	5.07322963861
4	384	811.722826672754	50.549350888129
4	385	813.185010349548	51.638099334065
4	386	813.610609993435	51.450848931393
4	387	816.016965584869	45.451289502478
4	388	817.295305102643	38.238916712452
4	389	819.364252853016	14.698865118215
4	392	821.141477119636	0
4	395	823.114470007992	0
4	398	829.833902557911	0
4	401	841.976749373265	0
4	404	844.753959809814	0
4	434	903.510983993632	46.026910319794
4	435	903.843193813861	39.752667756502
4	436	904.306132327605	39.900038853096
4	439	906.056451256908	41.646400741297
4	440	906.11299982695	32.960447231262
4	441	908.187427820038	28.006907159187
4	442	909.807360581549	17.664227285356
4	443	909.961408442868	4.060264306011
4	449	929.964332537532	0
4	455	933.255928366248	0.238852477539
4	469	976.656152539641	9.617700169006
4	470	977.400949172917	6.634187588226
4	473	988.829171470794	0
4	476	1033.712953239657	0
4	485	1063.897103797653	0
4	488	1067.205057491134	0
4	501	1086.371534161893	12.107687140793
4	502	1087.548526521526	11.478104336383
4	503	1088.988233915134	10.754911087373
4	506	1100.820633055485	0
4	509	1101.542520841805	0
4	512	1111.342333799117	0
4	521	1137.351662066246	0
4	524	1143.757808395093	0
4	527	1148.722540957953	0
4	530	1150.605600291787	0
4	539	1164.119006756591	8.268035708427
4	559	1191.351410818153	19.587198797344
4	560	1192.109166387876	18.470748394911
4	561	1193.252738873793	10.208751332479
4	566	1194.791595565352	10.327995266669
4	567	1196.779243940509	10.484553083486
4	568	1197.068336309738	3.640542758128
4	571	1199.493163518178	5.540934496787
4	572	1200.523021111844	2.404356362362
4	575	1204.241343238922	0
4	578	1210.346320488679	0
4	581	1214.33262395137	0
4	584	1214.830841163516	0
4	587	1219.949086922189	0
4	590	1222.914295801811	0
4	593	1223.293270800351	0
4	599	1248.688204836956	0
4	605	1290.898130123353	0
4	608	1291.823162123162	0
4	611	1294.576402543527	0
4	614	1304.070144681555	0
4	617	1305.840915143514	0
4	620	1319.757161600396	0
4	623	1323.432945874271	0
4	626	1329.748623566149	0
4	629	1330.682505835263	0
4	632	1340.718512005517	0
4	635	1345.187440574485	0
4	638	1350.785968730655	0
4	641	1351.286267439265	0.414086588447
4	650	1386.356414166003	3.74939197339
4	653	1400.916642425074	0
4	719	1542.015555489205	119.90819888541
4	720	1542.490562718944	117.51894815301
4	721	1545.953881856667	119.72435316574
4	722	1546.181656987899	94.709953284757
4	723	1547.316747682029	95.038913397466
4	724	1547.769652199227	84.80447852493
4	725	1549.278985851355	63.762462602758
4	726	1550.493085549425	62.770547095602
4	727	1551.851721551255	64.007625857903
4	728	1553.188339057744	63.268932138552
4	729	1554.653723369183	51.040227642077
4	730	1555.801273312891	51.498045302546
4	731	1556.048927919791	50.310203937457
4	751	1589.448528354544	17.668716631861
4	752	1589.990084694488	16.611484629048
4	753	1590.19888920823	15.33151446469
4	754	1591.604263904242	10.654162362882
4	755	1592.327871826839	2.915859531702
4	758	1606.774891541585	0
4	767	1628.961365784307	2.050312572442
4	785	1657.591914687075	25.54429167255
4	786	1657.625068680859	24.825107985278
4	787	1657.687548022974	23.884843090952
4	788	1658.208729274799	13.661184659501
4	789	1658.42199435496	13.222173089128
4	792	1660.805190884615	10.767325686929
4	793	1662.574620678101	12.291616419199
4	794	1663.541993920783	4.993285516464
4	797	1677.203818671379	0
4	818	1724.085311432989	29.857057986566
4	819	1724.175607146641	28.422757026263
4	828	1736.02260645644	39.094038465979
4	829	1736.467387138224	19.400089322946
4	832	1738.868581061589	14.271725327709
4	833	1739.195121226316	13.457098294284
4	834	1739.762059000107	7.228256578807
4	835	1740.332852852835	4.613805427813
4	838	1744.048695025952	6.901611459098
4	839	1744.726810930495	4.305479331145
4	859	1815.257096385087	46.324344554747
4	860	1815.970058117007	26.137519481713
4	861	1816.631090461143	16.429165415308
4	862	1816.719916546695	15.322092627326
4	863	1816.880274390836	3.463006491887
4	866	1820.845952050105	0
4	869	1821.673189537874	0.564189495801
4	872	1824.448238797531	0
4	878	1851.763375986915	0
4	881	1853.763101051265	0
4	884	1861.615734364642	0
4	890	1872.60282119802	0
4	893	1879.356073586884	0
4	896	1886.688361683324	0
4	902	1902.680729578839	0.238710526715
4	905	1905.861314486726	0
4	908	1909.777407995839	0
4	911	1917.005427545384	6.499181522452
4	914	1922.182695436346	0
4	917	1930.15861388626	0
4	920	1963.91214132306	0
4	926	1973.318976600654	0
4	929	1973.374692904546	0.013383136982
4	932	1975.116582120982	0
4	942	1987.13693708689	9.563970013629
4	943	1987.526220415779	8.449585224483
4	944	1987.654439308088	2.392496017204
4	947	1989.30345486024	0
4	950	2015.354681933544	0
4	953	2020.548439221487	0
4	959	2025.725814737138	0
4	962	2032.01908448859	0
4	965	2055.502620266609	0
4	968	2060.575503583687	0
4	974	2084.709706378142	0
4	982	2101.26811341362	8.328268864784
4	983	2101.527579874259	2.490490459316
4	986	2102.591137611019	0
4	989	2116.368780264422	0
4	992	2117.796749654274	1.314148605505
4	1000	2123.996540045689	4.672476403977
4	1001	2124.398575298161	0.724300652905
4	1004	2138.040682945383	0
4	1007	2150.885637978048	0
4	1010	2167.367114672204	0
4	1022	2186.678134779194	0.643240781317
4	1037	2231.943264405477	10.716184475156
4	1040	2238.889269602652	0
4	1043	2254.483068097837	0
4	1046	2271.075409916749	0
4	1049	2280.771826103366	0
4	1052	2280.791806037517	0.002531858007
4	1055	2283.864084695993	0
4	1058	2284.36974984129	0
4	1061	2288.442495856882	0
4	1064	2294.096141745224	5.436225967867
4	1067	2297.580246024688	0
4	1070	2309.781809862415	0
4	1073	2313.479796306239	0.706983551367
4	1076	2313.686963510544	0.165640282289
4	1079	2318.332567453696	0
4	1082	2322.414168498064	3.545616045889
4	1093	2339.669121391353	11.76238995835
4	1094	2339.768455334091	2.902554900357
4	1097	2340.530734573568	0.726910074337
4	1108	2376.481362963736	5.333596143728
4	1109	2376.699589738889	5.547555358922
4	1112	2380.887203781705	0
4	1115	2384.178444399498	0.989460139691
4	1125	2401.030177399129	14.63250363946
4	1126	2401.265517559615	10.146885349175
4	1127	2402.500221549908	1.908915651525
4	1130	2407.515928351927	0
4	1133	2418.130008716	0
4	1141	2431.499756624484	7.620929485031
4	1142	2432.985401120463	2.951831747116
4	1145	2435.545057738834	0
4	1154	2457.691458169595	0
4	1157	2461.138953990144	0
4	1160	2462.293654580893	0
4	1163	2473.557527797445	0
4	1166	2474.41331895417	0
4	1169	2483.314383275376	0
4	1172	2487.898238471302	0
5	174	354.970840838998	36
5	177	368.744050060782	37
5	180	384.680229788135	38
5	183	386.943890063539	39
5	186	393.239317560512	40
5	189	394.803187138549	41
5	192	405.180546282716	42
5	195	411.740481535864	43
5	203	431.451502390013	44
5	204	431.999265270944	45
5	207	442.282924562629	46
5	213	473.503332869621	47
5	216	475.918596269754	48
5	222	493.551123318555	49
5	225	502.221339444866	50
5	228	509.621084994024	51
5	231	519.814173740364	52
5	234	529.029027293158	53
5	237	530.525637165895	54
5	260	578.777764016116	55
5	261	579.979677578981	56
5	262	580.085072950873	57
5	265	583.033817684651	58
5	266	584.386104447037	59
5	267	585.361868486274	60
5	270	591.995387141474	61
5	273	595.639620617031	62
5	276	599.879624912903	63
5	279	614.135848462042	64
5	282	614.5917149348	65
5	285	640.164628419998	66
5	294	651.310514786269	67
5	297	659.040708603789	68
5	308	680.765205574722	69
5	311	682.205325218687	70
5	312	682.53522143938	71
5	330	723.164685168285	72
5	342	739.82184110848	73
5	343	740.458823361489	74
5	353	749.747328244169	75
5	354	751.408821520979	76
5	355	752.966327613209	77
5	356	753.861968019395	78
5	357	754.107980701393	79
5	385	813.185010349548	80
5	386	813.610609993435	81
5	387	816.016965584869	82
5	388	817.295305102643	83
5	389	819.364252853016	84
5	390	819.801082284924	85
5	393	821.246546482192	86
5	396	823.731924173985	87
5	399	831.014513556994	88
5	402	842.256989422238	89
5	405	845.549926885548	90
5	435	903.843193813861	91
5	436	904.306132327605	92
5	439	906.056451256908	93
5	440	906.11299982695	94
5	441	908.187427820038	95
5	442	909.807360581549	96
5	443	909.961408442868	97
5	444	910.051463994122	98
5	450	930.29293637551	99
5	456	933.791518526237	100
5	470	977.400949172917	101
5	471	978.423569043571	102
5	474	991.140373240222	103
5	477	1033.995010010744	104
5	486	1064.819555829828	105
5	489	1067.669047107388	106
5	502	1087.548526521526	107
5	503	1088.988233915134	108
5	504	1089.320348543238	109
5	507	1101.002014752723	110
5	510	1101.866185908992	111
5	513	1112.312141258601	112
5	522	1137.521605056914	113
5	525	1144.384538434344	114
5	528	1149.812555548973	115
5	531	1150.791443505384	116
5	540	1166.980356261544	117
5	560	1192.109166387876	118
5	561	1193.252738873793	119
5	566	1194.791595565352	120
5	567	1196.779243940509	121
5	568	1197.068336309738	122
5	571	1199.493163518178	123
5	572	1200.523021111844	124
5	573	1202.21226272575	125
5	576	1204.322420839128	126
5	579	1212.116795309542	127
5	582	1214.484750281165	128
5	585	1214.858312104624	129
5	588	1220.599369219993	130
5	591	1223.189980459882	131
5	594	1223.934075535555	132
5	600	1248.997896433611	133
5	606	1291.310233435896	134
5	609	1292.30153896856	135
5	612	1295.434992462135	136
5	615	1304.722633127016	137
5	618	1307.569458693121	138
5	621	1320.144913167497	139
5	624	1324.90889612654	140
5	627	1330.3231992315	141
5	630	1330.820233585323	142
5	633	1341.535566584841	143
5	636	1345.329178782921	144
5	641	1351.286267439265	145
5	642	1351.995128254379	146
5	651	1387.21978723303	147
5	654	1402.2731031728	148
5	720	1542.490562718944	149
5	721	1545.953881856667	150
5	722	1546.181656987899	151
5	723	1547.316747682029	152
5	724	1547.769652199227	153
5	725	1549.278985851355	154
5	726	1550.493085549425	155
5	727	1551.851721551255	156
5	728	1553.188339057744	157
5	729	1554.653723369183	158
5	730	1555.801273312891	159
5	731	1556.048927919791	160
5	732	1556.154520665034	161
5	752	1589.990084694488	162
5	753	1590.19888920823	163
5	754	1591.604263904242	164
5	755	1592.327871826839	165
5	756	1594.278954410862	166
5	759	1608.708647877482	167
5	786	1657.625068680859	168
5	787	1657.687548022974	169
5	788	1658.208729274799	170
5	789	1658.42199435496	171
5	793	1662.574620678101	172
5	794	1663.541993920783	173
5	795	1666.147820976073	174
5	798	1678.65941920547	175
5	819	1724.175607146641	176
5	829	1736.467387138224	177
5	832	1738.868581061589	178
5	833	1739.195121226316	179
5	834	1739.762059000107	180
5	835	1740.332852852835	181
5	839	1744.726810930495	182
5	840	1744.786832539155	183
5	860	1815.970058117007	184
5	861	1816.631090461143	185
5	862	1816.719916546695	186
5	863	1816.880274390836	187
5	864	1817.15302870484	188
5	869	1821.673189537874	189
5	870	1822.160425293463	190
5	873	1825.205821626903	191
5	879	1852.390994780738	192
5	882	1855.926958928312	193
5	885	1862.195578254041	194
5	891	1872.735286961121	195
5	894	1879.620967074408	196
5	897	1886.74903615148	197
5	903	1903.191633180084	198
5	906	1906.269274588211	199
5	912	1917.484169612789	200
5	915	1923.218531284492	201
5	918	1930.563218343843	202
5	921	1964.347353246619	203
5	929	1973.374692904546	204
5	930	1973.823546474062	205
5	933	1975.525217124156	206
5	943	1987.526220415779	207
5	944	1987.654439308088	208
5	945	1987.840900448926	209
5	948	1990.380913059437	210
5	951	2015.769562719754	211
5	954	2021.057195718826	212
5	960	2026.553669160686	213
5	963	2032.35103396552	214
5	966	2056.710334684043	215
5	969	2060.765698629945	216
5	975	2086.364502934386	217
5	983	2101.527579874259	218
5	984	2101.94776714518	219
5	987	2104.583811051077	220
5	992	2117.796749654274	221
5	993	2117.89165193727	222
5	1001	2124.398575298161	223
5	1002	2126.060684990102	224
5	1005	2138.327631931548	225
5	1008	2151.633027211651	226
5	1011	2168.414053556306	227
5	1023	2187.092938716008	228
5	1038	2232.471519423429	229
5	1041	2239.362103984606	230
5	1044	2254.571928327966	231
5	1047	2271.662561484235	232
5	1053	2281.6571493136	233
5	1056	2284.318828346191	234
5	1059	2284.701641051218	235
5	1065	2294.499353848171	236
5	1068	2297.832508602535	237
5	1073	2313.479796306239	238
5	1076	2313.686963510544	239
5	1077	2313.819227729314	240
5	1082	2322.414168498064	241
5	1083	2325.333846823028	242
5	1094	2339.768455334091	243
5	1097	2340.530734573568	244
5	1098	2341.056485902901	245
5	1109	2376.699589738889	246
5	1110	2376.842217546436	247
5	1115	2384.178444399498	248
5	1116	2384.223899052415	249
5	1126	2401.265517559615	250
5	1127	2402.500221549908	251
5	1128	2404.833799358984	252
5	1131	2409.460043074663	253
5	1134	2418.69422957203	254
5	1142	2432.985401120463	255
5	1143	2433.221225888751	256
5	1146	2436.977262811562	257
5	1155	2458.107340340501	258
5	1158	2462.250240275672	259
5	1161	2463.158742182735	260
5	1164	2473.65405159277	261
5	1167	2476.745399722629	262
5	1170	2484.307560564004	263
5	1173	2489.78215250505	264
6	174	354.970840838998	0
6	176	367.376450425266	0
6	177	368.744050060782	0
6	179	384.176460755635	0
6	180	384.680229788135	0
6	182	386.436038687455	0
6	183	386.943890063539	0
6	185	391.952056832985	0
6	186	393.239317560512	0
6	188	393.866115821959	0
6	189	394.803187138549	0
6	191	404.473974224828	0
6	192	405.180546282716	0
6	194	410.436848643051	0
6	195	411.740481535864	0
6	197	418.962261761174	0
6	201	430.042671051734	1
6	203	431.451502390013	1
6	204	431.999265270944	0
6	206	441.443807283647	0
6	207	442.282924562629	0
6	212	473.00260902335	0
6	213	473.503332869621	0
6	215	475.369278079737	0
6	216	475.918596269754	0
6	221	493.286867919828	0
6	222	493.551123318555	0
6	224	501.939221806893	0
6	225	502.221339444866	0
6	227	509.038289566614	0
6	228	509.621084994024	0
6	230	518.619025209951	0
6	231	519.814173740364	0
6	233	528.562184431506	0
6	234	529.029027293158	0
6	236	530.409486620472	0
6	237	530.525637165895	0
6	249	548.429687237878	0
6	251	552.852190846318	1
6	253	558.782162656068	2
6	255	559.785125051752	3
6	258	574.152183291069	4
6	260	578.777764016116	4
6	261	579.979677578981	3
6	262	580.085072950873	2
6	264	581.777140733225	2
6	265	583.033817684651	2
6	266	584.386104447037	1
6	267	585.361868486274	0
6	269	591.908523466924	0
6	270	591.995387141474	0
6	272	595.245884919689	0
6	273	595.639620617031	0
6	275	599.744693744301	0
6	276	599.879624912903	0
6	278	614.054973155262	0
6	279	614.135848462042	0
6	281	614.201791139699	0
6	282	614.5917149348	0
6	284	639.373022439287	0
6	285	640.164628419998	0
6	291	647.18155342749	0
6	294	651.310514786269	0
6	296	658.412344747376	0
6	297	659.040708603789	0
6	299	662.241880940892	0
6	307	679.735089669793	1
6	308	680.765205574722	1
6	310	681.301514871387	1
6	311	682.205325218687	1
6	312	682.53522143938	0
6	328	719.754056870467	0
6	330	723.164685168285	0
6	334	727.714540815194	0
6	336	728.563158651515	1
6	338	730.639321852629	2
6	340	738.051917068501	3
6	342	739.82184110848	3
6	343	740.458823361489	2
6	347	743.143212324701	2
6	349	746.043867205386	3
6	352	748.788738380785	4
6	353	749.747328244169	4
6	354	751.408821520979	3
6	355	752.966327613209	2
6	356	753.861968019395	1
6	357	754.107980701393	0
6	361	761.173475784625	0
6	363	761.546911015483	1
6	365	762.159761062042	2
6	369	770.565676082391	3
6	376	779.056388390191	4
6	381	804.665387734801	5
6	385	813.185010349548	5
6	386	813.610609993435	4
6	387	816.016965584869	3
6	388	817.295305102643	2
6	389	819.364252853016	1
6	390	819.801082284924	0
6	392	821.141477119636	0
6	393	821.246546482192	0
6	395	823.114470007992	0
6	396	823.731924173985	0
6	398	829.833902557911	0
6	399	831.014513556994	0
6	401	841.976749373265	0
6	402	842.256989422238	0
6	404	844.753959809814	0
6	405	845.549926885548	0
6	409	857.484073673838	0
6	413	864.090526057359	1
6	415	864.406093474509	2
6	417	864.410050515611	3
6	422	873.152552595688	4
6	424	880.180520660851	5
6	431	892.143133296193	6
6	435	903.843193813861	6
6	436	904.306132327605	5
6	438	905.901144136857	5
6	439	906.056451256908	5
6	440	906.11299982695	4
6	441	908.187427820038	3
6	442	909.807360581549	2
6	443	909.961408442868	1
6	444	910.051463994122	0
6	449	929.964332537532	0
6	450	930.29293637551	0
6	454	933.017075888709	0
6	456	933.791518526237	0
6	466	967.038452370635	0
6	468	970.766761584691	1
6	470	977.400949172917	1
6	471	978.423569043571	0
6	473	988.829171470794	0
6	474	991.140373240222	0
6	476	1033.712953239657	0
6	477	1033.995010010744	0
6	485	1063.897103797653	0
6	486	1064.819555829828	0
6	488	1067.205057491134	0
6	489	1067.669047107388	0
6	495	1074.2638470211	0
6	497	1076.070422185143	1
6	499	1078.233322827761	2
6	502	1087.548526521526	2
6	503	1088.988233915134	1
6	504	1089.320348543238	0
6	506	1100.820633055485	0
6	507	1101.002014752723	0
6	509	1101.542520841805	0
6	510	1101.866185908992	0
6	512	1111.342333799117	0
6	513	1112.312141258601	0
6	521	1137.351662066246	0
6	522	1137.521605056914	0
6	524	1143.757808395093	0
6	525	1144.384538434344	0
6	527	1148.722540957953	0
6	528	1149.812555548973	0
6	530	1150.605600291787	0
6	531	1150.791443505384	0
6	535	1155.850971048164	0
6	540	1166.980356261544	0
6	544	1171.764212020809	0
6	550	1173.638417992965	1
6	554	1183.043987541314	2
6	556	1184.463600298683	3
6	558	1186.294690857023	4
6	560	1192.109166387876	4
6	561	1193.252738873793	3
6	563	1193.42779355161	3
6	565	1193.952229021391	4
6	566	1194.791595565352	4
6	567	1196.779243940509	3
6	568	1197.068336309738	2
6	570	1198.118664749482	2
6	571	1199.493163518178	2
6	572	1200.523021111844	1
6	573	1202.21226272575	0
6	575	1204.241343238922	0
6	576	1204.322420839128	0
6	578	1210.346320488679	0
6	579	1212.116795309542	0
6	581	1214.33262395137	0
6	582	1214.484750281165	0
6	584	1214.830841163516	0
6	585	1214.858312104624	0
6	587	1219.949086922189	0
6	588	1220.599369219993	0
6	590	1222.914295801811	0
6	591	1223.189980459882	0
6	593	1223.293270800351	0
6	594	1223.934075535555	0
6	599	1248.688204836956	0
6	600	1248.997896433611	0
6	605	1290.898130123353	0
6	606	1291.310233435896	0
6	608	1291.823162123162	0
6	609	1292.30153896856	0
6	611	1294.576402543527	0
6	612	1295.434992462135	0
6	614	1304.070144681555	0
6	615	1304.722633127016	0
6	617	1305.840915143514	0
6	618	1307.569458693121	0
6	620	1319.757161600396	0
6	621	1320.144913167497	0
6	623	1323.432945874271	0
6	624	1324.90889612654	0
6	626	1329.748623566149	0
6	627	1330.3231992315	0
6	629	1330.682505835263	0
6	630	1330.820233585323	0
6	632	1340.718512005517	0
6	633	1341.535566584841	0
6	635	1345.187440574485	0
6	636	1345.329178782921	0
6	638	1350.785968730655	0
6	640	1350.872180850818	1
6	641	1351.286267439265	1
6	642	1351.995128254379	0
6	648	1382.607022192613	0
6	651	1387.21978723303	0
6	653	1400.916642425074	0
6	654	1402.2731031728	0
6	660	1422.107356603794	0
6	667	1424.971614565931	1
6	671	1426.229528690923	2
6	676	1451.471703703142	3
6	678	1452.277834284563	4
6	685	1462.965173674297	5
6	691	1485.516523248597	6
6	693	1487.722538453823	7
6	695	1487.844095693352	8
6	697	1489.919406919192	9
6	707	1503.613495727106	10
6	709	1504.303228010345	11
6	711	1505.738723982334	12
6	720	1542.490562718944	12
6	721	1545.953881856667	11
6	722	1546.181656987899	10
6	723	1547.316747682029	9
6	724	1547.769652199227	8
6	725	1549.278985851355	7
6	726	1550.493085549425	6
6	727	1551.851721551255	5
6	728	1553.188339057744	4
6	729	1554.653723369183	3
6	730	1555.801273312891	2
6	731	1556.048927919791	1
6	732	1556.154520665034	0
6	741	1571.779811722683	0
6	743	1573.37860006544	1
6	745	1574.86737474354	2
6	747	1580.95010154136	3
6	750	1589.412012295137	4
6	752	1589.990084694488	4
6	753	1590.19888920823	3
6	754	1591.604263904242	2
6	755	1592.327871826839	1
6	756	1594.278954410862	0
6	758	1606.774891541585	0
6	759	1608.708647877482	0
6	766	1626.911053211865	0
6	769	1632.047623014525	1
6	773	1633.802704932022	2
6	778	1644.547544615298	3
6	780	1645.199821265832	4
6	782	1650.037865197686	5
6	784	1650.283004258902	6
6	786	1657.625068680859	6
6	787	1657.687548022974	5
6	788	1658.208729274799	4
6	789	1658.42199435496	3
6	793	1662.574620678101	2
6	794	1663.541993920783	1
6	795	1666.147820976073	0
6	797	1677.203818671379	0
6	798	1678.65941920547	0
6	804	1694.228253446423	0
6	806	1695.752850120378	1
6	808	1696.928567990461	2
6	813	1717.067297815278	3
6	819	1724.175607146641	3
6	823	1725.738022932032	3
6	825	1732.5338024213	4
6	827	1735.719047425022	5
6	829	1736.467387138224	5
6	831	1737.147083566854	5
6	832	1738.868581061589	5
6	833	1739.195121226316	4
6	834	1739.762059000107	3
6	835	1740.332852852835	2
6	839	1744.726810930495	1
6	840	1744.786832539155	0
6	848	1768.93275183034	0
6	851	1789.832538635294	1
6	853	1800.201925045835	2
6	855	1801.397823919369	3
6	858	1813.417267898949	4
6	860	1815.970058117007	4
6	861	1816.631090461143	3
6	862	1816.719916546695	2
6	863	1816.880274390836	1
6	864	1817.15302870484	0
6	866	1820.845952050105	0
6	868	1821.109000042073	1
6	869	1821.673189537874	1
6	870	1822.160425293463	0
6	872	1824.448238797531	0
6	873	1825.205821626903	0
6	878	1851.763375986915	0
6	879	1852.390994780738	0
6	881	1853.763101051265	0
6	882	1855.926958928312	0
6	884	1861.615734364642	0
6	885	1862.195578254041	0
6	890	1872.60282119802	0
6	891	1872.735286961121	0
6	893	1879.356073586884	0
6	894	1879.620967074408	0
6	896	1886.688361683324	0
6	897	1886.74903615148	0
6	901	1902.442019052124	0
6	903	1903.191633180084	0
6	905	1905.861314486726	0
6	906	1906.269274588211	0
6	908	1909.777407995839	0
6	912	1917.484169612789	0
6	914	1922.182695436346	0
6	915	1923.218531284492	0
6	917	1930.15861388626	0
6	918	1930.563218343843	0
6	920	1963.91214132306	0
6	921	1964.347353246619	0
6	926	1973.318976600654	0
6	928	1973.361309767564	1
6	929	1973.374692904546	1
6	930	1973.823546474062	0
6	932	1975.116582120982	0
6	933	1975.525217124156	0
6	937	1977.572967073261	0
6	939	1979.076635191296	1
6	941	1985.261943290884	2
6	943	1987.526220415779	2
6	944	1987.654439308088	1
6	945	1987.840900448926	0
6	947	1989.30345486024	0
6	948	1990.380913059437	0
6	950	2015.354681933544	0
6	951	2015.769562719754	0
6	953	2020.548439221487	0
6	954	2021.057195718826	0
6	959	2025.725814737138	0
6	960	2026.553669160686	0
6	962	2032.01908448859	0
6	963	2032.35103396552	0
6	965	2055.502620266609	0
6	966	2056.710334684043	0
6	968	2060.575503583687	0
6	969	2060.765698629945	0
6	974	2084.709706378142	0
6	975	2086.364502934386	0
6	979	2092.939844548836	0
6	981	2099.037089414943	1
6	983	2101.527579874259	1
6	984	2101.94776714518	0
6	986	2102.591137611019	0
6	987	2104.583811051077	0
6	989	2116.368780264422	0
6	991	2116.482601048769	1
6	992	2117.796749654274	1
6	993	2117.89165193727	0
6	997	2119.324063641712	0
6	999	2123.674274645256	1
6	1001	2124.398575298161	1
6	1002	2126.060684990102	0
6	1004	2138.040682945383	0
6	1005	2138.327631931548	0
6	1007	2150.885637978048	0
6	1008	2151.633027211651	0
6	1010	2167.367114672204	0
6	1011	2168.414053556306	0
6	1021	2186.034893997877	0
6	1023	2187.092938716008	0
6	1035	2221.227079930321	0
6	1038	2232.471519423429	0
6	1040	2238.889269602652	0
6	1041	2239.362103984606	0
6	1043	2254.483068097837	0
6	1044	2254.571928327966	0
6	1046	2271.075409916749	0
6	1047	2271.662561484235	0
6	1049	2280.771826103366	0
6	1053	2281.6571493136	0
6	1055	2283.864084695993	0
6	1056	2284.318828346191	0
6	1058	2284.36974984129	0
6	1059	2284.701641051218	0
6	1061	2288.442495856882	0
6	1065	2294.499353848171	0
6	1067	2297.580246024688	0
6	1068	2297.832508602535	0
6	1070	2309.781809862415	0
6	1072	2312.772812754872	1
6	1073	2313.479796306239	1
6	1075	2313.521323228255	1
6	1076	2313.686963510544	1
6	1077	2313.819227729314	0
6	1079	2318.332567453696	0
6	1081	2318.868552452175	1
6	1082	2322.414168498064	1
6	1083	2325.333846823028	0
6	1087	2327.906731433003	0
6	1091	2336.865900433734	1
6	1094	2339.768455334091	1
6	1096	2339.803824499231	1
6	1097	2340.530734573568	1
6	1098	2341.056485902901	0
6	1104	2371.147766820008	0
6	1106	2371.152034379967	1
6	1109	2376.699589738889	1
6	1110	2376.842217546436	0
6	1112	2380.887203781705	0
6	1114	2383.188984259807	1
6	1115	2384.178444399498	1
6	1116	2384.223899052415	0
6	1120	2386.397673759669	0
6	1122	2391.11863221044	1
6	1124	2400.591305898383	2
6	1126	2401.265517559615	2
6	1127	2402.500221549908	1
6	1128	2404.833799358984	0
6	1130	2407.515928351927	0
6	1131	2409.460043074663	0
6	1133	2418.130008716	0
6	1134	2418.69422957203	0
6	1138	2423.878827139453	0
6	1140	2430.033569373347	1
6	1142	2432.985401120463	1
6	1143	2433.221225888751	0
6	1145	2435.545057738834	0
6	1146	2436.977262811562	0
6	1154	2457.691458169595	0
6	1155	2458.107340340501	0
6	1157	2461.138953990144	0
6	1158	2462.250240275672	0
6	1160	2462.293654580893	0
6	1161	2463.158742182735	0
6	1163	2473.557527797445	0
6	1164	2473.65405159277	0
6	1166	2474.41331895417	0
6	1167	2476.745399722629	0
6	1169	2483.314383275376	0
6	1170	2484.307560564004	0
6	1172	2487.898238471302	0
6	1173	2489.78215250505	0
7	174	354.970840838998	5.630697188957
7	177	368.744050060782	1.367599635516
7	180	384.680229788135	0.5037690325
7	183	386.943890063539	0.507851376084
7	186	393.239317560512	1.287260727527
7	189	394.803187138549	0.93707131659
7	192	405.180546282716	0.706572057888
7	195	411.740481535864	1.303632892813
7	203	431.451502390013	11.627213847731
7	204	431.999265270944	1.95659421921
7	207	442.282924562629	0.839117278982
7	213	473.503332869621	0.500723846271
7	216	475.918596269754	0.549318190017
7	222	493.551123318555	0.264255398727
7	225	502.221339444866	0.282117637973
7	228	509.621084994024	0.58279542741
7	231	519.814173740364	1.195148530413
7	234	529.029027293158	0.466842861652
7	237	530.525637165895	0.116150545423
7	260	578.777764016116	30.348076778238
7	261	579.979677578981	27.127486732663
7	262	580.085072950873	21.302910294805
7	265	583.033817684651	23.248692632899
7	266	584.386104447037	10.233921155968
7	267	585.361868486274	3.584727753049
7	270	591.995387141474	0.08686367455
7	273	595.639620617031	0.393735697342
7	276	599.879624912903	0.134931168602
7	279	614.135848462042	0.08087530678
7	282	614.5917149348	0.389923795101
7	285	640.164628419998	0.791605980711
7	294	651.310514786269	4.128961358779
7	297	659.040708603789	0.628363856413
7	308	680.765205574722	14.641207056719
7	311	682.205325218687	2.470235548894
7	312	682.53522143938	1.233706567993
7	330	723.164685168285	3.410628297818
7	342	739.82184110848	12.107300293286
7	343	740.458823361489	11.895664709974
7	353	749.747328244169	11.695411175668
7	354	751.408821520979	10.551059611522
7	355	752.966327613209	9.823115288508
7	356	753.861968019395	7.818100814009
7	357	754.107980701393	5.319242320608
7	385	813.185010349548	52.011534564923
7	386	813.610609993435	52.063698977952
7	387	816.016965584869	53.857204522827
7	388	817.295305102643	46.729629020252
7	389	819.364252853016	40.307864462825
7	390	819.801082284924	15.135694550123
7	393	821.246546482192	0.105069362556
7	396	823.731924173985	0.617454165993
7	399	831.014513556994	1.180610999083
7	402	842.256989422238	0.280240048973
7	405	845.549926885548	0.795967075734
7	435	903.843193813861	46.359120140023
7	436	904.306132327605	40.215606270246
7	439	906.056451256908	41.650357782399
7	440	906.11299982695	41.702949311339
7	441	908.187427820038	35.03487522435
7	442	909.807360581549	29.626839920698
7	443	909.961408442868	17.818275146675
7	444	910.051463994122	4.150319857265
7	450	930.29293637551	0.328603837978
7	456	933.791518526237	0.774442637528
7	470	977.400949172917	10.362496802282
7	471	978.423569043571	7.65680745888
7	474	991.140373240222	2.311201769428
7	477	1033.995010010744	0.282056771087
7	486	1064.819555829828	0.922452032175
7	489	1067.669047107388	0.463989616254
7	502	1087.548526521526	13.284679500426
7	503	1088.988233915134	12.917811729991
7	504	1089.320348543238	11.087025715477
7	507	1101.002014752723	0.181381697238
7	510	1101.866185908992	0.323665067187
7	513	1112.312141258601	0.969807459484
7	522	1137.521605056914	0.169942990668
7	525	1144.384538434344	0.626730039251
7	528	1149.812555548973	1.09001459102
7	531	1150.791443505384	0.185843213597
7	540	1166.980356261544	11.12938521338
7	560	1192.109166387876	20.344954367067
7	561	1193.252738873793	19.614320880828
7	566	1194.791595565352	11.747608024038
7	567	1196.779243940509	12.315643641826
7	568	1197.068336309738	10.773645452715
7	571	1199.493163518178	6.065369966568
7	572	1200.523021111844	6.570792090453
7	573	1202.21226272575	4.093597976268
7	576	1204.322420839128	0.081077600206
7	579	1212.116795309542	1.770474820863
7	582	1214.484750281165	0.152126329795
7	585	1214.858312104624	0.027470941108
7	588	1220.599369219993	0.650282297804
7	591	1223.189980459882	0.275684658071
7	594	1223.934075535555	0.640804735204
7	600	1248.997896433611	0.309691596655
7	606	1291.310233435896	0.412103312543
7	609	1292.30153896856	0.478376845398
7	612	1295.434992462135	0.858589918608
7	615	1304.722633127016	0.652488445461
7	618	1307.569458693121	1.728543549607
7	621	1320.144913167497	0.387751567101
7	624	1324.90889612654	1.475950252269
7	627	1330.3231992315	0.574575665351
7	630	1330.820233585323	0.13772775006
7	633	1341.535566584841	0.817054579324
7	636	1345.329178782921	0.141738208436
7	641	1351.286267439265	0.50029870861
7	642	1351.995128254379	1.122947403561
7	651	1387.21978723303	4.612765040417
7	654	1402.2731031728	1.356460747726
7	720	1542.490562718944	120.38320611515
7	721	1545.953881856667	120.98226729074
7	722	1546.181656987899	119.95212829698
7	723	1547.316747682029	95.845043978887
7	724	1547.769652199227	95.491817914664
7	725	1549.278985851355	86.313812177058
7	726	1550.493085549425	64.976562300828
7	727	1551.851721551255	64.129183097432
7	728	1553.188339057744	65.344243364392
7	729	1554.653723369183	64.734316449991
7	730	1555.801273312891	52.187777585785
7	731	1556.048927919791	51.745699909446
7	732	1556.154520665034	50.4157966827
7	752	1589.990084694488	18.210272971805
7	753	1590.19888920823	16.82028914279
7	754	1591.604263904242	16.736889160702
7	755	1592.327871826839	11.377770285479
7	756	1594.278954410862	4.866942115725
7	759	1608.708647877482	1.933756335897
7	786	1657.625068680859	25.577445666334
7	787	1657.687548022974	24.887587327393
7	788	1658.208729274799	24.406024342777
7	789	1658.42199435496	13.874449739662
7	793	1662.574620678101	12.536755480415
7	794	1663.541993920783	13.258989661881
7	795	1666.147820976073	7.599112571754
7	798	1678.65941920547	1.455600534091
7	819	1724.175607146641	29.947353700218
7	829	1736.467387138224	39.538819147763
7	832	1738.868581061589	21.801283246311
7	833	1739.195121226316	14.598265492436
7	834	1739.762059000107	14.024036068075
7	835	1740.332852852835	7.799050431535
7	839	1744.726810930495	7.579727363641
7	840	1744.786832539155	4.365500939805
7	860	1815.970058117007	47.037306286667
7	861	1816.631090461143	26.798551825849
7	862	1816.719916546695	16.51799150086
7	863	1816.880274390836	15.482450471467
7	864	1817.15302870484	3.735760805891
7	869	1821.673189537874	0.827237487769
7	870	1822.160425293463	1.05142525139
7	873	1825.205821626903	0.757582829372
7	879	1852.390994780738	0.627618793823
7	882	1855.926958928312	2.163857877047
7	885	1862.195578254041	0.579843889399
7	891	1872.735286961121	0.132465763101
7	894	1879.620967074408	0.264893487524
7	897	1886.74903615148	0.060674468156
7	903	1903.191633180084	0.74961412796
7	906	1906.269274588211	0.407960101485
7	912	1917.484169612789	6.977923589857
7	915	1923.218531284492	1.035835848146
7	918	1930.563218343843	0.404604457583
7	921	1964.347353246619	0.435211923559
7	929	1973.374692904546	0.055716303892
7	930	1973.823546474062	0.462236706498
7	933	1975.525217124156	0.408635003174
7	943	1987.526220415779	9.953253342518
7	944	1987.654439308088	8.577804116792
7	945	1987.840900448926	2.578957158042
7	948	1990.380913059437	1.077458199197
7	951	2015.769562719754	0.41488078621
7	954	2021.057195718826	0.508756497339
7	960	2026.553669160686	0.827854423548
7	963	2032.35103396552	0.33194947693
7	966	2056.710334684043	1.207714417434
7	969	2060.765698629945	0.190195046258
7	975	2086.364502934386	1.654796556244
7	983	2101.527579874259	8.587735325423
7	984	2101.94776714518	2.910677730237
7	987	2104.583811051077	1.992673440058
7	992	2117.796749654274	1.427969389852
7	993	2117.89165193727	1.409050888501
7	1001	2124.398575298161	5.074511656449
7	1002	2126.060684990102	2.386410344846
7	1005	2138.327631931548	0.286948986165
7	1008	2151.633027211651	0.747389233603
7	1011	2168.414053556306	1.046938884102
7	1023	2187.092938716008	1.058044718131
7	1038	2232.471519423429	11.244439493108
7	1041	2239.362103984606	0.472834381954
7	1044	2254.571928327966	0.088860230129
7	1047	2271.662561484235	0.587151567486
7	1053	2281.6571493136	0.86787513409
7	1056	2284.318828346191	0.454743650198
7	1059	2284.701641051218	0.331891209928
7	1065	2294.499353848171	5.839438070814
7	1068	2297.832508602535	0.252262577847
7	1073	2313.479796306239	3.697986443824
7	1076	2313.686963510544	0.914150755672
7	1077	2313.819227729314	0.297904501059
7	1082	2322.414168498064	4.081601044368
7	1083	2325.333846823028	6.465294370853
7	1094	2339.768455334091	11.861723901088
7	1097	2340.530734573568	3.664834139834
7	1098	2341.056485902901	1.25266140367
7	1109	2376.699589738889	5.551822918881
7	1110	2376.842217546436	5.690183166469
7	1115	2384.178444399498	3.291240617793
7	1116	2384.223899052415	1.034914792608
7	1126	2401.265517559615	14.867843799946
7	1127	2402.500221549908	11.381589339468
7	1128	2404.833799358984	4.242493460601
7	1131	2409.460043074663	1.944114722736
7	1134	2418.69422957203	0.56422085603
7	1142	2432.985401120463	9.10657398101
7	1143	2433.221225888751	3.187656515404
7	1146	2436.977262811562	1.432205072728
7	1155	2458.107340340501	0.415882170906
7	1158	2462.250240275672	1.111286285528
7	1161	2463.158742182735	0.865087601842
7	1164	2473.65405159277	0.096523795325
7	1167	2476.745399722629	2.332080768459
7	1170	2484.307560564004	0.993177288628
7	1173	2489.78215250505	1.883914033748
8	176	367.376450425266	1
8	179	384.176460755635	1
8	182	386.436038687455	1
8	185	391.952056832985	1
8	188	393.866115821959	1
8	191	404.473974224828	1
8	194	410.436848643051	1
8	197	418.962261761174	1
8	201	430.042671051734	2
8	206	441.443807283647	1
8	212	473.00260902335	1
8	215	475.369278079737	1
8	221	493.286867919828	1
8	224	501.939221806893	1
8	227	509.038289566614	1
8	230	518.619025209951	1
8	233	528.562184431506	1
8	236	530.409486620472	1
8	249	548.429687237878	1
8	251	552.852190846318	2
8	253	558.782162656068	3
8	255	559.785125051752	4
8	258	574.152183291069	5
8	264	581.777140733225	3
8	269	591.908523466924	1
8	272	595.245884919689	1
8	275	599.744693744301	1
8	278	614.054973155262	1
8	281	614.201791139699	1
8	284	639.373022439287	1
8	291	647.18155342749	1
8	296	658.412344747376	1
8	299	662.241880940892	1
8	307	679.735089669793	2
8	310	681.301514871387	2
8	328	719.754056870467	1
8	334	727.714540815194	1
8	336	728.563158651515	2
8	338	730.639321852629	3
8	340	738.051917068501	4
8	347	743.143212324701	3
8	349	746.043867205386	4
8	352	748.788738380785	5
8	361	761.173475784625	1
8	363	761.546911015483	2
8	365	762.159761062042	3
8	369	770.565676082391	4
8	376	779.056388390191	5
8	381	804.665387734801	6
8	392	821.141477119636	1
8	395	823.114470007992	1
8	398	829.833902557911	1
8	401	841.976749373265	1
8	404	844.753959809814	1
8	409	857.484073673838	1
8	413	864.090526057359	2
8	415	864.406093474509	3
8	417	864.410050515611	4
8	422	873.152552595688	5
8	424	880.180520660851	6
8	431	892.143133296193	7
8	438	905.901144136857	6
8	449	929.964332537532	1
8	454	933.017075888709	1
8	466	967.038452370635	1
8	468	970.766761584691	2
8	473	988.829171470794	1
8	476	1033.712953239657	1
8	485	1063.897103797653	1
8	488	1067.205057491134	1
8	495	1074.2638470211	1
8	497	1076.070422185143	2
8	499	1078.233322827761	3
8	506	1100.820633055485	1
8	509	1101.542520841805	1
8	512	1111.342333799117	1
8	521	1137.351662066246	1
8	524	1143.757808395093	1
8	527	1148.722540957953	1
8	530	1150.605600291787	1
8	535	1155.850971048164	1
8	544	1171.764212020809	1
8	550	1173.638417992965	2
8	554	1183.043987541314	3
8	556	1184.463600298683	4
8	558	1186.294690857023	5
8	563	1193.42779355161	4
8	565	1193.952229021391	5
8	570	1198.118664749482	3
8	575	1204.241343238922	1
8	578	1210.346320488679	1
8	581	1214.33262395137	1
8	584	1214.830841163516	1
8	587	1219.949086922189	1
8	590	1222.914295801811	1
8	593	1223.293270800351	1
8	599	1248.688204836956	1
8	605	1290.898130123353	1
8	608	1291.823162123162	1
8	611	1294.576402543527	1
8	614	1304.070144681555	1
8	617	1305.840915143514	1
8	620	1319.757161600396	1
8	623	1323.432945874271	1
8	626	1329.748623566149	1
8	629	1330.682505835263	1
8	632	1340.718512005517	1
8	635	1345.187440574485	1
8	638	1350.785968730655	1
8	640	1350.872180850818	2
8	648	1382.607022192613	1
8	653	1400.916642425074	1
8	660	1422.107356603794	1
8	667	1424.971614565931	2
8	671	1426.229528690923	3
8	676	1451.471703703142	4
8	678	1452.277834284563	5
8	685	1462.965173674297	6
8	691	1485.516523248597	7
8	693	1487.722538453823	8
8	695	1487.844095693352	9
8	697	1489.919406919192	10
8	707	1503.613495727106	11
8	709	1504.303228010345	12
8	711	1505.738723982334	13
8	741	1571.779811722683	1
8	743	1573.37860006544	2
8	745	1574.86737474354	3
8	747	1580.95010154136	4
8	750	1589.412012295137	5
8	758	1606.774891541585	1
8	766	1626.911053211865	1
8	769	1632.047623014525	2
8	773	1633.802704932022	3
8	778	1644.547544615298	4
8	780	1645.199821265832	5
8	782	1650.037865197686	6
8	784	1650.283004258902	7
8	797	1677.203818671379	1
8	804	1694.228253446423	1
8	806	1695.752850120378	2
8	808	1696.928567990461	3
8	813	1717.067297815278	4
8	823	1725.738022932032	4
8	825	1732.5338024213	5
8	827	1735.719047425022	6
8	831	1737.147083566854	6
8	848	1768.93275183034	1
8	851	1789.832538635294	2
8	853	1800.201925045835	3
8	855	1801.397823919369	4
8	858	1813.417267898949	5
8	866	1820.845952050105	1
8	868	1821.109000042073	2
8	872	1824.448238797531	1
8	878	1851.763375986915	1
8	881	1853.763101051265	1
8	884	1861.615734364642	1
8	890	1872.60282119802	1
8	893	1879.356073586884	1
8	896	1886.688361683324	1
8	901	1902.442019052124	1
8	905	1905.861314486726	1
8	908	1909.777407995839	1
8	914	1922.182695436346	1
8	917	1930.15861388626	1
8	920	1963.91214132306	1
8	926	1973.318976600654	1
8	928	1973.361309767564	2
8	932	1975.116582120982	1
8	937	1977.572967073261	1
8	939	1979.076635191296	2
8	941	1985.261943290884	3
8	947	1989.30345486024	1
8	950	2015.354681933544	1
8	953	2020.548439221487	1
8	959	2025.725814737138	1
8	962	2032.01908448859	1
8	965	2055.502620266609	1
8	968	2060.575503583687	1
8	974	2084.709706378142	1
8	979	2092.939844548836	1
8	981	2099.037089414943	2
8	986	2102.591137611019	1
8	989	2116.368780264422	1
8	991	2116.482601048769	2
8	997	2119.324063641712	1
8	999	2123.674274645256	2
8	1004	2138.040682945383	1
8	1007	2150.885637978048	1
8	1010	2167.367114672204	1
8	1021	2186.034893997877	1
8	1035	2221.227079930321	1
8	1040	2238.889269602652	1
8	1043	2254.483068097837	1
8	1046	2271.075409916749	1
8	1049	2280.771826103366	1
8	1055	2283.864084695993	1
8	1058	2284.36974984129	1
8	1061	2288.442495856882	1
8	1067	2297.580246024688	1
8	1070	2309.781809862415	1
8	1072	2312.772812754872	2
8	1075	2313.521323228255	2
8	1079	2318.332567453696	1
8	1081	2318.868552452175	2
8	1087	2327.906731433003	1
8	1091	2336.865900433734	2
8	1096	2339.803824499231	2
8	1104	2371.147766820008	1
8	1106	2371.152034379967	2
8	1112	2380.887203781705	1
8	1114	2383.188984259807	2
8	1120	2386.397673759669	1
8	1122	2391.11863221044	2
8	1124	2400.591305898383	3
8	1130	2407.515928351927	1
8	1133	2418.130008716	1
8	1138	2423.878827139453	1
8	1140	2430.033569373347	2
8	1145	2435.545057738834	1
8	1154	2457.691458169595	1
8	1157	2461.138953990144	1
8	1160	2462.293654580893	1
8	1163	2473.557527797445	1
8	1166	2474.41331895417	1
8	1169	2483.314383275376	1
8	1172	2487.898238471302	1
9	199	419.824288542282	1
9	209	445.426883461239	1
9	218	481.155473799364	1
9	239	536.946986058516	1
9	242	541.720738592907	1
9	244	541.736319955185	2
9	247	545.749899725905	2
9	287	642.852204457678	1
9	289	646.904432915695	2
9	301	666.123998518003	1
9	303	673.379073049835	2
9	314	692.296201596188	1
9	317	707.174758416955	1
9	319	707.316586279335	2
9	323	718.627327699064	1
9	325	719.093978241006	2
9	332	725.978438086876	1
9	345	740.857761909457	1
9	359	759.785179545867	1
9	367	769.99705848	2
9	371	773.001749095169	3
9	374	773.957541426202	3
9	379	780.867851638882	3
9	407	853.673845421965	1
9	411	862.799389841877	2
9	419	868.098797839271	3
9	426	880.277491819915	3
9	428	882.177038103687	4
9	446	912.935758198835	1
9	452	932.202672012874	1
9	458	936.657389288969	1
9	461	946.297682443241	1
9	464	960.738265453186	1
9	479	1042.502595974247	1
9	482	1060.452690583967	1
9	491	1073.028472791389	1
9	493	1073.979749661901	2
9	515	1113.293494763991	1
9	518	1132.000155132253	1
9	533	1154.808071207918	1
9	537	1158.547296278815	2
9	542	1170.522199205898	1
9	546	1171.867477851254	2
9	548	1172.13455232041	3
9	596	1231.608305717097	1
9	602	1288.624242739881	1
9	644	1356.036850805122	1
9	646	1372.606487445524	2
9	656	1405.653119015198	1
9	658	1415.389328740932	2
9	663	1422.655085990457	2
9	665	1422.976987813847	3
9	669	1425.03253417898	4
9	673	1430.283059070374	5
9	680	1453.338074498799	5
9	683	1458.853815662555	5
9	687	1470.455632448849	6
9	700	1493.449335598144	4
9	704	1496.052380205525	3
9	713	1514.884379549808	3
9	716	1528.555324124831	3
9	734	1564.373909976404	1
9	736	1565.073784446035	2
9	739	1568.88161662372	2
9	761	1616.890074396541	1
9	764	1626.810805176556	1
9	771	1632.799960695581	1
9	775	1636.823592669957	2
9	791	1658.548708404319	1
9	800	1686.708174305305	1
9	802	1694.179105853179	2
9	810	1705.252233173425	3
9	815	1719.93445107556	3
9	821	1724.59685573388	1
9	837	1740.42133159935	1
9	842	1757.194056480443	1
9	844	1761.281828584842	2
9	846	1761.918109262225	3
9	875	1831.77425238343	1
9	887	1868.713537013691	1
9	899	1898.558444776125	1
9	910	1910.506246022932	1
9	923	1966.608133512492	1
9	935	1976.663636876505	1
9	956	2021.706676798273	1
9	971	2073.959348802285	1
9	977	2092.180436930985	1
9	995	2118.166042985004	1
9	1013	2169.154750841632	1
9	1016	2177.061307273094	1
9	1019	2178.914416394662	1
9	1025	2195.814478513715	1
9	1028	2200.177172437229	1
9	1031	2214.891347264506	1
9	1033	2215.816986545285	2
9	1051	2280.78927417951	1
9	1063	2288.659915777357	1
9	1085	2325.886460952761	1
9	1089	2335.729066720743	2
9	1100	2363.241703758442	1
9	1102	2369.572912620892	2
9	1118	2385.090107213244	1
9	1136	2420.381264551342	1
9	1148	2438.055371942036	1
9	1151	2446.879911890008	1
10	199	419.824288542282	2
10	301	666.123998518003	3
10	345	740.857761909457	4
10	771	1632.799960695581	5
10	791	1658.548708404319	6
10	821	1724.59685573388	7
10	837	1740.42133159935	8
10	910	1910.506246022932	9
10	1051	2280.78927417951	10
10	1063	2288.659915777357	11
11	1174	2500	0.1056
12	1174	2500	0.0508

