version 2
run experiments_easy_game_mode1-613-20230308-12:04:02-21482
attr configname experiments_easy_game_mode1
attr datetime 20230308-12:04:02
attr experiment experiments_easy_game_mode1
attr inifile omnetpp.ini
attr iterationvars "$0=5.5, $1=3, $2=0"
attr iterationvarsf 5.5,3,0-
attr measurement "$0=5.5, $1=3, $2=0"
attr network Network
attr processid 21482
attr repetition 13
attr replication #13
attr resultdir results
attr runnumber 613
attr seedset 13
param *.boss.arrival_mean 20
param *.boss.service_mean 5.5
param *.minion.arrival_mean 10
param *.minion.service_mean 3
param *.player.recover_rate_x 0
param **.minion.arrival_distribution 0
param **.minion.service_distribution 0
param **.boss.arrival_distribution 0
param **.boss.service_distribution 0

vector 0 Network.player boss_jobs_number_stat:vector ETV
attr source signal_boss_jobs_number
vector 1 Network.player boss_jobs_queue_number_stat:vector ETV
attr source signal_boss_jobs_queue_number
vector 2 Network.player minion_jobs_number_stat:vector ETV
attr source signal_minion_jobs_number
vector 3 Network.player minion_jobs_queue_number_stat:vector ETV
attr source signal_minion_jobs_queue_number
vector 4 Network.player boss_defeated_stat:vector ETV
attr source signal_boss_defeated
vector 5 Network.player boss_response_time_stat:vector ETV
attr source signal_boss_response_time
vector 6 Network.player boss_waiting_time_stat:vector ETV
attr source signal_boss_waiting_time
vector 7 Network.player minion_waiting_time_stat:vector ETV
attr source signal_minion_waiting_time
vector 8 Network.player minion_recovered_stat:vector ETV
attr source signal_minion_recovered
vector 9 Network.player minion_defeated_stat:vector ETV
attr source signal_minion_defeated
vector 10 Network.player minion_response_time_stat:vector ETV
attr source signal_minion_response_time
vector 11 Network.player minion_throughput:vector ETV
attr source signal_minion_throughput
vector 12 Network.player boss_throughput:vector ETV
attr source signal_boss_throughput
0	161	350.881313172297	2
0	169	360.818519535049	1
0	172	361.531643308555	1
0	179	371.908598985871	1
0	181	376.931018151467	2
0	184	381.136330067117	2
0	217	429.073456309595	1
0	227	458.216863057689	1
0	232	485.039383383465	1
0	245	504.219337313665	1
0	249	513.42129579689	2
0	262	565.569280449517	1
0	278	626.472031129181	1
0	281	634.336558468053	1
0	285	638.192742303279	2
0	287	644.030677267764	3
0	289	644.144963208146	4
0	298	669.619848426002	2
0	311	693.409668976404	1
0	346	809.310921917985	1
0	358	827.380958355965	1
0	360	834.74067954906	2
0	376	858.166594785723	1
0	379	861.941115502046	1
0	391	883.655885421752	1
0	393	887.512647225875	2
0	404	903.905552536614	1
0	407	907.483937674146	1
0	434	990.413455002523	1
0	439	1008.003682923438	1
0	446	1020.417949707382	1
0	452	1033.249379298814	1
0	461	1053.470206707816	1
0	470	1065.821984533476	1
0	476	1072.614960455695	2
0	480	1077.976575989947	1
0	495	1104.858659015191	1
0	512	1143.647684051215	1
0	522	1159.235141044981	1
0	528	1171.966462265233	2
0	541	1196.686858693904	1
0	543	1197.809451509109	2
0	546	1201.314877016841	2
0	572	1301.300109462689	1
0	578	1316.697341954421	1
0	580	1321.049430127316	2
0	584	1327.240078304281	1
0	596	1352.172457290686	1
0	619	1419.760823824721	1
0	634	1453.65964639195	1
0	667	1539.073766767534	1
0	674	1551.811268998897	1
0	680	1574.680051997075	1
0	683	1580.731531549448	1
0	685	1583.786751798574	2
0	692	1595.405242588751	2
0	704	1614.424317239799	1
0	707	1619.123148538388	1
0	713	1628.846044176192	1
0	722	1641.653488925519	1
0	724	1646.228649184495	2
0	726	1651.491893488932	3
0	731	1656.443885829001	3
0	734	1659.95899571819	3
0	743	1686.518869704216	1
0	746	1691.412908866778	1
0	760	1722.827600274038	1
0	762	1726.331710433346	2
0	776	1767.39258822199	1
0	803	1826.132510283332	1
0	806	1837.232700665273	1
0	820	1856.676250964027	1
0	822	1857.37999332076	2
0	830	1883.476859197256	1
0	832	1885.403139532809	2
0	842	1927.167334289672	1
0	844	1928.858537845573	2
0	854	1985.692923559129	1
0	877	2035.12845233487	1
0	882	2037.706644485021	1
0	884	2043.472956852933	2
0	895	2086.337690370672	1
0	899	2097.545413534898	1
0	901	2099.566104157284	2
0	908	2115.320149594233	1
0	919	2145.854161296251	1
0	928	2165.681529415681	1
0	937	2187.109250616897	1
0	976	2221.454825515369	1
0	1003	2264.236815591852	1
0	1007	2271.874558676346	1
0	1014	2293.078236472355	1
0	1037	2336.495621840945	1
0	1041	2337.348088405461	2
0	1053	2352.254707627457	1
0	1064	2372.17973835098	1
0	1076	2414.535637886846	1
0	1094	2439.36645112858	1
0	1096	2440.572633583659	2
0	1107	2452.701691149425	1
0	1109	2455.773500652442	2
0	1112	2478.047714483756	2
0	1123	2490.461691942782	1
1	161	350.881313172297	1
1	164	356.220695242863	1
1	165	358.260083016316	0
1	169	360.818519535049	0
1	170	361.108910348972	0
1	172	361.531643308555	0
1	175	364.924420278847	0
1	179	371.908598985871	0
1	181	376.931018151467	1
1	182	380.130244161077	1
1	184	381.136330067117	1
1	187	382.838181921261	1
1	188	382.888677230758	0
1	217	429.073456309595	0
1	218	429.741429338427	0
1	227	458.216863057689	0
1	228	463.514199425402	0
1	232	485.039383383465	0
1	233	485.397599278308	0
1	245	504.219337313665	0
1	249	513.42129579689	1
1	250	513.61143226604	1
1	251	517.794000113029	0
1	262	565.569280449517	0
1	267	578.1562582075	0
1	278	626.472031129181	0
1	279	627.377652280068	0
1	281	634.336558468053	0
1	285	638.192742303279	1
1	287	644.030677267764	2
1	289	644.144963208146	3
1	292	657.663882804614	3
1	293	658.847793322188	2
1	294	662.624413006157	1
1	298	669.619848426002	1
1	301	674.519841531679	1
1	302	676.90880433232	0
1	311	693.409668976404	0
1	316	700.997077730228	0
1	346	809.310921917985	0
1	353	820.410171495607	0
1	358	827.380958355965	0
1	360	834.74067954906	1
1	365	842.940663057773	1
1	368	845.721694055444	0
1	376	858.166594785723	0
1	377	859.364526991499	0
1	379	861.941115502046	0
1	382	867.616357289237	0
1	391	883.655885421752	0
1	393	887.512647225875	1
1	394	888.281048517998	1
1	395	888.394708112914	0
1	404	903.905552536614	0
1	405	905.294404358861	0
1	407	907.483937674146	0
1	410	916.56278957658	0
1	434	990.413455002523	0
1	435	993.149743817533	0
1	439	1008.003682923438	0
1	440	1011.091606982282	0
1	446	1020.417949707382	0
1	447	1022.503533714753	0
1	452	1033.249379298814	0
1	455	1037.746633865766	0
1	461	1053.470206707816	0
1	462	1054.926790143987	0
1	470	1065.821984533476	0
1	476	1072.614960455695	1
1	477	1074.127514082289	1
1	478	1075.516200216847	0
1	480	1077.976575989947	0
1	481	1080.809607328277	0
1	495	1104.858659015191	0
1	496	1108.819632262058	0
1	512	1143.647684051215	0
1	517	1156.770197094662	0
1	522	1159.235141044981	0
1	528	1171.966462265233	1
1	529	1172.960370564452	1
1	530	1178.733914751768	0
1	541	1196.686858693904	0
1	543	1197.809451509109	1
1	544	1200.031915704172	1
1	546	1201.314877016841	1
1	547	1207.177962026871	1
1	550	1225.722083566473	0
1	572	1301.300109462689	0
1	573	1309.616848861564	0
1	578	1316.697341954421	0
1	580	1321.049430127316	1
1	581	1322.078355632224	1
1	582	1324.453820490357	0
1	584	1327.240078304281	0
1	585	1328.293295802403	0
1	596	1352.172457290686	0
1	597	1352.281663883522	0
1	619	1419.760823824721	0
1	622	1429.681337376197	0
1	634	1453.65964639195	0
1	635	1456.101852092279	0
1	667	1539.073766767534	0
1	670	1543.553949438656	0
1	674	1551.811268998897	0
1	675	1553.798382604724	0
1	680	1574.680051997075	0
1	681	1575.585645842187	0
1	683	1580.731531549448	0
1	685	1583.786751798574	1
1	690	1594.558926373687	1
1	692	1595.405242588751	1
1	693	1598.173803073422	1
1	694	1599.781021894796	0
1	704	1614.424317239799	0
1	705	1615.766783593244	0
1	707	1619.123148538388	0
1	708	1620.640914456124	0
1	713	1628.846044176192	0
1	716	1632.551731356866	0
1	722	1641.653488925519	0
1	724	1646.228649184495	1
1	726	1651.491893488932	2
1	727	1654.89249514474	2
1	731	1656.443885829001	2
1	732	1658.516155646212	2
1	734	1659.95899571819	2
1	737	1666.764812775707	2
1	738	1669.726428588294	1
1	739	1672.815824041376	0
1	743	1686.518869704216	0
1	744	1691.276127284319	0
1	746	1691.412908866778	0
1	749	1705.428901811348	0
1	760	1722.827600274038	0
1	762	1726.331710433346	1
1	763	1726.75794787255	1
1	768	1733.522802132192	0
1	776	1767.39258822199	0
1	787	1790.185123942315	0
1	803	1826.132510283332	0
1	804	1826.542123361032	0
1	806	1837.232700665273	0
1	811	1846.905724252003	0
1	820	1856.676250964027	0
1	822	1857.37999332076	1
1	825	1858.814252878662	1
1	826	1869.647110307709	0
1	830	1883.476859197256	0
1	832	1885.403139532809	1
1	833	1893.734919223494	1
1	836	1898.26045142738	0
1	842	1927.167334289672	0
1	844	1928.858537845573	1
1	845	1932.721004538701	1
1	846	1934.967814121474	0
1	854	1985.692923559129	0
1	855	1990.948229652925	0
1	877	2035.12845233487	0
1	878	2036.847959750411	0
1	882	2037.706644485021	0
1	884	2043.472956852933	1
1	885	2046.792087712848	1
1	886	2050.676516223279	0
1	895	2086.337690370672	0
1	896	2091.90262164499	0
1	899	2097.545413534898	0
1	901	2099.566104157284	1
1	902	2099.743834507642	1
1	903	2101.455340053473	0
1	908	2115.320149594233	0
1	909	2116.032358245609	0
1	919	2145.854161296251	0
1	920	2148.532854926941	0
1	928	2165.681529415681	0
1	931	2173.209027689841	0
1	937	2187.109250616897	0
1	938	2189.436056158797	0
1	976	2221.454825515369	0
1	977	2228.215251807693	0
1	1003	2264.236815591852	0
1	1004	2265.466372592789	0
1	1007	2271.874558676346	0
1	1008	2276.699835037899	0
1	1014	2293.078236472355	0
1	1015	2294.73603817483	0
1	1037	2336.495621840945	0
1	1041	2337.348088405461	1
1	1046	2345.483863698636	1
1	1049	2351.626744195512	0
1	1053	2352.254707627457	0
1	1054	2353.375369862286	0
1	1064	2372.17973835098	0
1	1065	2382.554301091296	0
1	1076	2414.535637886846	0
1	1079	2415.984806107558	0
1	1094	2439.36645112858	0
1	1096	2440.572633583659	1
1	1097	2440.612852405009	1
1	1098	2440.740522699879	0
1	1107	2452.701691149425	0
1	1109	2455.773500652442	1
1	1110	2460.812082990237	1
1	1112	2478.047714483756	1
1	1113	2478.259803722641	1
1	1116	2488.041246815705	0
1	1123	2490.461691942782	0
2	163	354.220807892071	3
2	167	358.816678104859	4
2	174	362.918884947423	5
2	186	382.502447573653	4
2	192	386.691966251989	3
2	195	391.480322332022	3
2	198	402.91178608321	3
2	200	403.909484036199	4
2	204	412.173305584134	3
2	208	416.102112529242	2
2	212	421.769602253501	1
2	215	427.13295448405	1
2	221	433.849908919438	1
2	224	447.408489393891	1
2	230	481.918541865505	1
2	236	492.645323064696	1
2	239	498.41728786812	1
2	241	500.665197321305	2
2	247	513.078115747372	1
2	254	529.606159204226	1
2	257	547.383719825004	1
2	260	562.820335773616	1
2	264	571.42461516205	2
2	266	576.44888564805	3
2	272	599.143554045033	1
2	275	606.28963701956	1
2	283	634.448028384357	1
2	291	650.35220467007	2
2	296	665.766420488575	3
2	300	671.661096219755	4
2	306	680.844601077482	3
2	313	694.4339970116	1
2	315	700.985969889335	2
2	318	701.806198171285	3
2	322	713.958362007736	2
2	326	720.645742409063	1
2	329	729.832992657518	1
2	332	735.531473481411	1
2	335	776.789953050879	1
2	338	779.614350689329	1
2	341	785.140662753362	1
2	344	804.919677685226	1
2	348	813.104810438763	2
2	350	813.307067739144	3
2	352	818.30858984354	4
2	355	824.302002192307	5
2	362	836.864931136729	5
2	364	837.350773138421	6
2	367	843.326417154544	7
2	370	850.212541818324	8
2	381	862.256259261925	5
2	389	881.830197929819	1
2	398	893.854051650568	1
2	401	897.930962325278	1
2	409	910.066976022594	1
2	413	933.253107534893	1
2	416	941.657077362681	1
2	419	942.968278161708	1
2	422	946.440734773634	1
2	425	948.153764576261	1
2	428	965.521339741348	1
2	431	981.004076053121	1
2	437	1004.449375652978	1
2	443	1015.38380414706	1
2	449	1024.553756365915	1
2	454	1037.290707556304	1
2	458	1049.858783622759	1
2	464	1057.607896085531	1
2	466	1061.401959982533	2
2	472	1067.787554912875	1
2	474	1068.252939213793	2
2	485	1091.347777855667	1
2	488	1096.268931160359	1
2	491	1100.961170677705	1
2	493	1104.564690809039	2
2	498	1112.067930347438	3
2	503	1119.099637767066	1
2	506	1130.957477577577	1
2	509	1138.78013148916	1
2	514	1144.323871654139	1
2	516	1148.450157988024	2
2	520	1158.627211880175	2
2	524	1159.331674425107	3
2	526	1168.353695857964	4
2	535	1188.190898806865	2
2	539	1194.247409209763	1
2	549	1215.289413414158	2
2	554	1240.032217313543	1
2	556	1240.082505664293	2
2	560	1253.710917304745	1
2	562	1257.293697563909	2
2	566	1283.813109435883	1
2	569	1291.389407764327	1
2	575	1313.569823988025	1
2	587	1346.167197587479	1
2	589	1350.028723703293	2
2	593	1351.512135146458	1
2	599	1363.224814850181	1
2	602	1377.772949826415	1
2	605	1378.379669330629	1
2	608	1391.432326235966	1
2	611	1393.686084915507	1
2	614	1405.629567179376	1
2	617	1418.469175043072	1
2	621	1425.893199456538	2
2	626	1439.836864833386	1
2	628	1444.7624137905	2
2	630	1448.263396076285	3
2	638	1465.369118310634	1
2	641	1497.176956300586	1
2	643	1497.962016172964	2
2	645	1498.005744378918	3
2	650	1508.777151633738	1
2	653	1513.081014510385	1
2	656	1519.02434727888	1
2	659	1521.224361848015	1
2	661	1521.4211177398	2
2	663	1527.176332775919	3
2	669	1542.095215944384	2
2	677	1568.633061524487	1
2	687	1586.257204412821	1
2	689	1589.545655119811	2
2	698	1603.92385839718	1
2	701	1609.50799170604	1
2	710	1625.662992635075	1
2	715	1631.920961920185	1
2	719	1635.677345328082	1
2	729	1654.996103444303	1
2	736	1663.090675980942	2
2	748	1704.68708707631	1
2	752	1709.770363652536	1
2	754	1716.266022827696	2
2	758	1720.94382496743	1
2	765	1728.637724047396	2
2	767	1731.636747604201	3
2	773	1746.878738555797	1
2	778	1767.685687162037	1
2	780	1784.550241260931	2
2	782	1784.841039858382	3
2	784	1786.41524331182	4
2	786	1789.616137908949	5
2	791	1793.820346761653	4
2	796	1800.426775317516	2
2	800	1812.321555644909	1
2	808	1840.504910789092	1
2	810	1842.590162227535	2
2	813	1847.99445252932	3
2	817	1854.07194290293	2
2	824	1858.808527574329	2
2	835	1894.016135839259	1
2	839	1915.429774557667	1
2	848	1967.183320475023	1
2	851	1979.625919561273	1
2	857	1993.509219006814	1
2	859	1999.044872113969	2
2	863	2006.225192601021	1
2	866	2011.405938186384	1
2	869	2018.637309074694	1
2	872	2030.325865854542	1
2	874	2031.042674949367	2
2	880	2037.599694128195	2
2	890	2073.067371242433	1
2	893	2078.372861477825	1
2	905	2109.343958797616	1
2	911	2123.437687074001	1
2	914	2138.579705603058	1
2	917	2143.511469465731	1
2	923	2162.382812115029	1
2	925	2163.089283698397	2
2	930	2168.186973905235	2
2	933	2173.869921520784	3
2	940	2189.811664414536	2
2	944	2196.082281053651	1
2	946	2196.260568128432	2
2	948	2197.06684740145	3
2	951	2198.899392425671	3
2	956	2203.672221669975	1
2	959	2205.91081637071	1
2	962	2209.528222924243	1
2	965	2212.282576392703	1
2	967	2215.738187667887	2
2	969	2216.540206352545	3
2	972	2219.790560216916	3
2	980	2232.952055811601	1
2	982	2233.289927255512	2
2	986	2234.378659968128	1
2	988	2246.891927868613	2
2	991	2252.24765871453	2
2	993	2256.212029238043	3
2	996	2258.711853867551	3
2	1001	2263.520418659047	1
2	1010	2291.641604036185	1
2	1012	2292.288336125078	2
2	1019	2299.337709247451	1
2	1022	2301.157408505392	1
2	1025	2310.542912566416	1
2	1027	2316.096112479992	2
2	1031	2324.857901397619	1
2	1034	2329.828241345159	1
2	1039	2336.636636448296	1
2	1043	2342.58296503385	2
2	1045	2344.407946736265	3
2	1048	2347.851559815224	4
2	1058	2363.887143678592	1
2	1061	2368.453322025333	1
2	1067	2384.92887531202	1
2	1070	2392.242113020186	1
2	1073	2402.905379266026	1
2	1078	2414.704580193717	1
2	1081	2416.079366247579	2
2	1083	2418.726709731	3
2	1086	2427.294030763727	3
2	1091	2438.424958185678	1
2	1100	2441.73512436978	1
2	1103	2445.627055548079	1
2	1105	2448.642151641041	2
2	1115	2479.805499485109	3
2	1119	2489.270064040171	3
2	1125	2494.009934103584	2
3	163	354.220807892071	2
3	167	358.816678104859	3
3	174	362.918884947423	4
3	176	369.013813382776	4
3	177	370.582540484743	3
3	186	382.502447573653	3
3	189	383.015355121069	3
3	190	385.074307584617	2
3	192	386.691966251989	2
3	193	391.349270102143	2
3	195	391.480322332022	2
3	196	394.51897604002	2
3	198	402.91178608321	2
3	200	403.909484036199	3
3	201	406.942956408099	3
3	202	409.459203471731	2
3	204	412.173305584134	2
3	205	412.306530659346	2
3	206	414.814251588787	1
3	208	416.102112529242	1
3	209	418.670859926736	1
3	210	420.900111093727	0
3	212	421.769602253501	0
3	213	422.20173135926	0
3	215	427.13295448405	0
3	219	430.607195463556	0
3	221	433.849908919438	0
3	222	435.574400953083	0
3	224	447.408489393891	0
3	225	447.820171029931	0
3	230	481.918541865505	0
3	234	489.767671920019	0
3	236	492.645323064696	0
3	237	493.274989506011	0
3	239	498.41728786812	0
3	241	500.665197321305	1
3	242	502.332707670279	1
3	243	504.078532155337	0
3	247	513.078115747372	0
3	252	525.313070587038	0
3	254	529.606159204226	0
3	255	535.548405348558	0
3	257	547.383719825004	0
3	258	549.957984131708	0
3	260	562.820335773616	0
3	264	571.42461516205	1
3	266	576.44888564805	2
3	268	582.225950870692	2
3	269	588.031930613884	1
3	270	588.811856917094	0
3	272	599.143554045033	0
3	273	604.176248146617	0
3	275	606.28963701956	0
3	276	608.173293608823	0
3	283	634.448028384357	0
3	291	650.35220467007	1
3	296	665.766420488575	2
3	300	671.661096219755	3
3	303	677.364789008774	3
3	304	679.272602925846	2
3	306	680.844601077482	2
3	307	684.02458594701	2
3	308	685.688574169634	1
3	309	689.128490256544	0
3	313	694.4339970116	0
3	315	700.985969889335	1
3	318	701.806198171285	2
3	319	711.517163534655	2
3	320	712.552405586819	1
3	322	713.958362007736	1
3	323	717.796714158308	1
3	324	718.259140595492	0
3	326	720.645742409063	0
3	327	724.30722411671	0
3	329	729.832992657518	0
3	330	730.008963577039	0
3	332	735.531473481411	0
3	333	736.619879248628	0
3	335	776.789953050879	0
3	336	778.786305860534	0
3	338	779.614350689329	0
3	339	780.098735976317	0
3	341	785.140662753362	0
3	342	786.235247579373	0
3	344	804.919677685226	0
3	348	813.104810438763	1
3	350	813.307067739144	2
3	352	818.30858984354	3
3	355	824.302002192307	4
3	356	824.527129054498	4
3	362	836.864931136729	4
3	364	837.350773138421	5
3	367	843.326417154544	6
3	370	850.212541818324	7
3	371	850.225866098981	7
3	372	856.307450105515	6
3	373	857.153414606042	5
3	374	857.942347085556	4
3	381	862.256259261925	4
3	383	868.622433516055	4
3	384	869.55706669351	3
3	385	870.574748689958	2
3	386	871.722972900475	1
3	387	875.426137560219	0
3	389	881.830197929819	0
3	396	892.614380414826	0
3	398	893.854051650568	0
3	399	896.40670528214	0
3	401	897.930962325278	0
3	402	898.725967677229	0
3	409	910.066976022594	0
3	411	918.012684345938	0
3	413	933.253107534893	0
3	414	934.001749558821	0
3	416	941.657077362681	0
3	417	942.03272617259	0
3	419	942.968278161708	0
3	420	943.05457203692	0
3	422	946.440734773634	0
3	423	947.544101027469	0
3	425	948.153764576261	0
3	426	950.208618072795	0
3	428	965.521339741348	0
3	429	972.186242228747	0
3	431	981.004076053121	0
3	432	984.885576839577	0
3	437	1004.449375652978	0
3	441	1011.897146730203	0
3	443	1015.38380414706	0
3	444	1016.671011689797	0
3	449	1024.553756365915	0
3	450	1030.454809212176	0
3	454	1037.290707556304	0
3	456	1038.62339432405	0
3	458	1049.858783622759	0
3	459	1051.332300778608	0
3	464	1057.607896085531	0
3	466	1061.401959982533	1
3	467	1062.736495816988	1
3	468	1065.383556083364	0
3	472	1067.787554912875	0
3	474	1068.252939213793	1
3	482	1085.698177777637	1
3	483	1088.497611098713	0
3	485	1091.347777855667	0
3	486	1091.501858718748	0
3	488	1096.268931160359	0
3	489	1097.340793207421	0
3	491	1100.961170677705	0
3	493	1104.564690809039	1
3	498	1112.067930347438	2
3	499	1112.129322652773	2
3	500	1114.003536194686	1
3	501	1117.592274075271	0
3	503	1119.099637767066	0
3	504	1120.000952850171	0
3	506	1130.957477577577	0
3	507	1131.14444351465	0
3	509	1138.78013148916	0
3	510	1139.294702546681	0
3	514	1144.323871654139	0
3	516	1148.450157988024	1
3	518	1158.274274539911	1
3	520	1158.627211880175	1
3	524	1159.331674425107	2
3	526	1168.353695857964	3
3	531	1181.027622729932	3
3	532	1185.020261031742	2
3	533	1187.919747986988	1
3	535	1188.190898806865	1
3	536	1188.443753348275	1
3	537	1190.930594178025	0
3	539	1194.247409209763	0
3	549	1215.289413414158	1
3	551	1231.778530114704	1
3	552	1232.67334598896	0
3	554	1240.032217313543	0
3	556	1240.082505664293	1
3	557	1240.126386172975	1
3	558	1240.370027853718	0
3	560	1253.710917304745	0
3	562	1257.293697563909	1
3	563	1257.656246389821	1
3	564	1258.376239991566	0
3	566	1283.813109435883	0
3	567	1284.229390536189	0
3	569	1291.389407764327	0
3	570	1297.932193577726	0
3	575	1313.569823988025	0
3	576	1314.911809203051	0
3	587	1346.167197587479	0
3	589	1350.028723703293	1
3	590	1351.280933525629	1
3	591	1351.411972406367	0
3	593	1351.512135146458	0
3	594	1351.718277062022	0
3	599	1363.224814850181	0
3	600	1366.236722331682	0
3	602	1377.772949826415	0
3	603	1378.031707742005	0
3	605	1378.379669330629	0
3	606	1382.280978594316	0
3	608	1391.432326235966	0
3	609	1391.665020139121	0
3	611	1393.686084915507	0
3	612	1397.211996772362	0
3	614	1405.629567179376	0
3	615	1405.917972713833	0
3	617	1418.469175043072	0
3	621	1425.893199456538	1
3	623	1433.803019692757	1
3	624	1439.742787143873	0
3	626	1439.836864833386	0
3	628	1444.7624137905	1
3	630	1448.263396076285	2
3	631	1448.316390166213	2
3	632	1449.682559319894	1
3	636	1457.396628872853	0
3	638	1465.369118310634	0
3	639	1469.089942182364	0
3	641	1497.176956300586	0
3	643	1497.962016172964	1
3	645	1498.005744378918	2
3	646	1500.869620666796	2
3	647	1504.580603003013	1
3	648	1506.953938385975	0
3	650	1508.777151633738	0
3	651	1508.985301758769	0
3	653	1513.081014510385	0
3	654	1516.097942983402	0
3	656	1519.02434727888	0
3	657	1519.920930317153	0
3	659	1521.224361848015	0
3	661	1521.4211177398	1
3	663	1527.176332775919	2
3	664	1528.006115057038	2
3	665	1533.047874965147	1
3	669	1542.095215944384	1
3	671	1543.695328102909	1
3	672	1547.135089139693	0
3	677	1568.633061524487	0
3	678	1571.669873997553	0
3	687	1586.257204412821	0
3	689	1589.545655119811	1
3	695	1600.494310836483	1
3	696	1600.683154911449	0
3	698	1603.92385839718	0
3	699	1606.618227765644	0
3	701	1609.50799170604	0
3	702	1612.971958336601	0
3	710	1625.662992635075	0
3	711	1628.467943158073	0
3	715	1631.920961920185	0
3	717	1634.500052975974	0
3	719	1635.677345328082	0
3	720	1636.242545384578	0
3	729	1654.996103444303	0
3	736	1663.090675980942	1
3	740	1676.539120359731	1
3	741	1679.33693296469	0
3	748	1704.68708707631	0
3	750	1706.14140933084	0
3	752	1709.770363652536	0
3	754	1716.266022827696	1
3	755	1716.525188840729	1
3	756	1720.150594267195	0
3	758	1720.94382496743	0
3	765	1728.637724047396	1
3	767	1731.636747604201	2
3	769	1735.479450008167	2
3	770	1742.32093743656	1
3	771	1742.69937358071	0
3	773	1746.878738555797	0
3	774	1750.291881409465	0
3	778	1767.685687162037	0
3	780	1784.550241260931	1
3	782	1784.841039858382	2
3	784	1786.41524331182	3
3	786	1789.616137908949	4
3	788	1792.180680140095	4
3	789	1792.824185421186	3
3	791	1793.820346761653	3
3	792	1795.939604444692	3
3	793	1798.27371270624	2
3	794	1799.742120905493	1
3	796	1800.426775317516	1
3	797	1805.97554966819	1
3	798	1806.187469074372	0
3	800	1812.321555644909	0
3	801	1814.905416459127	0
3	808	1840.504910789092	0
3	810	1842.590162227535	1
3	813	1847.99445252932	2
3	814	1851.784452409824	2
3	815	1852.982317670198	1
3	817	1854.07194290293	1
3	818	1856.349022165479	1
3	824	1858.808527574329	1
3	827	1871.766361949129	1
3	828	1872.253817133913	0
3	835	1894.016135839259	0
3	837	1898.844407452897	0
3	839	1915.429774557667	0
3	840	1918.560211257258	0
3	848	1967.183320475023	0
3	849	1970.516862403719	0
3	851	1979.625919561273	0
3	852	1983.352286900274	0
3	857	1993.509219006814	0
3	859	1999.044872113969	1
3	860	1999.590055984067	1
3	861	2001.136867723153	0
3	863	2006.225192601021	0
3	864	2008.188848275648	0
3	866	2011.405938186384	0
3	867	2013.031732262116	0
3	869	2018.637309074694	0
3	870	2019.975280194411	0
3	872	2030.325865854542	0
3	874	2031.042674949367	1
3	875	2031.722122489175	1
3	880	2037.599694128195	1
3	887	2052.246644292267	1
3	888	2056.905146924151	0
3	890	2073.067371242433	0
3	891	2076.886576734478	0
3	893	2078.372861477825	0
3	897	2094.144581142256	0
3	905	2109.343958797616	0
3	906	2110.418866299603	0
3	911	2123.437687074001	0
3	912	2130.095029756985	0
3	914	2138.579705603058	0
3	915	2139.512075813528	0
3	917	2143.511469465731	0
3	921	2155.6224572659	0
3	923	2162.382812115029	0
3	925	2163.089283698397	1
3	926	2165.083364905917	1
3	930	2168.186973905235	1
3	933	2173.869921520784	2
3	934	2182.631732385832	2
3	935	2183.54233566954	1
3	940	2189.811664414536	1
3	941	2190.237497220036	1
3	942	2192.807136395066	0
3	944	2196.082281053651	0
3	946	2196.260568128432	1
3	948	2197.06684740145	2
3	949	2197.239165855768	2
3	951	2198.899392425671	2
3	952	2199.553764029175	2
3	953	2200.885502586844	1
3	954	2202.279060764658	0
3	956	2203.672221669975	0
3	957	2204.096521111403	0
3	959	2205.91081637071	0
3	960	2206.82696318344	0
3	962	2209.528222924243	0
3	963	2210.809815565745	0
3	965	2212.282576392703	0
3	967	2215.738187667887	1
3	969	2216.540206352545	2
3	970	2219.434759965024	2
3	972	2219.790560216916	2
3	973	2219.939239127264	2
3	974	2221.20625845245	1
3	978	2228.678899304224	0
3	980	2232.952055811601	0
3	982	2233.289927255512	1
3	983	2233.60955375094	1
3	984	2233.870287179186	0
3	986	2234.378659968128	0
3	988	2246.891927868613	1
3	989	2248.281808491385	1
3	991	2252.24765871453	1
3	993	2256.212029238043	2
3	994	2256.425154289067	2
3	996	2258.711853867551	2
3	997	2258.786131670297	2
3	998	2260.111604622275	1
3	999	2262.727235786144	0
3	1001	2263.520418659047	0
3	1005	2269.574078210041	0
3	1010	2291.641604036185	0
3	1012	2292.288336125078	1
3	1016	2297.815212518885	1
3	1017	2299.165359293354	0
3	1019	2299.337709247451	0
3	1020	2299.73884759989	0
3	1022	2301.157408505392	0
3	1023	2303.644811023231	0
3	1025	2310.542912566416	0
3	1027	2316.096112479992	1
3	1028	2316.568287059643	1
3	1029	2318.389888727785	0
3	1031	2324.857901397619	0
3	1032	2328.096019923145	0
3	1034	2329.828241345159	0
3	1035	2336.312040478739	0
3	1039	2336.636636448296	0
3	1043	2342.58296503385	1
3	1045	2344.407946736265	2
3	1048	2347.851559815224	3
3	1050	2351.783183545542	3
3	1051	2351.912695567599	2
3	1055	2355.608226024059	1
3	1056	2359.277248828176	0
3	1058	2363.887143678592	0
3	1059	2366.524404376919	0
3	1061	2368.453322025333	0
3	1062	2371.105754706454	0
3	1067	2384.92887531202	0
3	1068	2385.20354790712	0
3	1070	2392.242113020186	0
3	1071	2395.530637021929	0
3	1073	2402.905379266026	0
3	1074	2403.479108764478	0
3	1078	2414.704580193717	0
3	1081	2416.079366247579	1
3	1083	2418.726709731	2
3	1084	2421.457565252252	2
3	1086	2427.294030763727	2
3	1087	2432.972744486404	2
3	1088	2435.301969390644	1
3	1089	2436.563136008459	0
3	1091	2438.424958185678	0
3	1092	2438.909985360814	0
3	1100	2441.73512436978	0
3	1101	2444.411150918292	0
3	1103	2445.627055548079	0
3	1105	2448.642151641041	1
3	1115	2479.805499485109	2
3	1117	2488.304234027509	2
3	1119	2489.270064040171	2
3	1120	2489.803514262617	2
3	1121	2489.996356950954	1
3	1125	2494.009934103584	1
4	164	356.220695242863	19
4	165	358.260083016316	20
4	170	361.108910348972	21
4	175	364.924420278847	22
4	182	380.130244161077	23
4	187	382.838181921261	24
4	188	382.888677230758	25
4	218	429.741429338427	26
4	228	463.514199425402	27
4	233	485.397599278308	28
4	250	513.61143226604	29
4	251	517.794000113029	30
4	267	578.1562582075	31
4	279	627.377652280068	32
4	292	657.663882804614	33
4	293	658.847793322188	34
4	294	662.624413006157	35
4	301	674.519841531679	36
4	302	676.90880433232	37
4	316	700.997077730228	38
4	353	820.410171495607	39
4	365	842.940663057773	40
4	368	845.721694055444	41
4	377	859.364526991499	42
4	382	867.616357289237	43
4	394	888.281048517998	44
4	395	888.394708112914	45
4	405	905.294404358861	46
4	410	916.56278957658	47
4	435	993.149743817533	48
4	440	1011.091606982282	49
4	447	1022.503533714753	50
4	455	1037.746633865766	51
4	462	1054.926790143987	52
4	477	1074.127514082289	53
4	478	1075.516200216847	54
4	481	1080.809607328277	55
4	496	1108.819632262058	56
4	517	1156.770197094662	57
4	529	1172.960370564452	58
4	530	1178.733914751768	59
4	544	1200.031915704172	60
4	547	1207.177962026871	61
4	550	1225.722083566473	62
4	573	1309.616848861564	63
4	581	1322.078355632224	64
4	582	1324.453820490357	65
4	585	1328.293295802403	66
4	597	1352.281663883522	67
4	622	1429.681337376197	68
4	635	1456.101852092279	69
4	670	1543.553949438656	70
4	675	1553.798382604724	71
4	681	1575.585645842187	72
4	690	1594.558926373687	73
4	693	1598.173803073422	74
4	694	1599.781021894796	75
4	705	1615.766783593244	76
4	708	1620.640914456124	77
4	716	1632.551731356866	78
4	727	1654.89249514474	79
4	732	1658.516155646212	80
4	737	1666.764812775707	81
4	738	1669.726428588294	82
4	739	1672.815824041376	83
4	744	1691.276127284319	84
4	749	1705.428901811348	85
4	763	1726.75794787255	86
4	768	1733.522802132192	87
4	787	1790.185123942315	88
4	804	1826.542123361032	89
4	811	1846.905724252003	90
4	825	1858.814252878662	91
4	826	1869.647110307709	92
4	833	1893.734919223494	93
4	836	1898.26045142738	94
4	845	1932.721004538701	95
4	846	1934.967814121474	96
4	855	1990.948229652925	97
4	878	2036.847959750411	98
4	885	2046.792087712848	99
4	886	2050.676516223279	100
4	896	2091.90262164499	101
4	902	2099.743834507642	102
4	903	2101.455340053473	103
4	909	2116.032358245609	104
4	920	2148.532854926941	105
4	931	2173.209027689841	106
4	938	2189.436056158797	107
4	977	2228.215251807693	108
4	1004	2265.466372592789	109
4	1008	2276.699835037899	110
4	1015	2294.73603817483	111
4	1046	2345.483863698636	112
4	1049	2351.626744195512	113
4	1054	2353.375369862286	114
4	1065	2382.554301091296	115
4	1079	2415.984806107558	116
4	1097	2440.612852405009	117
4	1098	2440.740522699879	118
4	1110	2460.812082990237	119
4	1113	2478.259803722641	120
4	1116	2488.041246815705	121
5	164	356.220695242863	13.763869057954
5	165	358.260083016316	7.378769844019
5	170	361.108910348972	0.290390813923
5	175	364.924420278847	3.392776970292
5	182	380.130244161077	8.221645175206
5	187	382.838181921261	5.907163769794
5	188	382.888677230758	1.752347163641
5	218	429.741429338427	0.667973028832
5	228	463.514199425402	5.297336367713
5	233	485.397599278308	0.358215894843
5	250	513.61143226604	9.392094952375
5	251	517.794000113029	4.372704316139
5	267	578.1562582075	12.586977757983
5	279	627.377652280068	0.905621150887
5	292	657.663882804614	23.327324336561
5	293	658.847793322188	20.655051018909
5	294	662.624413006157	18.593735738393
5	301	674.519841531679	30.374878323533
5	302	676.90880433232	7.288955906318
5	316	700.997077730228	7.587408753824
5	353	820.410171495607	11.099249577622
5	365	842.940663057773	15.559704701808
5	368	845.721694055444	10.981014506384
5	377	859.364526991499	1.197932205776
5	382	867.616357289237	5.675241787191
5	394	888.281048517998	4.625163096246
5	395	888.394708112914	0.882060887039
5	405	905.294404358861	1.388851822247
5	410	916.56278957658	9.078851902434
5	435	993.149743817533	2.73628881501
5	440	1011.091606982282	3.087924058844
5	447	1022.503533714753	2.085584007371
5	455	1037.746633865766	4.497254566952
5	462	1054.926790143987	1.456583436171
5	477	1074.127514082289	8.305529548813
5	478	1075.516200216847	2.901239761152
5	481	1080.809607328277	2.83303133833
5	496	1108.819632262058	3.960973246867
5	517	1156.770197094662	13.122513043447
5	529	1172.960370564452	13.725229519471
5	530	1178.733914751768	6.767452486535
5	544	1200.031915704172	3.345057010268
5	547	1207.177962026871	9.368510517762
5	550	1225.722083566473	24.407206549632
5	573	1309.616848861564	8.316739398875
5	581	1322.078355632224	5.381013677803
5	582	1324.453820490357	3.404390363041
5	585	1328.293295802403	1.053217498122
5	597	1352.281663883522	0.109206592836
5	622	1429.681337376197	9.920513551476
5	635	1456.101852092279	2.442205700329
5	670	1543.553949438656	4.480182671122
5	675	1553.798382604724	1.987113605827
5	681	1575.585645842187	0.905593845112
5	690	1594.558926373687	13.827394824239
5	693	1598.173803073422	14.387051274848
5	694	1599.781021894796	4.375779306045
5	705	1615.766783593244	1.342466353445
5	708	1620.640914456124	1.517765917736
5	716	1632.551731356866	3.705687180674
5	727	1654.89249514474	13.239006219221
5	732	1658.516155646212	12.287506461717
5	737	1666.764812775707	15.272919286775
5	738	1669.726428588294	13.282542759293
5	739	1672.815824041376	12.856828323186
5	744	1691.276127284319	4.757257580103
5	749	1705.428901811348	14.01599294457
5	763	1726.75794787255	3.930347598512
5	768	1733.522802132192	7.191091698846
5	787	1790.185123942315	22.792535720325
5	804	1826.542123361032	0.4096130777
5	811	1846.905724252003	9.67302358673
5	825	1858.814252878662	2.138001914635
5	826	1869.647110307709	12.267116986949
5	833	1893.734919223494	10.258060026238
5	836	1898.26045142738	12.857311894571
5	845	1932.721004538701	5.553670249029
5	846	1934.967814121474	6.109276275901
5	855	1990.948229652925	5.255306093796
5	878	2036.847959750411	1.719507415541
5	885	2046.792087712848	9.085443227827
5	886	2050.676516223279	7.203559370346
5	896	2091.90262164499	5.564931274318
5	902	2099.743834507642	2.198420972744
5	903	2101.455340053473	1.889235896189
5	909	2116.032358245609	0.712208651376
5	920	2148.532854926941	2.67869363069
5	931	2173.209027689841	7.52749827416
5	938	2189.436056158797	2.3268055419
5	977	2228.215251807693	6.760426292324
5	1004	2265.466372592789	1.229557000937
5	1008	2276.699835037899	4.825276361553
5	1015	2294.73603817483	1.657801702475
5	1046	2345.483863698636	8.988241857691
5	1049	2351.626744195512	14.278655790051
5	1054	2353.375369862286	1.120662234829
5	1065	2382.554301091296	10.374562740316
5	1079	2415.984806107558	1.449168220712
5	1097	2440.612852405009	1.246401276429
5	1098	2440.740522699879	0.16788911622
5	1110	2460.812082990237	8.110391840812
5	1113	2478.259803722641	22.486303070199
5	1116	2488.041246815705	9.993532331949
6	164	356.220695242863	5.339382070566
6	169	360.818519535049	0
6	172	361.531643308555	0
6	179	371.908598985871	0
6	182	380.130244161077	3.19922600961
6	187	382.838181921261	1.701851854144
6	217	429.073456309595	0
6	227	458.216863057689	0
6	232	485.039383383465	0
6	245	504.219337313665	0
6	250	513.61143226604	0.19013646915
6	262	565.569280449517	0
6	278	626.472031129181	0
6	281	634.336558468053	0
6	292	657.663882804614	19.471140501335
6	293	658.847793322188	14.817116054424
6	294	662.624413006157	18.479449798011
6	301	674.519841531679	4.899993105677
6	311	693.409668976404	0
6	346	809.310921917985	0
6	358	827.380958355965	0
6	365	842.940663057773	8.199983508713
6	376	858.166594785723	0
6	379	861.941115502046	0
6	391	883.655885421752	0
6	394	888.281048517998	0.768401292123
6	404	903.905552536614	0
6	407	907.483937674146	0
6	434	990.413455002523	0
6	439	1008.003682923438	0
6	446	1020.417949707382	0
6	452	1033.249379298814	0
6	461	1053.470206707816	0
6	470	1065.821984533476	0
6	477	1074.127514082289	1.512553626594
6	480	1077.976575989947	0
6	495	1104.858659015191	0
6	512	1143.647684051215	0
6	522	1159.235141044981	0
6	529	1172.960370564452	0.993908299219
6	541	1196.686858693904	0
6	544	1200.031915704172	2.222464195063
6	547	1207.177962026871	5.86308501003
6	572	1301.300109462689	0
6	578	1316.697341954421	0
6	581	1322.078355632224	1.028925504908
6	584	1327.240078304281	0
6	596	1352.172457290686	0
6	619	1419.760823824721	0
6	634	1453.65964639195	0
6	667	1539.073766767534	0
6	674	1551.811268998897	0
6	680	1574.680051997075	0
6	683	1580.731531549448	0
6	690	1594.558926373687	10.772174575113
6	693	1598.173803073422	2.768560484671
6	704	1614.424317239799	0
6	707	1619.123148538388	0
6	713	1628.846044176192	0
6	722	1641.653488925519	0
6	727	1654.89249514474	8.663845960245
6	732	1658.516155646212	7.02426215728
6	737	1666.764812775707	10.320926946706
6	738	1669.726428588294	9.767432870104
6	743	1686.518869704216	0
6	746	1691.412908866778	0
6	760	1722.827600274038	0
6	763	1726.75794787255	0.426237439204
6	776	1767.39258822199	0
6	803	1826.132510283332	0
6	806	1837.232700665273	0
6	820	1856.676250964027	0
6	825	1858.814252878662	1.434259557902
6	830	1883.476859197256	0
6	833	1893.734919223494	8.331779690685
6	842	1927.167334289672	0
6	845	1932.721004538701	3.862466693128
6	854	1985.692923559129	0
6	877	2035.12845233487	0
6	882	2037.706644485021	0
6	885	2046.792087712848	3.319130859915
6	895	2086.337690370672	0
6	899	2097.545413534898	0
6	902	2099.743834507642	0.177730350358
6	908	2115.320149594233	0
6	919	2145.854161296251	0
6	928	2165.681529415681	0
6	937	2187.109250616897	0
6	976	2221.454825515369	0
6	1003	2264.236815591852	0
6	1007	2271.874558676346	0
6	1014	2293.078236472355	0
6	1037	2336.495621840945	0
6	1046	2345.483863698636	8.135775293175
6	1053	2352.254707627457	0
6	1064	2372.17973835098	0
6	1076	2414.535637886846	0
6	1094	2439.36645112858	0
6	1097	2440.612852405009	0.04021882135
6	1107	2452.701691149425	0
6	1110	2460.812082990237	5.038582337795
6	1113	2478.259803722641	0.212089238885
6	1123	2490.461691942782	0
7	165	358.260083016316	16.405370339317
7	170	361.108910348972	13.098222483079
7	175	364.924420278847	10.703612386776
7	176	369.013813382776	10.197135277917
7	177	370.582540484743	9.764020949694
7	188	382.888677230758	21.357033922203
7	189	383.015355121069	20.096470173646
7	190	385.074307584617	13.165708598746
7	193	391.349270102143	8.84682252849
7	196	394.51897604002	7.827009788031
7	201	406.942956408099	15.462634076077
7	202	409.459203471731	6.547417388521
7	205	412.306530659346	8.397046623147
7	206	414.814251588787	2.640946004653
7	209	418.670859926736	2.568747397494
7	212	421.769602253501	0
7	215	427.13295448405	0
7	218	429.741429338427	0.667973028832
7	221	433.849908919438	0
7	224	447.408489393891	0
7	230	481.918541865505	0
7	233	485.397599278308	0.358215894843
7	236	492.645323064696	0
7	239	498.41728786812	0
7	242	502.332707670279	1.667510348974
7	251	517.794000113029	4.715884365657
7	254	529.606159204226	0
7	257	547.383719825004	0
7	260	562.820335773616	0
7	267	578.1562582075	12.586977757983
7	268	582.225950870692	10.801335708642
7	269	588.031930613884	11.583044965834
7	272	599.143554045033	0
7	275	606.28963701956	0
7	302	676.90880433232	42.460775947963
7	303	677.364789008774	27.012584338704
7	304	679.272602925846	13.506182437271
7	307	684.02458594701	12.363489727255
7	308	685.688574169634	4.843973092152
7	316	700.997077730228	6.563080718628
7	319	711.517163534655	10.53119364532
7	320	712.552405586819	10.746207415534
7	323	717.796714158308	3.838352150572
7	326	720.645742409063	0
7	329	729.832992657518	0
7	332	735.531473481411	0
7	335	776.789953050879	0
7	338	779.614350689329	0
7	341	785.140662753362	0
7	344	804.919677685226	0
7	353	820.410171495607	11.099249577622
7	356	824.527129054498	11.422318615735
7	368	845.721694055444	32.4146263163
7	371	850.225866098981	31.917276255441
7	372	856.307450105515	32.005447913208
7	373	857.153414606042	29.772456250077
7	374	857.942347085556	21.077415948827
7	377	859.364526991499	22.013753853078
7	382	867.616357289237	24.289940134693
7	383	868.622433516055	18.409891697731
7	384	869.55706669351	11.390471907787
7	385	870.574748689958	8.633633187912
7	386	871.722972900475	9.46671363855
7	389	881.830197929819	0
7	395	888.394708112914	4.738822691162
7	398	893.854051650568	0
7	401	897.930962325278	0
7	410	916.56278957658	6.495813553986
7	413	933.253107534893	0
7	416	941.657077362681	0
7	419	942.968278161708	0
7	422	946.440734773634	0
7	425	948.153764576261	0
7	428	965.521339741348	0
7	431	981.004076053121	0
7	437	1004.449375652978	0
7	440	1011.091606982282	3.087924058844
7	443	1015.38380414706	0
7	449	1024.553756365915	0
7	455	1037.746633865766	0.455926309462
7	458	1049.858783622759	0
7	464	1057.607896085531	0
7	467	1062.736495816988	1.334535834455
7	478	1075.516200216847	7.728645303972
7	481	1080.809607328277	12.556668114484
7	482	1085.698177777637	7.72160178769
7	485	1091.347777855667	0
7	488	1096.268931160359	0
7	491	1100.961170677705	0
7	496	1108.819632262058	4.254941453019
7	499	1112.129322652773	7.270663637582
7	500	1114.003536194686	1.935605847248
7	503	1119.099637767066	0
7	506	1130.957477577577	0
7	509	1138.78013148916	0
7	517	1156.770197094662	12.446325440523
7	518	1158.274274539911	9.824116551887
7	530	1178.733914751768	20.106702871593
7	531	1181.027622729932	21.792481684951
7	532	1185.020261031742	25.688586606635
7	533	1187.919747986988	19.566052129024
7	536	1188.443753348275	0.25285454141
7	539	1194.247409209763	0
7	550	1225.722083566473	29.035224872569
7	551	1231.778530114704	16.489116700546
7	554	1240.032217313543	0
7	557	1240.126386172975	0.043880508682
7	560	1253.710917304745	0
7	563	1257.656246389821	0.362548825912
7	566	1283.813109435883	0
7	569	1291.389407764327	0
7	575	1313.569823988025	0
7	587	1346.167197587479	0
7	590	1351.280933525629	1.252209822336
7	593	1351.512135146458	0
7	599	1363.224814850181	0
7	602	1377.772949826415	0
7	605	1378.379669330629	0
7	608	1391.432326235966	0
7	611	1393.686084915507	0
7	614	1405.629567179376	0
7	617	1418.469175043072	0
7	622	1429.681337376197	9.920513551476
7	623	1433.803019692757	7.909820236219
7	626	1439.836864833386	0
7	631	1448.316390166213	3.553976375713
7	632	1449.682559319894	1.419163243609
7	635	1456.101852092279	2.442205700329
7	638	1465.369118310634	0
7	641	1497.176956300586	0
7	646	1500.869620666796	2.907604493832
7	647	1504.580603003013	6.574858624095
7	650	1508.777151633738	0
7	653	1513.081014510385	0
7	656	1519.02434727888	0
7	659	1521.224361848015	0
7	664	1528.006115057038	6.584997317238
7	665	1533.047874965147	5.871542189228
7	670	1543.553949438656	4.480182671122
7	671	1543.695328102909	1.600112158525
7	677	1568.633061524487	0
7	694	1599.781021894796	13.523817481975
7	695	1600.494310836483	10.948655716672
7	698	1603.92385839718	0
7	701	1609.50799170604	0
7	710	1625.662992635075	0
7	716	1632.551731356866	0.630769436681
7	719	1635.677345328082	0
7	739	1672.815824041376	17.819720597073
7	740	1676.539120359731	13.448444378789
7	749	1705.428901811348	0.741814735038
7	752	1709.770363652536	0
7	755	1716.525188840729	0.259166013033
7	758	1720.94382496743	0
7	768	1733.522802132192	10.695201858154
7	769	1735.479450008167	6.841725960771
7	770	1742.32093743656	10.684189832359
7	773	1746.878738555797	0
7	787	1790.185123942315	22.499436780278
7	788	1792.180680140095	7.630438879164
7	789	1792.824185421186	7.983145562804
7	792	1795.939604444692	9.524361132872
7	793	1798.27371270624	8.657574797291
7	794	1799.742120905493	5.92177414384
7	797	1805.97554966819	5.548774350674
7	800	1812.321555644909	0
7	811	1846.905724252003	6.400813462911
7	814	1851.784452409824	9.194290182289
7	815	1852.982317670198	4.987865140878
7	818	1856.349022165479	2.277079262549
7	826	1869.647110307709	12.970859343682
7	827	1871.766361949129	12.9578343748
7	836	1898.26045142738	4.244315588121
7	839	1915.429774557667	0
7	848	1967.183320475023	0
7	851	1979.625919561273	0
7	857	1993.509219006814	0
7	860	1999.590055984067	0.545183870098
7	863	2006.225192601021	0
7	866	2011.405938186384	0
7	869	2018.637309074694	0
7	872	2030.325865854542	0
7	875	2031.722122489175	0.679447539808
7	878	2036.847959750411	1.719507415541
7	886	2050.676516223279	13.076822095084
7	887	2052.246644292267	14.539999807246
7	890	2073.067371242433	0
7	893	2078.372861477825	0
7	896	2091.90262164499	5.564931274318
7	905	2109.343958797616	0
7	911	2123.437687074001	0
7	914	2138.579705603058	0
7	917	2143.511469465731	0
7	920	2148.532854926941	2.67869363069
7	923	2162.382812115029	0
7	926	2165.083364905917	1.99408120752
7	931	2173.209027689841	7.52749827416
7	934	2182.631732385832	14.444758480597
7	935	2183.54233566954	9.672414148756
7	938	2189.436056158797	2.3268055419
7	941	2190.237497220036	0.4258328055
7	944	2196.082281053651	0
7	949	2197.239165855768	0.978597727336
7	952	2199.553764029175	2.486916627725
7	953	2200.885502586844	1.986110161173
7	956	2203.672221669975	0
7	959	2205.91081637071	0
7	962	2209.528222924243	0
7	965	2212.282576392703	0
7	970	2219.434759965024	3.696572297137
7	973	2219.939239127264	3.399032774719
7	974	2221.20625845245	1.415698235534
7	977	2228.215251807693	6.760426292324
7	980	2232.952055811601	0
7	983	2233.60955375094	0.319626495428
7	986	2234.378659968128	0
7	989	2248.281808491385	1.389880622772
7	994	2256.425154289067	4.177495574537
7	997	2258.786131670297	2.574102432254
7	998	2260.111604622275	1.399750754724
7	1001	2263.520418659047	0
7	1004	2265.466372592789	1.229557000937
7	1010	2291.641604036185	0
7	1015	2294.73603817483	2.447702049752
7	1016	2297.815212518885	4.73697604653
7	1019	2299.337709247451	0
7	1022	2301.157408505392	0
7	1025	2310.542912566416	0
7	1028	2316.568287059643	0.472174579651
7	1031	2324.857901397619	0
7	1034	2329.828241345159	0
7	1049	2351.626744195512	14.990107747216
7	1050	2351.783183545542	9.200218511692
7	1051	2351.912695567599	7.504748831334
7	1054	2353.375369862286	5.523810047062
7	1055	2355.608226024059	3.353518396602
7	1058	2363.887143678592	0
7	1061	2368.453322025333	0
7	1067	2384.92887531202	0
7	1070	2392.242113020186	0
7	1073	2402.905379266026	0
7	1079	2415.984806107558	1.280225913841
7	1084	2421.457565252252	5.378199004673
7	1087	2432.972744486404	14.246034755404
7	1088	2435.301969390644	8.007938626917
7	1091	2438.424958185678	0
7	1100	2441.73512436978	0
7	1103	2445.627055548079	0
7	1116	2488.041246815705	39.399095174664
7	1117	2488.304234027509	35.602542878084
7	1120	2489.803514262617	9.998014777508
7	1121	2489.996356950954	0.726292910783
8	169	360.818519535049	5
8	172	361.531643308555	6
8	179	371.908598985871	7
8	217	429.073456309595	8
8	232	485.039383383465	9
8	262	565.569280449517	10
8	346	809.310921917985	11
8	358	827.380958355965	12
8	376	858.166594785723	13
8	379	861.941115502046	14
8	391	883.655885421752	15
8	439	1008.003682923438	16
8	480	1077.976575989947	17
8	495	1104.858659015191	18
8	522	1159.235141044981	19
8	541	1196.686858693904	20
8	619	1419.760823824721	21
8	634	1453.65964639195	22
8	667	1539.073766767534	23
8	760	1722.827600274038	24
8	820	1856.676250964027	25
8	877	2035.12845233487	26
8	882	2037.706644485021	27
8	895	2086.337690370672	28
8	919	2145.854161296251	29
8	928	2165.681529415681	30
8	937	2187.109250616897	31
8	976	2221.454825515369	32
8	1003	2264.236815591852	33
8	1014	2293.078236472355	34
8	1053	2352.254707627457	35
8	1107	2452.701691149425	36
8	1123	2490.461691942782	37
9	176	369.013813382776	34
9	177	370.582540484743	35
9	189	383.015355121069	36
9	190	385.074307584617	37
9	193	391.349270102143	38
9	196	394.51897604002	39
9	201	406.942956408099	40
9	202	409.459203471731	41
9	205	412.306530659346	42
9	206	414.814251588787	43
9	209	418.670859926736	44
9	210	420.900111093727	45
9	213	422.20173135926	46
9	219	430.607195463556	47
9	222	435.574400953083	48
9	225	447.820171029931	49
9	234	489.767671920019	50
9	237	493.274989506011	51
9	242	502.332707670279	52
9	243	504.078532155337	53
9	252	525.313070587038	54
9	255	535.548405348558	55
9	258	549.957984131708	56
9	268	582.225950870692	57
9	269	588.031930613884	58
9	270	588.811856917094	59
9	273	604.176248146617	60
9	276	608.173293608823	61
9	303	677.364789008774	62
9	304	679.272602925846	63
9	307	684.02458594701	64
9	308	685.688574169634	65
9	309	689.128490256544	66
9	319	711.517163534655	67
9	320	712.552405586819	68
9	323	717.796714158308	69
9	324	718.259140595492	70
9	327	724.30722411671	71
9	330	730.008963577039	72
9	333	736.619879248628	73
9	336	778.786305860534	74
9	339	780.098735976317	75
9	342	786.235247579373	76
9	356	824.527129054498	77
9	371	850.225866098981	78
9	372	856.307450105515	79
9	373	857.153414606042	80
9	374	857.942347085556	81
9	383	868.622433516055	82
9	384	869.55706669351	83
9	385	870.574748689958	84
9	386	871.722972900475	85
9	387	875.426137560219	86
9	396	892.614380414826	87
9	399	896.40670528214	88
9	402	898.725967677229	89
9	411	918.012684345938	90
9	414	934.001749558821	91
9	417	942.03272617259	92
9	420	943.05457203692	93
9	423	947.544101027469	94
9	426	950.208618072795	95
9	429	972.186242228747	96
9	432	984.885576839577	97
9	441	1011.897146730203	98
9	444	1016.671011689797	99
9	450	1030.454809212176	100
9	456	1038.62339432405	101
9	459	1051.332300778608	102
9	467	1062.736495816988	103
9	468	1065.383556083364	104
9	482	1085.698177777637	105
9	483	1088.497611098713	106
9	486	1091.501858718748	107
9	489	1097.340793207421	108
9	499	1112.129322652773	109
9	500	1114.003536194686	110
9	501	1117.592274075271	111
9	504	1120.000952850171	112
9	507	1131.14444351465	113
9	510	1139.294702546681	114
9	518	1158.274274539911	115
9	531	1181.027622729932	116
9	532	1185.020261031742	117
9	533	1187.919747986988	118
9	536	1188.443753348275	119
9	537	1190.930594178025	120
9	551	1231.778530114704	121
9	552	1232.67334598896	122
9	557	1240.126386172975	123
9	558	1240.370027853718	124
9	563	1257.656246389821	125
9	564	1258.376239991566	126
9	567	1284.229390536189	127
9	570	1297.932193577726	128
9	576	1314.911809203051	129
9	590	1351.280933525629	130
9	591	1351.411972406367	131
9	594	1351.718277062022	132
9	600	1366.236722331682	133
9	603	1378.031707742005	134
9	606	1382.280978594316	135
9	609	1391.665020139121	136
9	612	1397.211996772362	137
9	615	1405.917972713833	138
9	623	1433.803019692757	139
9	624	1439.742787143873	140
9	631	1448.316390166213	141
9	632	1449.682559319894	142
9	636	1457.396628872853	143
9	639	1469.089942182364	144
9	646	1500.869620666796	145
9	647	1504.580603003013	146
9	648	1506.953938385975	147
9	651	1508.985301758769	148
9	654	1516.097942983402	149
9	657	1519.920930317153	150
9	664	1528.006115057038	151
9	665	1533.047874965147	152
9	671	1543.695328102909	153
9	672	1547.135089139693	154
9	678	1571.669873997553	155
9	695	1600.494310836483	156
9	696	1600.683154911449	157
9	699	1606.618227765644	158
9	702	1612.971958336601	159
9	711	1628.467943158073	160
9	717	1634.500052975974	161
9	720	1636.242545384578	162
9	740	1676.539120359731	163
9	741	1679.33693296469	164
9	750	1706.14140933084	165
9	755	1716.525188840729	166
9	756	1720.150594267195	167
9	769	1735.479450008167	168
9	770	1742.32093743656	169
9	771	1742.69937358071	170
9	774	1750.291881409465	171
9	788	1792.180680140095	172
9	789	1792.824185421186	173
9	792	1795.939604444692	174
9	793	1798.27371270624	175
9	794	1799.742120905493	176
9	797	1805.97554966819	177
9	798	1806.187469074372	178
9	801	1814.905416459127	179
9	814	1851.784452409824	180
9	815	1852.982317670198	181
9	818	1856.349022165479	182
9	827	1871.766361949129	183
9	828	1872.253817133913	184
9	837	1898.844407452897	185
9	840	1918.560211257258	186
9	849	1970.516862403719	187
9	852	1983.352286900274	188
9	860	1999.590055984067	189
9	861	2001.136867723153	190
9	864	2008.188848275648	191
9	867	2013.031732262116	192
9	870	2019.975280194411	193
9	875	2031.722122489175	194
9	887	2052.246644292267	195
9	888	2056.905146924151	196
9	891	2076.886576734478	197
9	897	2094.144581142256	198
9	906	2110.418866299603	199
9	912	2130.095029756985	200
9	915	2139.512075813528	201
9	921	2155.6224572659	202
9	926	2165.083364905917	203
9	934	2182.631732385832	204
9	935	2183.54233566954	205
9	941	2190.237497220036	206
9	942	2192.807136395066	207
9	949	2197.239165855768	208
9	952	2199.553764029175	209
9	953	2200.885502586844	210
9	954	2202.279060764658	211
9	957	2204.096521111403	212
9	960	2206.82696318344	213
9	963	2210.809815565745	214
9	970	2219.434759965024	215
9	973	2219.939239127264	216
9	974	2221.20625845245	217
9	978	2228.678899304224	218
9	983	2233.60955375094	219
9	984	2233.870287179186	220
9	989	2248.281808491385	221
9	994	2256.425154289067	222
9	997	2258.786131670297	223
9	998	2260.111604622275	224
9	999	2262.727235786144	225
9	1005	2269.574078210041	226
9	1016	2297.815212518885	227
9	1017	2299.165359293354	228
9	1020	2299.73884759989	229
9	1023	2303.644811023231	230
9	1028	2316.568287059643	231
9	1029	2318.389888727785	232
9	1032	2328.096019923145	233
9	1035	2336.312040478739	234
9	1050	2351.783183545542	235
9	1051	2351.912695567599	236
9	1055	2355.608226024059	237
9	1056	2359.277248828176	238
9	1059	2366.524404376919	239
9	1062	2371.105754706454	240
9	1068	2385.20354790712	241
9	1071	2395.530637021929	242
9	1074	2403.479108764478	243
9	1084	2421.457565252252	244
9	1087	2432.972744486404	245
9	1088	2435.301969390644	246
9	1089	2436.563136008459	247
9	1092	2438.909985360814	248
9	1101	2444.411150918292	249
9	1117	2488.304234027509	250
9	1120	2489.803514262617	251
9	1121	2489.996356950954	252
10	176	369.013813382776	14.793005490705
10	177	370.582540484743	11.765862379884
10	189	383.015355121069	21.483711812514
10	190	385.074307584617	22.155422637194
10	193	391.349270102143	19.440671116272
10	196	394.51897604002	12.016528466367
10	201	406.942956408099	20.25099015611
10	202	409.459203471731	17.978881139709
10	205	412.306530659346	9.394744576136
10	206	414.814251588787	10.904767552588
10	209	418.670859926736	6.497554342602
10	210	420.900111093727	4.797998564485
10	213	422.20173135926	0.432129105759
10	219	430.607195463556	1.533739153961
10	222	435.574400953083	1.724492033645
10	225	447.820171029931	0.41168163604
10	234	489.767671920019	4.728288536554
10	237	493.274989506011	0.629666441315
10	242	502.332707670279	3.915419802159
10	243	504.078532155337	3.413334834032
10	252	525.313070587038	12.234954839666
10	255	535.548405348558	5.942246144332
10	258	549.957984131708	2.574264306704
10	268	582.225950870692	16.656670421175
10	269	588.031930613884	16.607315451834
10	270	588.811856917094	12.362971269044
10	273	604.176248146617	5.032694101584
10	276	608.173293608823	1.883656589263
10	303	677.364789008774	42.916760624417
10	304	679.272602925846	28.920398255776
10	307	684.02458594701	18.258165458435
10	308	685.688574169634	14.027477949879
10	309	689.128490256544	8.283889179062
10	319	711.517163534655	17.083166523055
10	320	712.552405586819	11.566435697484
10	323	717.796714158308	15.990515987023
10	324	718.259140595492	4.300778587756
10	327	724.30722411671	3.661481707647
10	330	730.008963577039	0.175970919521
10	333	736.619879248628	1.088405767217
10	336	778.786305860534	1.996352809655
10	339	780.098735976317	0.484385286988
10	342	786.235247579373	1.094584826011
10	356	824.527129054498	15.216207136513
10	371	850.225866098981	36.918798359837
10	372	856.307450105515	37.998860261975
10	373	857.153414606042	32.851412413735
10	374	857.942347085556	30.561388729591
10	383	868.622433516055	25.296016361511
10	384	869.55706669351	19.344524875186
10	385	870.574748689958	12.408153904235
10	386	871.722972900475	9.781857398429
10	387	875.426137560219	13.169878298294
10	396	892.614380414826	8.958494993074
10	399	896.40670528214	2.552653631572
10	402	898.725967677229	0.795005351951
10	411	918.012684345938	7.945708323344
10	414	934.001749558821	0.748642023928
10	417	942.03272617259	0.375648809909
10	420	943.05457203692	0.086293875212
10	423	947.544101027469	1.103366253835
10	426	950.208618072795	2.054853496534
10	429	972.186242228747	6.664902487399
10	432	984.885576839577	3.881500786456
10	441	1011.897146730203	3.893463806765
10	444	1016.671011689797	1.287207542737
10	450	1030.454809212176	5.901052846261
10	456	1038.62339432405	1.332686767746
10	459	1051.332300778608	1.473517155849
10	467	1062.736495816988	5.128599731457
10	468	1065.383556083364	3.981596100831
10	482	1085.698177777637	17.445238563844
10	483	1088.497611098713	10.521035108766
10	486	1091.501858718748	0.154080863081
10	489	1097.340793207421	1.071862047062
10	499	1112.129322652773	7.564631843734
10	500	1114.003536194686	9.144877179495
10	501	1117.592274075271	5.524343727833
10	504	1120.000952850171	0.901315083105
10	507	1131.14444351465	0.186965937073
10	510	1139.294702546681	0.514571057521
10	518	1158.274274539911	13.950402885772
10	531	1181.027622729932	22.400410849757
10	532	1185.020261031742	25.785119986761
10	533	1187.919747986988	28.588073561881
10	536	1188.443753348275	20.090057490311
10	537	1190.930594178025	2.73969537116
10	551	1231.778530114704	35.0916714208
10	552	1232.67334598896	17.383932574802
10	557	1240.126386172975	0.094168859432
10	558	1240.370027853718	0.287522189425
10	563	1257.656246389821	3.945329085076
10	564	1258.376239991566	1.082542427657
10	567	1284.229390536189	0.416281100306
10	570	1297.932193577726	6.542785813399
10	576	1314.911809203051	1.341985215026
10	590	1351.280933525629	5.11373593815
10	591	1351.411972406367	1.383248703074
10	594	1351.718277062022	0.206141915564
10	600	1366.236722331682	3.011907481501
10	603	1378.031707742005	0.25875791559
10	606	1382.280978594316	3.901309263687
10	609	1391.665020139121	0.232693903155
10	612	1397.211996772362	3.525911856855
10	615	1405.917972713833	0.288405534457
10	623	1433.803019692757	14.042195868036
10	624	1439.742787143873	13.849587687335
10	631	1448.316390166213	8.479525332827
10	632	1449.682559319894	4.920145529394
10	636	1457.396628872853	3.736982480903
10	639	1469.089942182364	3.72082387173
10	646	1500.869620666796	3.69266436621
10	647	1504.580603003013	6.618586830049
10	648	1506.953938385975	8.948194007057
10	651	1508.985301758769	0.208150125031
10	654	1516.097942983402	3.016928473017
10	657	1519.920930317153	0.896583038273
10	664	1528.006115057038	6.781753209023
10	665	1533.047874965147	11.626757225347
10	671	1543.695328102909	4.621561335375
10	672	1547.135089139693	5.039873195309
10	678	1571.669873997553	3.036812473066
10	695	1600.494310836483	14.237106423662
10	696	1600.683154911449	11.137499791638
10	699	1606.618227765644	2.694369368464
10	702	1612.971958336601	3.463966630561
10	711	1628.467943158073	2.804950522998
10	717	1634.500052975974	2.579091055789
10	720	1636.242545384578	0.565200056496
10	740	1676.539120359731	21.543016915428
10	741	1679.33693296469	16.246256983748
10	750	1706.14140933084	1.45432225453
10	755	1716.525188840729	6.754825188193
10	756	1720.150594267195	3.884571439499
10	769	1735.479450008167	12.651849734129
10	770	1742.32093743656	13.683213389164
10	771	1742.69937358071	11.062625976509
10	774	1750.291881409465	3.413142853668
10	788	1792.180680140095	24.494992978058
10	789	1792.824185421186	8.273944160255
10	792	1795.939604444692	11.09856458631
10	793	1798.27371270624	11.85846939442
10	794	1799.742120905493	10.125982996544
10	797	1805.97554966819	12.155202906537
10	798	1806.187469074372	5.760693756856
10	801	1814.905416459127	2.583860814218
10	814	1851.784452409824	11.279541620732
10	815	1852.982317670198	10.392155442663
10	818	1856.349022165479	8.354569636159
10	827	1871.766361949129	15.090110985102
10	828	1872.253817133913	13.445289559584
10	837	1898.844407452897	4.828271613638
10	840	1918.560211257258	3.130436699591
10	849	1970.516862403719	3.333541928696
10	852	1983.352286900274	3.726367339001
10	860	1999.590055984067	6.080836977253
10	861	2001.136867723153	2.091995609184
10	864	2008.188848275648	1.963655674627
10	867	2013.031732262116	1.625794075732
10	870	2019.975280194411	1.337971119717
10	875	2031.722122489175	1.396256634633
10	887	2052.246644292267	14.646950164072
10	888	2056.905146924151	19.19850243913
10	891	2076.886576734478	3.819205492045
10	897	2094.144581142256	7.806890771584
10	906	2110.418866299603	1.074907501987
10	912	2130.095029756985	6.657342682984
10	915	2139.512075813528	0.93237021047
10	921	2155.6224572659	9.768295969649
10	926	2165.083364905917	2.700552790888
10	934	2182.631732385832	16.950202970151
10	935	2183.54233566954	15.355361764305
10	941	2190.237497220036	3.128246603139
10	942	2192.807136395066	2.99547198053
10	949	2197.239165855768	1.156884802117
10	952	2199.553764029175	3.293195900743
10	953	2200.885502586844	3.818655185394
10	954	2202.279060764658	3.379668338987
10	957	2204.096521111403	0.424299441428
10	960	2206.82696318344	0.91614681273
10	963	2210.809815565745	1.281592641502
10	970	2219.434759965024	7.152183572321
10	973	2219.939239127264	4.201051459377
10	974	2221.20625845245	4.666052099905
10	978	2228.678899304224	7.224073788855
10	983	2233.60955375094	0.657497939339
10	984	2233.870287179186	0.580359923674
10	989	2248.281808491385	13.903148523257
10	994	2256.425154289067	9.533226420454
10	997	2258.786131670297	6.538472955767
10	998	2260.111604622275	3.899575384232
10	999	2262.727235786144	4.015381918593
10	1005	2269.574078210041	5.337262618189
10	1016	2297.815212518885	5.526876393807
10	1017	2299.165359293354	6.087122820999
10	1020	2299.73884759989	0.401138352439
10	1023	2303.644811023231	2.487402517839
10	1028	2316.568287059643	6.025374493227
10	1029	2318.389888727785	2.293776247793
10	1032	2328.096019923145	3.238118525526
10	1035	2336.312040478739	6.48379913358
10	1050	2351.783183545542	15.146547097246
10	1051	2351.912695567599	9.329730533749
10	1055	2355.608226024059	7.756666208835
10	1056	2359.277248828176	7.022541200719
10	1059	2366.524404376919	2.637260698327
10	1062	2371.105754706454	2.652432681121
10	1068	2385.20354790712	0.2746725951
10	1071	2395.530637021929	3.288524001743
10	1074	2403.479108764478	0.573729498452
10	1084	2421.457565252252	6.752985058535
10	1087	2432.972744486404	16.893378238825
10	1088	2435.301969390644	16.575259659644
10	1089	2436.563136008459	9.269105244732
10	1092	2438.909985360814	0.485027175136
10	1101	2444.411150918292	2.676026548512
10	1117	2488.304234027509	39.662082386468
10	1120	2489.803514262617	37.101823113192
10	1121	2489.996356950954	10.190857465845
11	1126	2500	0.1008
12	1126	2500	0.0484

