file 59897 1678273399                                           
version 2
run experiments_easy_game_mode1-408-20230308-12:03:19-20448
attr configname experiments_easy_game_mode1
attr datetime 20230308-12:03:19
attr experiment experiments_easy_game_mode1
attr inifile omnetpp.ini
attr iterationvars "$0=5.5, $1=1, $2=100"
attr iterationvarsf 5.5,1,100-
attr measurement "$0=5.5, $1=1, $2=100"
attr network Network
attr processid 20448
attr repetition 18
attr replication #18
attr resultdir results
attr runnumber 408
attr seedset 18
param *.boss.arrival_mean 20
param *.boss.service_mean 5.5
param *.minion.arrival_mean 10
param *.minion.service_mean 1
param *.player.recover_rate_x 100
param **.minion.arrival_distribution 0
param **.minion.service_distribution 0
param **.boss.arrival_distribution 0
param **.boss.service_distribution 0

vector 0 Network.player boss_jobs_number_stat:vector ETV
attr source signal_boss_jobs_number
vector 1 Network.player boss_jobs_queue_number_stat:vector ETV
attr source signal_boss_jobs_queue_number
vector 2 Network.player boss_waiting_time_stat:vector ETV
attr source signal_boss_waiting_time
vector 3 Network.player minion_jobs_number_stat:vector ETV
attr source signal_minion_jobs_number
vector 4 Network.player minion_jobs_queue_number_stat:vector ETV
attr source signal_minion_jobs_queue_number
vector 5 Network.player boss_defeated_stat:vector ETV
attr source signal_boss_defeated
vector 6 Network.player boss_response_time_stat:vector ETV
attr source signal_boss_response_time
vector 7 Network.player minion_waiting_time_stat:vector ETV
attr source signal_minion_waiting_time
vector 8 Network.player minion_defeated_stat:vector ETV
attr source signal_minion_defeated
vector 9 Network.player minion_response_time_stat:vector ETV
attr source signal_minion_response_time
vector 10 Network.player minion_recovered_stat:vector ETV
attr source signal_minion_recovered
vector 11 Network.player minion_throughput:vector ETV
attr source signal_minion_throughput
vector 12 Network.player boss_throughput:vector ETV
attr source signal_boss_throughput
0	2021 2644 146 1137 352.65760743913 2494.636027121347 103 1 5 163 347
1	4665 5213 146 1137 352.65760743913 2494.636027121347 203 0 4 117 243
2	9878 3061 146 1133 352.65760743913 2490.238705866935 101 0 25.509474620741 325.67549249554 4595.3658966663
3	12939 5886 148 1130 355.05946736505 2485.429838161415 229 1 10 406 1430
4	18825 11773 148 1131 355.05946736505 2485.924140316822 458 0 9 354 1694
5	30598 2686 149 1128 355.234957148056 2476.303549925659 100 17 116 6650 525550
6	33284 3887 149 1128 355.234957148056 2476.303549925659 100 0.063588569983 45.095161235633 913.52368596329 15949.840073101
7	37171 7337 149 1130 355.234957148056 2485.429838161415 236 0 57.580963807401 1379.7433335615 45626.690492823
8	44508 6279 150 1131 355.538730075528 2485.924140316822 229 33 261 33663 5949191
9	50787 8881 150 1131 355.538730075528 2485.924140316822 229 0.000594993144 57.96301163425 1577.3536013597 48506.360942959
10	59668 188 487 850 1025.81114179477 1748.582026119455 7 2 8 35 203
11	59856 20 1138 1138 2500 2500 1 0.1044 0.1044 0.1044 0.01089936
12	59876 20 1138 1138 2500 2500 1 0.0464 0.0464 0.0464 0.00215296

