file 60494 1678273680                                           
version 2
run experiments_easy_game_mode1-1653-20230308-12:08:00-27054
attr configname experiments_easy_game_mode1
attr datetime 20230308-12:08:00
attr experiment experiments_easy_game_mode1
attr inifile omnetpp.ini
attr iterationvars "$0=7, $1=2.5, $2=100"
attr iterationvarsf 7,2.5,100-
attr measurement "$0=7, $1=2.5, $2=100"
attr network Network
attr processid 27054
attr repetition 3
attr replication #3
attr resultdir results
attr runnumber 1653
attr seedset 3
param *.boss.arrival_mean 20
param *.boss.service_mean 7
param *.minion.arrival_mean 10
param *.minion.service_mean 2.5
param *.player.recover_rate_x 100
param **.minion.arrival_distribution 0
param **.minion.service_distribution 0
param **.boss.arrival_distribution 0
param **.boss.service_distribution 0

vector 0 Network.player minion_jobs_number_stat:vector ETV
attr source signal_minion_jobs_number
vector 1 Network.player minion_jobs_queue_number_stat:vector ETV
attr source signal_minion_jobs_queue_number
vector 2 Network.player boss_defeated_stat:vector ETV
attr source signal_boss_defeated
vector 3 Network.player boss_jobs_queue_number_stat:vector ETV
attr source signal_boss_jobs_queue_number
vector 4 Network.player boss_response_time_stat:vector ETV
attr source signal_boss_response_time
vector 5 Network.player minion_waiting_time_stat:vector ETV
attr source signal_minion_waiting_time
vector 6 Network.player minion_defeated_stat:vector ETV
attr source signal_minion_defeated
vector 7 Network.player minion_response_time_stat:vector ETV
attr source signal_minion_response_time
vector 8 Network.player boss_jobs_number_stat:vector ETV
attr source signal_boss_jobs_number
vector 9 Network.player minion_recovered_stat:vector ETV
attr source signal_minion_recovered
vector 10 Network.player boss_waiting_time_stat:vector ETV
attr source signal_boss_waiting_time
vector 11 Network.player minion_throughput:vector ETV
attr source signal_minion_throughput
vector 12 Network.player boss_throughput:vector ETV
attr source signal_boss_throughput
0	2020 6044 160 1134 361.339663494602 2499.804357768263 234 1 11 549 2339
1	8064 11927 160 1134 361.339663494602 2499.804357768263 462 0 10 615 2895
2	19991 2531 161 1127 362.225444868444 2488.431977191883 94 20 113 6251 484899
3	22522 4812 161 1127 362.225444868444 2488.431977191883 187 0 4 150 374
4	27334 3678 161 1127 362.225444868444 2488.431977191883 94 0.218669637945 57.589716077671 1221.2836483207 33244.535456443
5	31012 8333 161 1132 362.225444868444 2499.492261062631 249 0 73.272755626551 2088.4813953366 67241.012808441
6	39345 6274 162 1132 364.116063994909 2499.492261062631 228 34 261 33630 5948102
7	45619 8909 162 1132 364.116063994909 2499.492261062631 228 3.0095288e-05 75.800529959688 2464.6494261952 75570.241828882
8	54528 2389 169 1113 380.659473743649 2458.010288498061 93 1 5 168 430
9	56917 525 169 1003 380.659473743649 2264.84038493309 20 6 25 310 5470
10	57442 3011 169 1124 380.659473743649 2477.447201084217 93 0 53.155215680912 597.74491460136 16887.950746801
11	60453 20 1135 1135 2500 2500 1 0.1044 0.1044 0.1044 0.01089936
12	60473 20 1135 1135 2500 2500 1 0.0452 0.0452 0.0452 0.00204304

