version 2
run experiments_easy_game_mode1-566-20230308-12:03:52-21239
attr configname experiments_easy_game_mode1
attr datetime 20230308-12:03:52
attr experiment experiments_easy_game_mode1
attr inifile omnetpp.ini
attr iterationvars "$0=5.5, $1=2.5, $2=0"
attr iterationvarsf 5.5,2.5,0-
attr measurement "$0=5.5, $1=2.5, $2=0"
attr network Network
attr processid 21239
attr repetition 26
attr replication #26
attr resultdir results
attr runnumber 566
attr seedset 26
param *.boss.arrival_mean 20
param *.boss.service_mean 5.5
param *.minion.arrival_mean 10
param *.minion.service_mean 2.5
param *.player.recover_rate_x 0
param **.minion.arrival_distribution 0
param **.minion.service_distribution 0
param **.boss.arrival_distribution 0
param **.boss.service_distribution 0

vector 0 Network.player minion_jobs_number_stat:vector ETV
attr source signal_minion_jobs_number
vector 1 Network.player minion_jobs_queue_number_stat:vector ETV
attr source signal_minion_jobs_queue_number
vector 2 Network.player minion_waiting_time_stat:vector ETV
attr source signal_minion_waiting_time
vector 3 Network.player minion_defeated_stat:vector ETV
attr source signal_minion_defeated
vector 4 Network.player minion_response_time_stat:vector ETV
attr source signal_minion_response_time
vector 5 Network.player boss_jobs_number_stat:vector ETV
attr source signal_boss_jobs_number
vector 6 Network.player boss_jobs_queue_number_stat:vector ETV
attr source signal_boss_jobs_queue_number
vector 7 Network.player boss_waiting_time_stat:vector ETV
attr source signal_boss_waiting_time
vector 8 Network.player boss_defeated_stat:vector ETV
attr source signal_boss_defeated
vector 9 Network.player boss_response_time_stat:vector ETV
attr source signal_boss_response_time
vector 10 Network.player minion_recovered_stat:vector ETV
attr source signal_minion_recovered
vector 11 Network.player minion_throughput:vector ETV
attr source signal_minion_throughput
vector 12 Network.player boss_throughput:vector ETV
attr source signal_boss_throughput
0	131	353.474320604805	1
0	137	362.221650059944	1
0	140	388.918922681755	1
0	142	391.684997140054	2
0	145	393.513447054423	2
0	149	396.818932124983	1
0	152	411.073237962121	1
0	155	418.275100492741	1
0	157	419.589888907062	2
0	159	420.361511980791	3
0	164	431.413467444418	1
0	167	433.346302192891	1
0	176	445.432556060841	1
0	179	446.898056891252	1
0	182	457.624761079718	1
0	185	462.992411790454	1
0	191	477.732048514976	1
0	194	479.565660162456	1
0	200	506.907177080105	1
0	202	508.184710933496	2
0	205	513.794651262729	2
0	208	522.6230811356	2
0	211	525.703729907631	2
0	213	526.760700204932	3
0	217	529.153394214765	2
0	224	536.576731663828	1
0	229	538.986210414381	1
0	231	542.139596743865	2
0	236	549.542459884891	1
0	238	551.855074966976	2
0	240	552.96415021486	3
0	243	555.292798021475	3
0	245	555.530199892277	4
0	247	557.386578317167	5
0	249	558.581549090794	6
0	253	564.674090514164	5
0	256	566.996941240385	5
0	258	567.198732359307	6
0	260	567.806075160641	7
0	274	599.368227092208	1
0	280	609.617173713877	1
0	282	618.765200043476	2
0	285	628.111450699737	3
0	295	643.978860644792	1
0	302	670.76103880654	1
0	305	673.781192419499	1
0	307	677.024116712335	2
0	311	680.55874114572	3
0	316	690.106648260074	4
0	321	695.833009998525	3
0	326	706.460375203675	1
0	328	710.189187192976	2
0	332	714.031277994825	1
0	338	746.56073465194	1
0	340	747.335346081218	2
0	344	752.507465201618	1
0	347	764.711850508577	1
0	356	779.392366829766	1
0	367	798.727175529999	1
0	376	805.745986193468	2
0	378	809.376814129608	3
0	381	814.345620529679	4
0	383	816.943428381458	5
0	385	820.20186011876	6
0	388	823.652287563037	7
0	390	823.852341833642	8
0	396	838.965598310374	6
0	406	849.665848546355	1
0	408	855.20014544701	2
0	418	874.938272861615	1
0	420	875.642170742283	2
0	422	878.916392601563	3
0	425	880.194743129377	4
0	433	908.302664689417	1
0	435	912.880118731235	2
0	437	914.154013521909	3
0	441	918.221453502094	3
0	444	920.466740367527	3
0	446	921.269617257342	4
0	450	928.270388860147	3
0	455	940.769429665337	1
0	458	946.937388544451	1
0	460	948.378059082212	2
0	464	961.276425471982	1
0	467	968.857171976466	1
0	473	985.637922849169	1
0	479	990.293399767415	1
0	482	994.830844296818	1
0	487	1006.809630873742	1
0	489	1008.576925158246	2
0	497	1025.702611347249	1
0	499	1025.859092540039	2
0	503	1032.037129145877	3
0	509	1039.660424487586	4
0	513	1044.334527619919	3
0	523	1069.794077147459	1
0	527	1092.429440543177	1
0	529	1099.606014265835	2
0	531	1106.988560342246	3
0	533	1108.012979850404	4
0	547	1136.140998633732	2
0	556	1157.550368266195	1
0	559	1157.611214525958	2
0	563	1162.88480480778	1
0	566	1166.784023230992	1
0	572	1201.198363559256	1
0	575	1233.994475151404	1
0	577	1234.638255782988	2
0	581	1245.207501304281	1
0	584	1252.287471471351	1
0	586	1252.958309372731	2
0	590	1255.544300550687	1
0	592	1257.702205050436	2
0	596	1273.575107147716	1
0	599	1282.000157476293	1
0	605	1308.042757533478	1
0	608	1322.442427890273	1
0	611	1354.450041299215	1
0	614	1359.808667138904	1
0	617	1365.567060418044	1
0	620	1379.527834508314	1
0	623	1388.343387569061	1
0	625	1391.530722183322	2
0	628	1395.987648763864	2
0	637	1405.73259010185	2
0	639	1407.59546398581	3
0	644	1421.052419772988	1
0	658	1465.665298626496	1
0	666	1483.14063802135	2
0	670	1486.981162243963	3
0	672	1490.211591955959	4
0	674	1492.475700231023	5
0	676	1493.600893495466	6
0	679	1496.620248682547	7
0	681	1499.251009617682	8
0	683	1501.190745310615	9
0	687	1503.555027487292	10
0	689	1503.84271439289	11
0	691	1507.41017972299	12
0	701	1530.291608934717	10
0	704	1530.384925280363	10
0	709	1537.457528739665	10
0	718	1553.162040759077	9
0	723	1570.137080280809	10
0	726	1573.274776966163	11
0	731	1580.777479436213	10
0	750	1617.45004086707	8
0	753	1618.19945656825	9
0	762	1639.564752723533	3
0	770	1659.579680344184	1
0	772	1661.084268464403	2
0	774	1661.820909129658	3
0	777	1664.226597667918	3
0	780	1670.65600116995	3
0	788	1692.733021911401	1
0	790	1693.122160938568	2
0	792	1696.792034829513	3
0	795	1706.576033597084	3
0	806	1737.584751462818	1
0	817	1762.88645240741	1
0	819	1764.52628129551	2
0	822	1771.345773685681	3
0	827	1782.840199138905	4
0	830	1787.099373712175	5
0	832	1790.474069399335	6
0	837	1798.639424257225	6
0	844	1811.071683779677	5
0	848	1815.698051184562	4
0	852	1818.193629922128	3
0	854	1819.927956121786	4
0	862	1841.53335381805	1
0	864	1848.825722193123	2
0	866	1851.803641447519	3
0	872	1871.596090993364	1
0	874	1873.039811236144	2
0	878	1888.636690117927	1
0	880	1889.72021430197	2
0	892	1908.068432641432	1
0	896	1917.112298752113	1
0	906	1928.548868381647	1
0	909	1943.202172054068	2
0	911	1943.853450068646	3
0	915	1947.491857768771	3
0	918	1952.257540051665	3
0	920	1953.894543985779	4
0	927	1967.391884018465	2
0	929	1968.953078841886	3
0	933	1975.753052079742	4
0	937	1980.675212583733	5
0	939	1984.434920620764	6
0	941	1988.17588147654	7
0	949	1997.039189549181	8
0	952	2006.675050578551	9
0	957	2013.603734137001	9
0	959	2013.712213650688	10
0	964	2016.571851117598	11
0	967	2017.433573627472	11
0	973	2021.377678270243	8
0	977	2031.751956071526	9
0	989	2052.242150349561	1
0	994	2060.513224836688	1
0	996	2061.071047269637	2
0	1001	2085.179997703273	1
0	1004	2087.200259857916	1
0	1012	2124.846046838009	1
0	1019	2147.294971925394	1
0	1028	2181.080498134622	1
0	1031	2182.839138302258	1
0	1034	2191.644797750578	1
0	1040	2213.834378504324	1
0	1043	2216.879486632086	1
0	1048	2221.076484284912	1
0	1052	2225.648999783634	1
0	1055	2236.923596929798	1
0	1058	2243.644770406919	1
0	1061	2265.943846688117	1
0	1066	2278.84125004028	1
0	1079	2325.20156429716	1
0	1082	2335.233532933645	1
0	1085	2345.440787043552	1
0	1091	2357.58083537246	1
0	1094	2362.672863402485	1
0	1097	2380.495826501538	1
0	1100	2387.22080609807	1
0	1103	2408.542308582601	1
0	1106	2410.226325649505	1
0	1112	2413.640233561452	1
0	1115	2421.961824707125	1
0	1118	2439.826725366544	1
0	1121	2448.966925486014	1
0	1126	2457.299839417518	1
0	1129	2461.289238194113	2
0	1138	2473.170198392813	1
0	1141	2481.059061575314	2
1	131	353.474320604805	0
1	132	357.744658951818	0
1	137	362.221650059944	0
1	138	363.077162860758	0
1	140	388.918922681755	0
1	142	391.684997140054	1
1	143	391.817461804778	1
1	145	393.513447054423	1
1	146	394.002989183938	1
1	147	396.495163048138	0
1	149	396.818932124983	0
1	150	398.863596043997	0
1	152	411.073237962121	0
1	153	412.229871258431	0
1	155	418.275100492741	0
1	157	419.589888907062	1
1	159	420.361511980791	2
1	160	426.469204758898	2
1	161	428.38946638322	1
1	162	428.971369518149	0
1	164	431.413467444418	0
1	165	431.88883359539	0
1	167	433.346302192891	0
1	174	444.285280963375	0
1	176	445.432556060841	0
1	177	445.886173632845	0
1	179	446.898056891252	0
1	180	450.399498600175	0
1	182	457.624761079718	0
1	183	457.917414715466	0
1	185	462.992411790454	0
1	186	465.263936577349	0
1	191	477.732048514976	0
1	192	478.717815807811	0
1	194	479.565660162456	0
1	195	480.336211656053	0
1	200	506.907177080105	0
1	202	508.184710933496	1
1	203	512.59981233738	1
1	205	513.794651262729	1
1	206	522.345742210221	1
1	208	522.6230811356	1
1	209	524.333343393503	1
1	211	525.703729907631	1
1	213	526.760700204932	2
1	214	527.811500887967	2
1	215	528.50210470503	1
1	217	529.153394214765	1
1	218	529.262978995261	1
1	219	530.256734740391	0
1	224	536.576731663828	0
1	225	536.775057274269	0
1	229	538.986210414381	0
1	231	542.139596743865	1
1	233	546.337725499586	1
1	234	547.806917552481	0
1	236	549.542459884891	0
1	238	551.855074966976	1
1	240	552.96415021486	2
1	241	553.506404500576	2
1	243	555.292798021475	2
1	245	555.530199892277	3
1	247	557.386578317167	4
1	249	558.581549090794	5
1	250	559.68836429746	5
1	251	561.328820697152	4
1	253	564.674090514164	4
1	254	566.929992263834	4
1	256	566.996941240385	4
1	258	567.198732359307	5
1	260	567.806075160641	6
1	261	569.076143852021	6
1	262	569.796076562467	5
1	263	572.025766987104	4
1	264	574.564995280433	3
1	268	582.314363688421	2
1	269	586.078452145074	1
1	270	587.755381761606	0
1	274	599.368227092208	0
1	276	606.967474085445	0
1	280	609.617173713877	0
1	282	618.765200043476	1
1	285	628.111450699737	2
1	286	630.184269290495	2
1	287	630.286273762855	1
1	288	632.075908798365	0
1	295	643.978860644792	0
1	300	651.34311443043	0
1	302	670.76103880654	0
1	303	672.682627915958	0
1	305	673.781192419499	0
1	307	677.024116712335	1
1	311	680.55874114572	2
1	316	690.106648260074	3
1	318	694.117055492229	3
1	319	695.416381437812	2
1	321	695.833009998525	2
1	322	697.041672891508	2
1	323	699.857235560767	1
1	324	703.291133045789	0
1	326	706.460375203675	0
1	328	710.189187192976	1
1	329	712.429589200032	1
1	330	712.876994072846	0
1	332	714.031277994825	0
1	333	715.948192360702	0
1	338	746.56073465194	0
1	340	747.335346081218	1
1	341	748.058650813879	1
1	342	748.56767994346	0
1	344	752.507465201618	0
1	345	759.451480611459	0
1	347	764.711850508577	0
1	348	764.951365108678	0
1	356	779.392366829766	0
1	357	779.709113809851	0
1	367	798.727175529999	0
1	376	805.745986193468	1
1	378	809.376814129608	2
1	381	814.345620529679	3
1	383	816.943428381458	4
1	385	820.20186011876	5
1	388	823.652287563037	6
1	390	823.852341833642	7
1	392	832.60270092612	7
1	393	833.086109043843	6
1	394	837.43854187198	5
1	396	838.965598310374	5
1	397	839.054189489396	5
1	398	839.48181457462	4
1	399	842.381434602381	3
1	400	845.068765523736	2
1	401	846.958235560431	1
1	402	847.199336953357	0
1	406	849.665848546355	0
1	408	855.20014544701	1
1	410	857.157254333971	1
1	414	865.354168379974	0
1	418	874.938272861615	0
1	420	875.642170742283	1
1	422	878.916392601563	2
1	425	880.194743129377	3
1	426	880.545023310205	3
1	427	880.796716946228	2
1	428	883.031319193716	1
1	429	884.434026859454	0
1	433	908.302664689417	0
1	435	912.880118731235	1
1	437	914.154013521909	2
1	439	917.763435890174	2
1	441	918.221453502094	2
1	442	920.228876458343	2
1	444	920.466740367527	2
1	446	921.269617257342	3
1	447	921.998577031201	3
1	448	925.67723959262	2
1	450	928.270388860147	2
1	451	928.297122043023	2
1	452	929.899683266333	1
1	453	931.53399564337	0
1	455	940.769429665337	0
1	456	941.58956642199	0
1	458	946.937388544451	0
1	460	948.378059082212	1
1	461	950.935364524031	1
1	462	951.649235451757	0
1	464	961.276425471982	0
1	465	963.260748575863	0
1	467	968.857171976466	0
1	468	969.114348434131	0
1	473	985.637922849169	0
1	477	988.577632107208	0
1	479	990.293399767415	0
1	480	993.80511812026	0
1	482	994.830844296818	0
1	483	995.078644901833	0
1	487	1006.809630873742	0
1	489	1008.576925158246	1
1	494	1018.094482253135	1
1	495	1018.282691991557	0
1	497	1025.702611347249	0
1	499	1025.859092540039	1
1	503	1032.037129145877	2
1	509	1039.660424487586	3
1	510	1041.062201931313	3
1	511	1041.979318263363	2
1	513	1044.334527619919	2
1	514	1045.556845209797	2
1	515	1047.703543897035	1
1	516	1050.116888164584	0
1	523	1069.794077147459	0
1	525	1072.528593035175	0
1	527	1092.429440543177	0
1	529	1099.606014265835	1
1	531	1106.988560342246	2
1	533	1108.012979850404	3
1	534	1110.354305091634	3
1	538	1120.72967111495	2
1	542	1130.334980158164	1
1	547	1136.140998633732	1
1	548	1137.554497799363	1
1	549	1139.488057186862	0
1	556	1157.550368266195	0
1	559	1157.611214525958	1
1	560	1161.438061738074	1
1	561	1162.814138683469	0
1	563	1162.88480480778	0
1	564	1163.917467776335	0
1	566	1166.784023230992	0
1	567	1166.833508648101	0
1	572	1201.198363559256	0
1	573	1201.632269769226	0
1	575	1233.994475151404	0
1	577	1234.638255782988	1
1	578	1238.21600174027	1
1	579	1238.227817895492	0
1	581	1245.207501304281	0
1	582	1245.459808265002	0
1	584	1252.287471471351	0
1	586	1252.958309372731	1
1	587	1253.886487708071	1
1	588	1254.147592770575	0
1	590	1255.544300550687	0
1	592	1257.702205050436	1
1	593	1258.44903116417	1
1	594	1259.111256200637	0
1	596	1273.575107147716	0
1	597	1274.632206286971	0
1	599	1282.000157476293	0
1	600	1283.166494210312	0
1	605	1308.042757533478	0
1	606	1312.21659935848	0
1	608	1322.442427890273	0
1	609	1322.719353885014	0
1	611	1354.450041299215	0
1	612	1356.275262346717	0
1	614	1359.808667138904	0
1	615	1362.245564834612	0
1	617	1365.567060418044	0
1	618	1366.501810179744	0
1	620	1379.527834508314	0
1	621	1380.572914693844	0
1	623	1388.343387569061	0
1	625	1391.530722183322	1
1	626	1393.601460763759	1
1	628	1395.987648763864	1
1	632	1402.530529807698	1
1	637	1405.73259010185	1
1	639	1407.59546398581	2
1	640	1411.12645899532	2
1	641	1412.617607178196	1
1	642	1420.791246903658	0
1	644	1421.052419772988	0
1	651	1454.471207875099	0
1	658	1465.665298626496	0
1	666	1483.14063802135	1
1	670	1486.981162243963	2
1	672	1490.211591955959	3
1	674	1492.475700231023	4
1	676	1493.600893495466	5
1	679	1496.620248682547	6
1	681	1499.251009617682	7
1	683	1501.190745310615	8
1	687	1503.555027487292	9
1	689	1503.84271439289	10
1	691	1507.41017972299	11
1	694	1512.811219638426	11
1	695	1513.759473670119	10
1	699	1530.269382141443	9
1	701	1530.291608934717	9
1	702	1530.34770377903	9
1	704	1530.384925280363	9
1	705	1532.337069677038	9
1	709	1537.457528739665	9
1	711	1540.939521823149	9
1	712	1544.129635162649	8
1	718	1553.162040759077	8
1	723	1570.137080280809	9
1	726	1573.274776966163	10
1	728	1577.583822836859	10
1	729	1579.209790151112	9
1	731	1580.777479436213	9
1	735	1584.645727100548	9
1	736	1585.519362576696	8
1	737	1587.6217277198	7
1	750	1617.45004086707	7
1	753	1618.19945656825	8
1	754	1620.399773240057	8
1	755	1620.420382980618	7
1	756	1622.233365207175	6
1	757	1626.149985653971	5
1	758	1632.658812325411	4
1	759	1633.893035308358	3
1	760	1638.92859681347	2
1	762	1639.564752723533	2
1	763	1639.871551904559	2
1	764	1641.900766964249	1
1	765	1643.883598624256	0
1	770	1659.579680344184	0
1	772	1661.084268464403	1
1	774	1661.820909129658	2
1	775	1663.924757165674	2
1	777	1664.226597667918	2
1	778	1665.485308549449	2
1	780	1670.65600116995	2
1	781	1670.923376136648	2
1	782	1671.595003171386	1
1	783	1671.708369437003	0
1	788	1692.733021911401	0
1	790	1693.122160938568	1
1	792	1696.792034829513	2
1	793	1699.57769643809	2
1	795	1706.576033597084	2
1	796	1711.990873212178	2
1	797	1713.609722795296	1
1	798	1715.226909740114	0
1	806	1737.584751462818	0
1	807	1740.289795429027	0
1	817	1762.88645240741	0
1	819	1764.52628129551	1
1	822	1771.345773685681	2
1	827	1782.840199138905	3
1	830	1787.099373712175	4
1	832	1790.474069399335	5
1	835	1798.633852016423	5
1	837	1798.639424257225	5
1	838	1800.243344056997	5
1	839	1805.322755606519	4
1	844	1811.071683779677	4
1	845	1812.332876942232	4
1	846	1812.48896080246	3
1	848	1815.698051184562	3
1	849	1817.028822124851	3
1	850	1817.128798948035	2
1	852	1818.193629922128	2
1	854	1819.927956121786	3
1	855	1820.572461637145	3
1	856	1827.117932917378	2
1	857	1829.383957956209	1
1	858	1829.501064061907	0
1	862	1841.53335381805	0
1	864	1848.825722193123	1
1	866	1851.803641447519	2
1	868	1857.644834098409	2
1	869	1859.054998953294	1
1	870	1861.349710295666	0
1	872	1871.596090993364	0
1	874	1873.039811236144	1
1	875	1877.915615432187	1
1	876	1881.462796364895	0
1	878	1888.636690117927	0
1	880	1889.72021430197	1
1	881	1895.638216436943	1
1	882	1896.219617314286	0
1	892	1908.068432641432	0
1	894	1916.535302647228	0
1	896	1917.112298752113	0
1	897	1917.419799676799	0
1	906	1928.548868381647	0
1	909	1943.202172054068	1
1	911	1943.853450068646	2
1	913	1946.48694395531	2
1	915	1947.491857768771	2
1	916	1951.999489590049	2
1	918	1952.257540051665	2
1	920	1953.894543985779	3
1	921	1958.066930190552	3
1	922	1965.078798103775	2
1	923	1965.286817625549	1
1	927	1967.391884018465	1
1	929	1968.953078841886	2
1	933	1975.753052079742	3
1	937	1980.675212583733	4
1	939	1984.434920620764	5
1	941	1988.17588147654	6
1	949	1997.039189549181	7
1	952	2006.675050578551	8
1	955	2011.648186757618	8
1	957	2013.603734137001	8
1	959	2013.712213650688	9
1	964	2016.571851117598	10
1	965	2016.71083962747	10
1	967	2017.433573627472	10
1	968	2017.809249655395	10
1	969	2019.04351216921	9
1	970	2019.239516955011	8
1	971	2020.311113209428	7
1	973	2021.377678270243	7
1	977	2031.751956071526	8
1	979	2035.920986248291	8
1	980	2037.825457210835	7
1	981	2038.570821346272	6
1	982	2039.844141582093	5
1	983	2040.673878977713	4
1	984	2041.399292971252	3
1	985	2042.540424234899	2
1	986	2045.329370824117	1
1	987	2051.993304856901	0
1	989	2052.242150349561	0
1	990	2055.838529855948	0
1	994	2060.513224836688	0
1	996	2061.071047269637	1
1	998	2073.551089356927	1
1	999	2073.890897375156	0
1	1001	2085.179997703273	0
1	1002	2085.666631443484	0
1	1004	2087.200259857916	0
1	1005	2095.616103818322	0
1	1012	2124.846046838009	0
1	1014	2127.304940151922	0
1	1019	2147.294971925394	0
1	1026	2166.504037433909	0
1	1028	2181.080498134622	0
1	1029	2181.905799391486	0
1	1031	2182.839138302258	0
1	1032	2185.021145247203	0
1	1034	2191.644797750578	0
1	1038	2195.326823217822	0
1	1040	2213.834378504324	0
1	1041	2216.117880888158	0
1	1043	2216.879486632086	0
1	1044	2218.179289807158	0
1	1048	2221.076484284912	0
1	1050	2223.997827745208	0
1	1052	2225.648999783634	0
1	1053	2230.705976872057	0
1	1055	2236.923596929798	0
1	1056	2241.737033889608	0
1	1058	2243.644770406919	0
1	1059	2246.05433186756	0
1	1061	2265.943846688117	0
1	1062	2266.854724406617	0
1	1066	2278.84125004028	0
1	1068	2281.310029057644	0
1	1079	2325.20156429716	0
1	1080	2326.992661824175	0
1	1082	2335.233532933645	0
1	1083	2336.048014605922	0
1	1085	2345.440787043552	0
1	1086	2348.276737358783	0
1	1091	2357.58083537246	0
1	1092	2358.138804328803	0
1	1094	2362.672863402485	0
1	1095	2363.294697708819	0
1	1097	2380.495826501538	0
1	1098	2381.465100806004	0
1	1100	2387.22080609807	0
1	1101	2390.888396335415	0
1	1103	2408.542308582601	0
1	1104	2409.053330212927	0
1	1106	2410.226325649505	0
1	1107	2410.239204565117	0
1	1112	2413.640233561452	0
1	1113	2414.160071535708	0
1	1115	2421.961824707125	0
1	1116	2423.971206101813	0
1	1118	2439.826725366544	0
1	1119	2445.483130807834	0
1	1121	2448.966925486014	0
1	1122	2449.883771838991	0
1	1126	2457.299839417518	0
1	1129	2461.289238194113	1
1	1130	2462.531393714089	1
1	1131	2462.794176489089	0
1	1138	2473.170198392813	0
1	1141	2481.059061575314	1
1	1142	2483.828959920136	1
1	1143	2484.749431415897	0
2	131	353.474320604805	0
2	137	362.221650059944	0
2	140	388.918922681755	0
2	143	391.817461804778	0.132464664724
2	146	394.002989183938	0.489542129515
2	149	396.818932124983	0
2	152	411.073237962121	0
2	155	418.275100492741	0
2	160	426.469204758898	6.879315851836
2	161	428.38946638322	8.027954402429
2	164	431.413467444418	0
2	167	433.346302192891	0
2	173	443.033807034377	8.841315040744
2	176	445.432556060841	0
2	179	446.898056891252	0
2	182	457.624761079718	0
2	185	462.992411790454	0
2	191	477.732048514976	0
2	194	479.565660162456	0
2	200	506.907177080105	0
2	203	512.59981233738	4.415101403884
2	206	522.345742210221	8.551090947492
2	209	524.333343393503	1.710262257903
2	214	527.811500887967	2.107770980336
2	215	528.50210470503	1.741404500098
2	218	529.262978995261	0.109584780496
2	224	536.576731663828	0
2	232	544.115255814613	5.129045400232
2	233	546.337725499586	4.198128755721
2	236	549.542459884891	0
2	241	553.506404500576	1.6513295336
2	250	559.68836429746	6.7242140826
2	251	561.328820697152	6.036022675677
2	254	566.929992263834	11.399792371557
2	261	569.076143852021	11.689565534854
2	262	569.796076562467	11.214527471673
2	263	572.025766987104	7.35167647294
2	264	574.564995280433	7.568054040048
2	267	581.921996189365	14.723263830058
2	268	582.314363688421	14.50828852778
2	269	586.078452145074	9.192931979786
2	275	603.633821649329	4.265594557121
2	283	627.437882834096	17.820709120219
2	286	630.184269290495	11.419069247019
2	287	630.286273762855	2.174823063118
2	296	646.313700962368	2.334840317576
2	299	649.728509607805	0.311349375777
2	302	670.76103880654	0
2	305	673.781192419499	0
2	317	693.641507836914	16.617391124579
2	318	694.117055492229	14.376901834426
2	319	695.416381437812	14.857640292092
2	322	697.041672891508	6.935024631434
2	323	699.857235560767	4.024225562242
2	326	706.460375203675	0
2	329	712.429589200032	2.240402007056
2	332	714.031277994825	0
2	338	746.56073465194	0
2	341	748.058650813879	0.723304732661
2	344	752.507465201618	0
2	347	764.711850508577	0
2	356	779.392366829766	0
2	391	830.486614478499	31.7594389485
2	392	832.60270092612	26.856714732652
2	393	833.086109043843	23.709294914235
2	394	837.43854187198	23.092921342301
2	397	839.054189489396	22.110761107938
2	398	839.48181457462	19.27995445586
2	399	842.381434602381	18.729147039344
2	400	845.068765523736	21.216423690094
2	401	846.958235560431	7.992637250057
2	409	856.710575372553	7.044726826198
2	410	857.157254333971	1.957108886961
2	413	864.533908911123	0.781804583216
2	423	879.578439368565	4.64016650695
2	426	880.545023310205	4.902852567922
2	427	880.796716946228	1.880324344665
2	428	883.031319193716	2.836576064339
2	438	915.728459139578	7.425794450161
2	439	917.763435890174	4.883317158939
2	442	920.228876458343	6.074862936434
2	447	921.998577031201	3.777123529107
2	448	925.67723959262	5.210499225093
2	451	928.297122043023	7.027504785681
2	452	929.899683266333	1.629294406186
2	455	940.769429665337	0
2	458	946.937388544451	0
2	461	950.935364524031	2.557305441819
2	464	961.276425471982	0
2	467	968.857171976466	0
2	473	985.637922849169	0
2	476	988.552803205039	0.51551783365
2	479	990.293399767415	0
2	482	994.830844296818	0
2	493	1016.232315203856	9.422684330114
2	494	1018.094482253135	9.517557094889
2	497	1025.702611347249	0
2	504	1033.051672327952	7.192579787913
2	507	1038.704512800207	11.32357210423
2	510	1041.062201931313	9.025072785436
2	511	1041.979318263363	3.74348079402
2	514	1045.556845209797	5.896420722211
2	515	1047.703543897035	3.369016277116
2	524	1071.851374922328	2.057297774869
2	527	1092.429440543177	0
2	534	1110.354305091634	10.748290825799
2	537	1117.283633227862	10.295072885616
2	538	1120.72967111495	12.716691264546
2	541	1127.724082527064	12.609501504661
2	542	1130.334980158164	5.284755993301
2	545	1134.727211096884	3.138754340367
2	548	1137.554497799363	1.413499165631
2	557	1157.60173230721	0.051364041015
2	560	1161.438061738074	3.826847212116
2	563	1162.88480480778	0
2	566	1166.784023230992	0
2	572	1201.198363559256	0
2	575	1233.994475151404	0
2	578	1238.21600174027	3.577745957282
2	581	1245.207501304281	0
2	584	1252.287471471351	0
2	587	1253.886487708071	0.92817833534
2	590	1255.544300550687	0
2	593	1258.44903116417	0.746826113734
2	596	1273.575107147716	0
2	599	1282.000157476293	0
2	605	1308.042757533478	0
2	608	1322.442427890273	0
2	611	1354.450041299215	0
2	614	1359.808667138904	0
2	617	1365.567060418044	0
2	620	1379.527834508314	0
2	623	1388.343387569061	0
2	626	1393.601460763759	2.070738580437
2	631	1398.844838926474	2.85719016261
2	632	1402.530529807698	5.326715045124
2	635	1405.620668199678	2.148880778762
2	640	1411.12645899532	5.39386889347
2	641	1412.617607178196	5.022143192386
2	644	1421.052419772988	0
2	650	1454.147378982897	31.972711251719
2	693	1510.737292290228	45.071993663732
2	694	1512.811219638426	29.670581617076
2	695	1513.759473670119	26.778311426156
2	698	1528.706469024655	38.494877068696
2	699	1530.269382141443	37.79368191042
2	702	1530.34770377903	36.746810283564
2	705	1532.337069677038	35.716820994491
2	710	1539.338080846777	40.087071229095
2	711	1540.939521823149	39.748776512534
2	712	1544.129635162649	40.574607675357
2	727	1576.116069842217	72.273355449327
2	728	1577.583822836859	70.173643113869
2	729	1579.209790151112	65.384890077785
2	734	1584.598384758873	54.306775824156
2	735	1584.645727100548	54.260801820185
2	736	1585.519362576696	49.903839417567
2	737	1587.6217277198	50.164198980135
2	746	1610.470573299951	65.635139731512
2	751	1618.008091846784	64.846051087707
2	754	1620.399773240057	50.262692959248
2	755	1620.420382980618	47.145606014455
2	756	1622.233365207175	41.455885770962
2	757	1626.149985653971	41.981039505445
2	758	1632.658812325411	42.278376551665
2	759	1633.893035308358	21.473849853595
2	760	1638.92859681347	21.4785559464
2	763	1639.871551904559	21.672095336309
2	764	1641.900766964249	2.336014240716
2	770	1659.579680344184	0
2	775	1663.924757165674	2.840488701271
2	778	1665.485308549449	3.664399419791
2	781	1670.923376136648	6.69677846873
2	782	1671.595003171386	0.939002001436
2	788	1692.733021911401	0
2	793	1699.57769643809	6.455535499522
2	796	1711.990873212178	15.198838382665
2	797	1713.609722795296	7.033689198212
2	806	1737.584751462818	0
2	834	1797.484497544998	34.598045137588
2	835	1798.633852016423	34.107570720913
2	838	1800.243344056997	28.897570371316
2	839	1805.322755606519	22.482556467614
2	842	1808.300204492734	21.200830780559
2	845	1812.332876942232	21.858807542897
2	846	1812.48896080246	13.849536545235
2	849	1817.028822124851	11.315565838147
2	850	1817.128798948035	6.057115168358
2	855	1820.572461637145	4.874410452583
2	856	1827.117932917378	8.92430299525
2	857	1829.383957956209	9.456001834423
2	867	1855.327635715628	13.794281897578
2	868	1857.644834098409	8.819111905286
2	869	1859.054998953294	7.251357505775
2	872	1871.596090993364	0
2	875	1877.915615432187	4.875804196043
2	878	1888.636690117927	0
2	881	1895.638216436943	5.918002134973
2	893	1912.749243039775	4.680810398343
2	896	1917.112298752113	0
2	912	1945.956120707628	17.407252325981
2	913	1946.48694395531	3.284771901242
2	916	1951.999489590049	8.146039521403
2	921	1958.066930190552	10.575072421781
2	922	1965.078798103775	12.82125805211
2	923	1965.286817625549	11.39227363977
2	954	2010.020502010069	44.547477594277
2	955	2011.648186757618	44.256302739153
2	962	2016.420490219931	47.467411378045
2	965	2016.71083962747	40.957787547728
2	968	2017.809249655395	37.134037071662
2	969	2019.04351216921	34.608591548446
2	970	2019.239516955011	31.063635478471
2	971	2020.311113209428	23.271923660247
2	978	2032.238776455032	25.563725876481
2	979	2035.920986248291	22.31725211129
2	980	2037.825457210835	24.113243560147
2	981	2038.570821346272	24.608101860176
2	982	2039.844141582093	23.272290464495
2	983	2040.673878977713	23.240305350241
2	984	2041.399292971252	20.021614701009
2	985	2042.540424234899	20.638127433123
2	986	2045.329370824117	13.577414752591
2	989	2052.242150349561	0
2	997	2072.360468238404	11.847243401716
2	998	2073.551089356927	12.48004208729
2	1001	2085.179997703273	0
2	1004	2087.200259857916	0
2	1013	2126.65268920429	1.806642366281
2	1019	2147.294971925394	0
2	1025	2164.171248786657	16.090793089754
2	1028	2181.080498134622	0
2	1031	2182.839138302258	0
2	1034	2191.644797750578	0
2	1037	2194.200911225524	0.511746550597
2	1040	2213.834378504324	0
2	1043	2216.879486632086	0
2	1049	2223.367398553434	2.290914268522
2	1052	2225.648999783634	0
2	1055	2236.923596929798	0
2	1058	2243.644770406919	0
2	1061	2265.943846688117	0
2	1067	2279.340606701754	0.499356661474
2	1079	2325.20156429716	0
2	1082	2335.233532933645	0
2	1085	2345.440787043552	0
2	1091	2357.58083537246	0
2	1094	2362.672863402485	0
2	1097	2380.495826501538	0
2	1100	2387.22080609807	0
2	1103	2408.542308582601	0
2	1106	2410.226325649505	0
2	1112	2413.640233561452	0
2	1115	2421.961824707125	0
2	1118	2439.826725366544	0
2	1121	2448.966925486014	0
2	1127	2460.250422800391	2.950583382873
2	1130	2462.531393714089	1.242155519976
2	1139	2480.052809718359	6.882611325546
2	1142	2483.828959920136	2.769898344822
3	132	357.744658951818	33
3	138	363.077162860758	34
3	143	391.817461804778	35
3	146	394.002989183938	36
3	147	396.495163048138	37
3	150	398.863596043997	38
3	153	412.229871258431	39
3	160	426.469204758898	40
3	161	428.38946638322	41
3	162	428.971369518149	42
3	165	431.88883359539	43
3	174	444.285280963375	44
3	177	445.886173632845	45
3	180	450.399498600175	46
3	183	457.917414715466	47
3	186	465.263936577349	48
3	192	478.717815807811	49
3	195	480.336211656053	50
3	203	512.59981233738	51
3	206	522.345742210221	52
3	209	524.333343393503	53
3	214	527.811500887967	54
3	215	528.50210470503	55
3	218	529.262978995261	56
3	219	530.256734740391	57
3	225	536.775057274269	58
3	233	546.337725499586	59
3	234	547.806917552481	60
3	241	553.506404500576	61
3	250	559.68836429746	62
3	251	561.328820697152	63
3	254	566.929992263834	64
3	261	569.076143852021	65
3	262	569.796076562467	66
3	263	572.025766987104	67
3	264	574.564995280433	68
3	268	582.314363688421	69
3	269	586.078452145074	70
3	270	587.755381761606	71
3	276	606.967474085445	72
3	286	630.184269290495	73
3	287	630.286273762855	74
3	288	632.075908798365	75
3	300	651.34311443043	76
3	303	672.682627915958	77
3	318	694.117055492229	78
3	319	695.416381437812	79
3	322	697.041672891508	80
3	323	699.857235560767	81
3	324	703.291133045789	82
3	329	712.429589200032	83
3	330	712.876994072846	84
3	333	715.948192360702	85
3	341	748.058650813879	86
3	342	748.56767994346	87
3	345	759.451480611459	88
3	348	764.951365108678	89
3	357	779.709113809851	90
3	392	832.60270092612	91
3	393	833.086109043843	92
3	394	837.43854187198	93
3	397	839.054189489396	94
3	398	839.48181457462	95
3	399	842.381434602381	96
3	400	845.068765523736	97
3	401	846.958235560431	98
3	402	847.199336953357	99
3	410	857.157254333971	100
3	414	865.354168379974	101
3	426	880.545023310205	102
3	427	880.796716946228	103
3	428	883.031319193716	104
3	429	884.434026859454	105
3	439	917.763435890174	106
3	442	920.228876458343	107
3	447	921.998577031201	108
3	448	925.67723959262	109
3	451	928.297122043023	110
3	452	929.899683266333	111
3	453	931.53399564337	112
3	456	941.58956642199	113
3	461	950.935364524031	114
3	462	951.649235451757	115
3	465	963.260748575863	116
3	468	969.114348434131	117
3	477	988.577632107208	118
3	480	993.80511812026	119
3	483	995.078644901833	120
3	494	1018.094482253135	121
3	495	1018.282691991557	122
3	510	1041.062201931313	123
3	511	1041.979318263363	124
3	514	1045.556845209797	125
3	515	1047.703543897035	126
3	516	1050.116888164584	127
3	525	1072.528593035175	128
3	534	1110.354305091634	129
3	538	1120.72967111495	130
3	542	1130.334980158164	131
3	548	1137.554497799363	132
3	549	1139.488057186862	133
3	560	1161.438061738074	134
3	561	1162.814138683469	135
3	564	1163.917467776335	136
3	567	1166.833508648101	137
3	573	1201.632269769226	138
3	578	1238.21600174027	139
3	579	1238.227817895492	140
3	582	1245.459808265002	141
3	587	1253.886487708071	142
3	588	1254.147592770575	143
3	593	1258.44903116417	144
3	594	1259.111256200637	145
3	597	1274.632206286971	146
3	600	1283.166494210312	147
3	606	1312.21659935848	148
3	609	1322.719353885014	149
3	612	1356.275262346717	150
3	615	1362.245564834612	151
3	618	1366.501810179744	152
3	621	1380.572914693844	153
3	626	1393.601460763759	154
3	632	1402.530529807698	155
3	640	1411.12645899532	156
3	641	1412.617607178196	157
3	642	1420.791246903658	158
3	651	1454.471207875099	159
3	694	1512.811219638426	160
3	695	1513.759473670119	161
3	699	1530.269382141443	162
3	702	1530.34770377903	163
3	705	1532.337069677038	164
3	711	1540.939521823149	165
3	712	1544.129635162649	166
3	728	1577.583822836859	167
3	729	1579.209790151112	168
3	735	1584.645727100548	169
3	736	1585.519362576696	170
3	737	1587.6217277198	171
3	754	1620.399773240057	172
3	755	1620.420382980618	173
3	756	1622.233365207175	174
3	757	1626.149985653971	175
3	758	1632.658812325411	176
3	759	1633.893035308358	177
3	760	1638.92859681347	178
3	763	1639.871551904559	179
3	764	1641.900766964249	180
3	765	1643.883598624256	181
3	775	1663.924757165674	182
3	778	1665.485308549449	183
3	781	1670.923376136648	184
3	782	1671.595003171386	185
3	783	1671.708369437003	186
3	793	1699.57769643809	187
3	796	1711.990873212178	188
3	797	1713.609722795296	189
3	798	1715.226909740114	190
3	807	1740.289795429027	191
3	835	1798.633852016423	192
3	838	1800.243344056997	193
3	839	1805.322755606519	194
3	845	1812.332876942232	195
3	846	1812.48896080246	196
3	849	1817.028822124851	197
3	850	1817.128798948035	198
3	855	1820.572461637145	199
3	856	1827.117932917378	200
3	857	1829.383957956209	201
3	858	1829.501064061907	202
3	868	1857.644834098409	203
3	869	1859.054998953294	204
3	870	1861.349710295666	205
3	875	1877.915615432187	206
3	876	1881.462796364895	207
3	881	1895.638216436943	208
3	882	1896.219617314286	209
3	894	1916.535302647228	210
3	897	1917.419799676799	211
3	913	1946.48694395531	212
3	916	1951.999489590049	213
3	921	1958.066930190552	214
3	922	1965.078798103775	215
3	923	1965.286817625549	216
3	955	2011.648186757618	217
3	965	2016.71083962747	218
3	968	2017.809249655395	219
3	969	2019.04351216921	220
3	970	2019.239516955011	221
3	971	2020.311113209428	222
3	979	2035.920986248291	223
3	980	2037.825457210835	224
3	981	2038.570821346272	225
3	982	2039.844141582093	226
3	983	2040.673878977713	227
3	984	2041.399292971252	228
3	985	2042.540424234899	229
3	986	2045.329370824117	230
3	987	2051.993304856901	231
3	990	2055.838529855948	232
3	998	2073.551089356927	233
3	999	2073.890897375156	234
3	1002	2085.666631443484	235
3	1005	2095.616103818322	236
3	1014	2127.304940151922	237
3	1026	2166.504037433909	238
3	1029	2181.905799391486	239
3	1032	2185.021145247203	240
3	1038	2195.326823217822	241
3	1041	2216.117880888158	242
3	1044	2218.179289807158	243
3	1050	2223.997827745208	244
3	1053	2230.705976872057	245
3	1056	2241.737033889608	246
3	1059	2246.05433186756	247
3	1062	2266.854724406617	248
3	1068	2281.310029057644	249
3	1080	2326.992661824175	250
3	1083	2336.048014605922	251
3	1086	2348.276737358783	252
3	1092	2358.138804328803	253
3	1095	2363.294697708819	254
3	1098	2381.465100806004	255
3	1101	2390.888396335415	256
3	1104	2409.053330212927	257
3	1107	2410.239204565117	258
3	1113	2414.160071535708	259
3	1116	2423.971206101813	260
3	1119	2445.483130807834	261
3	1122	2449.883771838991	262
3	1130	2462.531393714089	263
3	1131	2462.794176489089	264
3	1142	2483.828959920136	265
3	1143	2484.749431415897	266
4	132	357.744658951818	4.270338347013
4	138	363.077162860758	0.855512800814
4	143	391.817461804778	2.898539123023
4	146	394.002989183938	2.317992043884
4	147	396.495163048138	2.981715993715
4	150	398.863596043997	2.044663919014
4	153	412.229871258431	1.15663329631
4	160	426.469204758898	8.194104266157
4	161	428.38946638322	8.799577476158
4	162	428.971369518149	8.609857537358
4	165	431.88883359539	0.475366150972
4	174	444.285280963375	10.092788969742
4	177	445.886173632845	0.453617572004
4	180	450.399498600175	3.501441708923
4	183	457.917414715466	0.292653635748
4	186	465.263936577349	2.271524786895
4	192	478.717815807811	0.985767292835
4	195	480.336211656053	0.770551493597
4	203	512.59981233738	5.692635257275
4	206	522.345742210221	14.161031276725
4	209	524.333343393503	10.538692130774
4	214	527.811500887967	5.188419752367
4	215	528.50210470503	2.798374797399
4	218	529.262978995261	2.502278790329
4	219	530.256734740391	1.103340525626
4	225	536.775057274269	0.198325610441
4	233	546.337725499586	7.351515085205
4	234	547.806917552481	5.667320808616
4	241	553.506404500576	3.963944615685
4	250	559.68836429746	7.833289330484
4	251	561.328820697152	8.364670482292
4	254	566.929992263834	11.637194242359
4	261	569.076143852021	13.545943959744
4	262	569.796076562467	12.4094982453
4	263	572.025766987104	13.44421789631
4	264	574.564995280433	9.890904766269
4	268	582.314363688421	15.115631329114
4	269	586.078452145074	18.272376984433
4	270	587.755381761606	10.869861596318
4	276	606.967474085445	7.599246993237
4	286	630.184269290495	20.567095576618
4	287	630.286273762855	11.521073719379
4	288	632.075908798365	3.964458098628
4	300	651.34311443043	1.925954198402
4	303	672.682627915958	1.921589109418
4	318	694.117055492229	17.092938779894
4	319	695.416381437812	15.676227780009
4	322	697.041672891508	16.482931745788
4	323	699.857235560767	9.750587300693
4	324	703.291133045789	7.458123047264
4	329	712.429589200032	5.969213996357
4	330	712.876994072846	2.68780687987
4	333	715.948192360702	1.916914365877
4	341	748.058650813879	1.497916161939
4	342	748.56767994346	1.232333862242
4	345	759.451480611459	6.944015409841
4	348	764.951365108678	0.239514600101
4	357	779.709113809851	0.316746980085
4	392	832.60270092612	33.875525396121
4	393	833.086109043843	27.340122850375
4	394	837.43854187198	28.061727742372
4	397	839.054189489396	24.708568959717
4	398	839.48181457462	22.538386193162
4	399	842.381434602381	22.179574483621
4	400	845.068765523736	21.416477960699
4	401	846.958235560431	23.105893726789
4	402	847.199336953357	8.233738642983
4	410	857.157254333971	7.491405787616
4	414	865.354168379974	1.602064052067
4	426	880.545023310205	5.60675044859
4	427	880.796716946228	5.154546203945
4	428	883.031319193716	4.114926592153
4	429	884.434026859454	4.239283730077
4	439	917.763435890174	9.460771200757
4	442	920.228876458343	7.348757727108
4	447	921.998577031201	7.844563509292
4	448	925.67723959262	7.455786090526
4	451	928.297122043023	7.830381675496
4	452	929.899683266333	8.630066008991
4	453	931.53399564337	3.263606783223
4	456	941.58956642199	0.820136756653
4	461	950.935364524031	3.99797597958
4	462	951.649235451757	3.271176369545
4	465	963.260748575863	1.984323103881
4	468	969.114348434131	0.257176457665
4	477	988.577632107208	0.540346735819
4	480	993.80511812026	3.511718352845
4	483	995.078644901833	0.247800605015
4	494	1018.094482253135	11.284851379393
4	495	1018.282691991557	9.705766833311
4	510	1041.062201931313	13.681261235336
4	511	1041.979318263363	9.942189117486
4	514	1045.556845209797	7.321007740454
4	515	1047.703543897035	8.043119409449
4	516	1050.116888164584	5.782360544665
4	525	1072.528593035175	2.734515887716
4	534	1110.354305091634	17.924864548457
4	538	1120.72967111495	13.741110772704
4	542	1130.334980158164	15.220399135761
4	548	1137.554497799363	5.966041042846
4	549	1139.488057186862	3.34705855313
4	560	1161.438061738074	3.887693471879
4	561	1162.814138683469	5.202924157511
4	564	1163.917467776335	1.032662968555
4	567	1166.833508648101	0.049485417109
4	573	1201.632269769226	0.43390620997
4	578	1238.21600174027	4.221526588866
4	579	1238.227817895492	3.589562112504
4	582	1245.459808265002	0.252306960721
4	587	1253.886487708071	1.59901623672
4	588	1254.147592770575	1.189283397844
4	593	1258.44903116417	2.904730613483
4	594	1259.111256200637	1.409051150201
4	597	1274.632206286971	1.057099139255
4	600	1283.166494210312	1.166336734019
4	606	1312.21659935848	4.173841825002
4	609	1322.719353885014	0.276925994741
4	612	1356.275262346717	1.825221047502
4	615	1362.245564834612	2.436897695708
4	618	1366.501810179744	0.9347497617
4	621	1380.572914693844	1.04508018553
4	626	1393.601460763759	5.258073194698
4	632	1402.530529807698	6.542881043834
4	640	1411.12645899532	7.654671574404
4	641	1412.617607178196	6.885017076346
4	642	1420.791246903658	13.195782917848
4	651	1454.471207875099	32.296540143921
4	694	1512.811219638426	47.14592101193
4	695	1513.759473670119	30.618835648769
4	699	1530.269382141443	40.057790185484
4	702	1530.34770377903	37.872003548007
4	705	1532.337069677038	38.736176181572
4	711	1540.939521823149	41.688512205467
4	712	1544.129635162649	42.938889852034
4	728	1577.583822836859	73.741108443969
4	729	1579.209790151112	71.799610428122
4	735	1584.645727100548	54.354118165831
4	736	1585.519362576696	55.134437296333
4	737	1587.6217277198	52.006204560671
4	754	1620.399773240057	67.23773248098
4	755	1620.420382980618	50.283302699809
4	756	1622.233365207175	48.958588241012
4	757	1626.149985653971	45.372506217758
4	758	1632.658812325411	48.489866176885
4	759	1633.893035308358	43.512599534612
4	760	1638.92859681347	26.509411358707
4	763	1639.871551904559	22.421511037489
4	764	1641.900766964249	23.701310395999
4	765	1643.883598624256	4.318845900723
4	775	1663.924757165674	4.34507682149
4	778	1665.485308549449	4.401040085046
4	781	1670.923376136648	9.10246700699
4	782	1671.595003171386	7.368405503468
4	783	1671.708369437003	1.052368267053
4	793	1699.57769643809	6.844674526689
4	796	1711.990873212178	18.86871227361
4	797	1713.609722795296	16.817687965783
4	798	1715.226909740114	8.65087614303
4	807	1740.289795429027	2.705043966209
4	835	1798.633852016423	35.747399609013
4	838	1800.243344056997	35.717062761487
4	839	1805.322755606519	33.976981920838
4	845	1812.332876942232	25.233503230057
4	846	1812.48896080246	22.014891403125
4	849	1817.028822124851	18.389397867626
4	850	1817.128798948035	11.415542661331
4	855	1820.572461637145	9.500777857468
4	856	1827.117932917378	11.419881732816
4	857	1829.383957956209	11.190328034081
4	858	1829.501064061907	9.573107940121
4	868	1857.644834098409	16.111480280359
4	869	1859.054998953294	10.229276760171
4	870	1861.349710295666	9.546068848147
4	875	1877.915615432187	6.319524438823
4	876	1881.462796364895	8.422985128751
4	881	1895.638216436943	7.001526319016
4	882	1896.219617314286	6.499403012316
4	894	1916.535302647228	8.466870005796
4	897	1917.419799676799	0.307500924686
4	913	1946.48694395531	17.938075573663
4	916	1951.999489590049	8.797317535981
4	921	1958.066930190552	14.213480121906
4	922	1965.078798103775	17.586940335004
4	923	1965.286817625549	13.029277573884
4	955	2011.648186757618	46.175162341826
4	965	2016.71083962747	47.757760785584
4	968	2017.809249655395	42.056197575653
4	969	2019.04351216921	38.368299585477
4	970	2019.239516955011	34.804596334247
4	971	2020.311113209428	32.135231732888
4	979	2035.920986248291	29.24593566974
4	980	2037.825457210835	24.221723073834
4	981	2038.570821346272	24.858607695584
4	982	2039.844141582093	25.881422095997
4	983	2040.673878977713	24.102027860115
4	984	2041.399292971252	23.96571934378
4	985	2042.540424234899	21.162745964656
4	986	2045.329370824117	23.427074022341
4	987	2051.993304856901	20.241348785375
4	990	2055.838529855948	3.596379506387
4	998	2073.551089356927	13.037864520239
4	999	2073.890897375156	12.819850105519
4	1002	2085.666631443484	0.486633740211
4	1005	2095.616103818322	8.415843960406
4	1014	2127.304940151922	2.458893313913
4	1026	2166.504037433909	18.423581737006
4	1029	2181.905799391486	0.825301256864
4	1032	2185.021145247203	2.182006944945
4	1038	2195.326823217822	1.637658542895
4	1041	2216.117880888158	2.283502383834
4	1044	2218.179289807158	1.299803175072
4	1050	2223.997827745208	2.921343460296
4	1053	2230.705976872057	5.056977088423
4	1056	2241.737033889608	4.81343695981
4	1059	2246.05433186756	2.409561460641
4	1062	2266.854724406617	0.9108777185
4	1068	2281.310029057644	2.468779017364
4	1080	2326.992661824175	1.791097527015
4	1083	2336.048014605922	0.814481672277
4	1086	2348.276737358783	2.835950315231
4	1092	2358.138804328803	0.557968956343
4	1095	2363.294697708819	0.621834306334
4	1098	2381.465100806004	0.969274304466
4	1101	2390.888396335415	3.667590237345
4	1104	2409.053330212927	0.511021630326
4	1107	2410.239204565117	0.012878915612
4	1113	2414.160071535708	0.519837974256
4	1116	2423.971206101813	2.009381394688
4	1119	2445.483130807834	5.65640544129
4	1122	2449.883771838991	0.916846352977
4	1130	2462.531393714089	5.231554296571
4	1131	2462.794176489089	1.504938294976
4	1142	2483.828959920136	10.658761527323
4	1143	2484.749431415897	3.690369840583
5	134	360.864535828211	1
5	169	434.192491993633	1
5	171	434.455210291892	2
5	188	473.418125660566	1
5	197	494.985859456131	1
5	221	533.662990720296	1
5	227	537.630898853706	1
5	266	576.885520165288	1
5	272	599.284869783182	1
5	278	607.970771654433	1
5	290	634.887930512541	1
5	293	639.653880988209	1
5	298	649.417160232028	1
5	309	679.740153657803	1
5	313	683.74995469966	2
5	335	729.684251164739	1
5	350	765.453022773889	1
5	353	766.43135895336	1
5	359	788.973306370394	1
5	362	791.930488403228	1
5	365	795.155632926391	1
5	369	799.035351057598	2
5	371	800.178837360028	3
5	373	800.927631421423	4
5	404	849.464980582621	1
5	412	863.752104327907	1
5	416	872.270806368218	1
5	431	901.411980052073	1
5	470	974.77567001264	1
5	475	988.037285371389	1
5	485	1006.593199994784	1
5	491	1011.297870756273	2
5	501	1027.380940695977	1
5	506	1038.235837469343	1
5	518	1051.854654596607	1
5	521	1068.457324359042	1
5	536	1115.114581022403	1
5	540	1125.050224164863	1
5	544	1131.588456756517	1
5	551	1145.997290192829	1
5	554	1155.655865416976	1
5	569	1179.480158523593	1
5	602	1287.669619001015	1
5	630	1397.203814762574	1
5	634	1403.471787420916	1
5	646	1422.174667731178	1
5	648	1425.541955577038	2
5	653	1459.809802668981	1
5	656	1463.472783701677	1
5	660	1468.258265090104	2
5	662	1477.030327765908	3
5	668	1483.733119445775	2
5	685	1502.192571971784	2
5	697	1513.824900073327	1
5	707	1535.615523159129	1
5	714	1544.835433568439	1
5	716	1552.405657681915	2
5	720	1554.423249520396	3
5	733	1584.168946148526	1
5	739	1590.380435773746	1
5	741	1596.202799076679	2
5	743	1601.028906960768	3
5	748	1612.419185454763	1
5	767	1646.052593848569	1
5	785	1672.645983898138	1
5	800	1725.173569549517	1
5	803	1734.285532893839	1
5	809	1746.894718634036	1
5	811	1752.682965373174	2
5	813	1753.420297938543	3
5	815	1756.356175216809	4
5	824	1776.492643095432	4
5	841	1805.713256286704	1
5	860	1840.228471909046	1
5	884	1896.387871278477	1
5	886	1902.845844547256	2
5	888	1905.171414237391	3
5	899	1920.059414409871	1
5	901	1923.446138582809	2
5	904	1927.44617853084	2
5	925	1965.473024415792	1
5	931	1974.610237799757	2
5	935	1978.257315432963	3
5	945	1992.92582265826	2
5	947	1995.832788322231	3
5	961	2013.962719486096	1
5	975	2021.902296801776	1
5	992	2056.852604836569	1
5	1007	2119.077779893969	1
5	1009	2119.880416731758	2
5	1016	2127.915740897932	1
5	1021	2148.080455696903	1
5	1023	2150.521770546261	2
5	1036	2193.689164674927	1
5	1046	2219.878277341564	1
5	1064	2272.375387945966	1
5	1070	2299.072206357407	1
5	1073	2314.179784942103	1
5	1076	2323.85327808203	1
5	1088	2352.473961820584	1
5	1109	2410.291790491198	1
5	1124	2457.099948359269	1
5	1133	2464.026288258992	1
5	1135	2465.224727782946	2
5	1145	2497.285207450237	1
6	134	360.864535828211	0
6	135	360.960404813056	0
6	169	434.192491993633	0
6	171	434.455210291892	1
6	172	436.521258086064	1
6	173	443.033807034377	0
6	188	473.418125660566	0
6	189	473.652250717998	0
6	197	494.985859456131	0
6	198	497.4690751779	0
6	221	533.662990720296	0
6	222	535.230158881053	0
6	227	537.630898853706	0
6	232	544.115255814613	0
6	266	576.885520165288	0
6	267	581.921996189365	0
6	272	599.284869783182	0
6	275	603.633821649329	0
6	278	607.970771654433	0
6	283	627.437882834096	0
6	290	634.887930512541	0
6	291	637.460155404488	0
6	293	639.653880988209	0
6	296	646.313700962368	0
6	298	649.417160232028	0
6	299	649.728509607805	0
6	309	679.740153657803	0
6	313	683.74995469966	1
6	314	686.740461745448	1
6	317	693.641507836914	0
6	335	729.684251164739	0
6	336	730.89519014161	0
6	350	765.453022773889	0
6	351	766.212187334487	0
6	353	766.43135895336	0
6	354	770.19767834622	0
6	359	788.973306370394	0
6	360	790.223363982049	0
6	362	791.930488403228	0
6	363	793.222732821078	0
6	365	795.155632926391	0
6	369	799.035351057598	1
6	371	800.178837360028	2
6	373	800.927631421423	3
6	374	802.998824087681	3
6	379	811.573956958766	2
6	386	821.104241215095	1
6	391	830.486614478499	0
6	404	849.464980582621	0
6	409	856.710575372553	0
6	412	863.752104327907	0
6	413	864.533908911123	0
6	416	872.270806368218	0
6	423	879.578439368565	0
6	431	901.411980052073	0
6	438	915.728459139578	0
6	470	974.77567001264	0
6	471	974.998730398787	0
6	475	988.037285371389	0
6	476	988.552803205039	0
6	485	1006.593199994784	0
6	491	1011.297870756273	1
6	492	1011.848852035144	1
6	493	1016.232315203856	0
6	501	1027.380940695977	0
6	504	1033.051672327952	0
6	506	1038.235837469343	0
6	507	1038.704512800207	0
6	518	1051.854654596607	0
6	519	1052.428634451054	0
6	521	1068.457324359042	0
6	524	1071.851374922328	0
6	536	1115.114581022403	0
6	537	1117.283633227862	0
6	540	1125.050224164863	0
6	541	1127.724082527064	0
6	544	1131.588456756517	0
6	545	1134.727211096884	0
6	551	1145.997290192829	0
6	552	1149.686330772087	0
6	554	1155.655865416976	0
6	557	1157.60173230721	0
6	569	1179.480158523593	0
6	570	1183.012828616931	0
6	602	1287.669619001015	0
6	603	1289.808680087619	0
6	630	1397.203814762574	0
6	631	1398.844838926474	0
6	634	1403.471787420916	0
6	635	1405.620668199678	0
6	646	1422.174667731178	0
6	648	1425.541955577038	1
6	649	1452.34482471344	1
6	650	1454.147378982897	0
6	653	1459.809802668981	0
6	654	1462.479022691551	0
6	656	1463.472783701677	0
6	660	1468.258265090104	1
6	662	1477.030327765908	2
6	663	1477.537227592166	2
6	664	1480.63422439507	1
6	668	1483.733119445775	1
6	677	1494.403558450165	1
6	685	1502.192571971784	1
6	692	1508.05870806561	1
6	693	1510.737292290228	0
6	697	1513.824900073327	0
6	698	1528.706469024655	0
6	707	1535.615523159129	0
6	710	1539.338080846777	0
6	714	1544.835433568439	0
6	716	1552.405657681915	1
6	720	1554.423249520396	2
6	721	1563.328687751464	2
6	724	1572.018758108267	1
6	727	1576.116069842217	0
6	733	1584.168946148526	0
6	734	1584.598384758873	0
6	739	1590.380435773746	0
6	741	1596.202799076679	1
6	743	1601.028906960768	2
6	744	1602.932869039367	2
6	745	1606.310454118796	1
6	746	1610.470573299951	0
6	748	1612.419185454763	0
6	751	1618.008091846784	0
6	767	1646.052593848569	0
6	768	1651.127254557966	0
6	785	1672.645983898138	0
6	786	1675.621599318056	0
6	800	1725.173569549517	0
6	801	1731.99982315425	0
6	803	1734.285532893839	0
6	804	1735.060451552071	0
6	809	1746.894718634036	0
6	811	1752.682965373174	1
6	813	1753.420297938543	2
6	815	1756.356175216809	3
6	820	1770.768731710775	3
6	824	1776.492643095432	3
6	825	1781.109207745361	3
6	828	1783.289927214564	2
6	833	1791.08664093462	1
6	834	1797.484497544998	0
6	841	1805.713256286704	0
6	842	1808.300204492734	0
6	860	1840.228471909046	0
6	867	1855.327635715628	0
6	884	1896.387871278477	0
6	886	1902.845844547256	1
6	888	1905.171414237391	2
6	889	1905.950457026085	2
6	890	1906.215400346708	1
6	893	1912.749243039775	0
6	899	1920.059414409871	0
6	901	1923.446138582809	1
6	902	1924.389628500887	1
6	904	1927.44617853084	1
6	907	1939.367290267559	1
6	912	1945.956120707628	0
6	925	1965.473024415792	0
6	931	1974.610237799757	1
6	935	1978.257315432963	2
6	942	1990.520889508065	2
6	943	1992.26627847597	1
6	945	1992.92582265826	1
6	947	1995.832788322231	2
6	950	1997.10900969489	2
6	953	2009.789531312575	1
6	954	2010.020502010069	0
6	961	2013.962719486096	0
6	962	2016.420490219931	0
6	975	2021.902296801776	0
6	978	2032.238776455032	0
6	992	2056.852604836569	0
6	997	2072.360468238404	0
6	1007	2119.077779893969	0
6	1009	2119.880416731758	1
6	1010	2121.352850798624	1
6	1013	2126.65268920429	0
6	1016	2127.915740897932	0
6	1017	2129.577666861513	0
6	1021	2148.080455696903	0
6	1023	2150.521770546261	1
6	1024	2154.255558073023	1
6	1025	2164.171248786657	0
6	1036	2193.689164674927	0
6	1037	2194.200911225524	0
6	1046	2219.878277341564	0
6	1049	2223.367398553434	0
6	1064	2272.375387945966	0
6	1067	2279.340606701754	0
6	1070	2299.072206357407	0
6	1071	2301.197252857333	0
6	1073	2314.179784942103	0
6	1074	2316.6106647259	0
6	1076	2323.85327808203	0
6	1077	2324.438741159803	0
6	1088	2352.473961820584	0
6	1089	2353.126756604783	0
6	1109	2410.291790491198	0
6	1110	2411.217109101732	0
6	1124	2457.099948359269	0
6	1127	2460.250422800391	0
6	1133	2464.026288258992	0
6	1135	2465.224727782946	1
6	1136	2471.312910086949	1
6	1139	2480.052809718359	0
6	1145	2497.285207450237	0
6	1146	2497.927839584605	0
7	134	360.864535828211	0
7	169	434.192491993633	0
7	172	436.521258086064	2.066047794172
7	188	473.418125660566	0
7	197	494.985859456131	0
7	221	533.662990720296	0
7	227	537.630898853706	0
7	266	576.885520165288	0
7	272	599.284869783182	0
7	278	607.970771654433	0
7	290	634.887930512541	0
7	293	639.653880988209	0
7	298	649.417160232028	0
7	309	679.740153657803	0
7	314	686.740461745448	2.990507045788
7	335	729.684251164739	0
7	350	765.453022773889	0
7	353	766.43135895336	0
7	359	788.973306370394	0
7	362	791.930488403228	0
7	365	795.155632926391	0
7	374	802.998824087681	3.963473030083
7	379	811.573956958766	11.395119598738
7	386	821.104241215095	20.176609793672
7	404	849.464980582621	0
7	412	863.752104327907	0
7	416	872.270806368218	0
7	431	901.411980052073	0
7	470	974.77567001264	0
7	475	988.037285371389	0
7	485	1006.593199994784	0
7	492	1011.848852035144	0.550981278871
7	501	1027.380940695977	0
7	506	1038.235837469343	0
7	518	1051.854654596607	0
7	521	1068.457324359042	0
7	536	1115.114581022403	0
7	540	1125.050224164863	0
7	544	1131.588456756517	0
7	551	1145.997290192829	0
7	554	1155.655865416976	0
7	569	1179.480158523593	0
7	602	1287.669619001015	0
7	630	1397.203814762574	0
7	634	1403.471787420916	0
7	646	1422.174667731178	0
7	649	1452.34482471344	26.802869136402
7	653	1459.809802668981	0
7	656	1463.472783701677	0
7	663	1477.537227592166	9.278962502062
7	664	1480.63422439507	3.603896629162
7	677	1494.403558450165	10.67043900439
7	692	1508.05870806561	5.866136093826
7	697	1513.824900073327	0
7	707	1535.615523159129	0
7	714	1544.835433568439	0
7	721	1563.328687751464	10.923030069549
7	724	1572.018758108267	17.595508587871
7	733	1584.168946148526	0
7	739	1590.380435773746	0
7	744	1602.932869039367	6.730069962688
7	745	1606.310454118796	5.281547158028
7	748	1612.419185454763	0
7	767	1646.052593848569	0
7	785	1672.645983898138	0
7	800	1725.173569549517	0
7	803	1734.285532893839	0
7	809	1746.894718634036	0
7	820	1770.768731710775	18.085766337601
7	825	1781.109207745361	27.688909806818
7	828	1783.289927214564	26.933751997755
7	833	1791.08664093462	14.593997839188
7	841	1805.713256286704	0
7	860	1840.228471909046	0
7	884	1896.387871278477	0
7	889	1905.950457026085	3.104612478829
7	890	1906.215400346708	1.043986109317
7	899	1920.059414409871	0
7	902	1924.389628500887	0.943489918078
7	907	1939.367290267559	11.921111736719
7	925	1965.473024415792	0
7	942	1990.520889508065	15.910651708308
7	943	1992.26627847597	14.008963043007
7	950	1997.10900969489	4.18318703663
7	953	2009.789531312575	13.956742990344
7	961	2013.962719486096	0
7	975	2021.902296801776	0
7	992	2056.852604836569	0
7	1007	2119.077779893969	0
7	1010	2121.352850798624	1.472434066866
7	1016	2127.915740897932	0
7	1021	2148.080455696903	0
7	1024	2154.255558073023	3.733787526762
7	1036	2193.689164674927	0
7	1046	2219.878277341564	0
7	1064	2272.375387945966	0
7	1070	2299.072206357407	0
7	1073	2314.179784942103	0
7	1076	2323.85327808203	0
7	1088	2352.473961820584	0
7	1109	2410.291790491198	0
7	1124	2457.099948359269	0
7	1133	2464.026288258992	0
7	1136	2471.312910086949	6.088182304003
7	1145	2497.285207450237	0
8	135	360.960404813056	12
8	172	436.521258086064	13
8	173	443.033807034377	14
8	189	473.652250717998	15
8	198	497.4690751779	16
8	222	535.230158881053	17
8	232	544.115255814613	18
8	267	581.921996189365	19
8	275	603.633821649329	20
8	283	627.437882834096	21
8	291	637.460155404488	22
8	296	646.313700962368	23
8	299	649.728509607805	24
8	314	686.740461745448	25
8	317	693.641507836914	26
8	336	730.89519014161	27
8	351	766.212187334487	28
8	354	770.19767834622	29
8	360	790.223363982049	30
8	363	793.222732821078	31
8	374	802.998824087681	32
8	379	811.573956958766	33
8	386	821.104241215095	34
8	391	830.486614478499	35
8	409	856.710575372553	36
8	413	864.533908911123	37
8	423	879.578439368565	38
8	438	915.728459139578	39
8	471	974.998730398787	40
8	476	988.552803205039	41
8	492	1011.848852035144	42
8	493	1016.232315203856	43
8	504	1033.051672327952	44
8	507	1038.704512800207	45
8	519	1052.428634451054	46
8	524	1071.851374922328	47
8	537	1117.283633227862	48
8	541	1127.724082527064	49
8	545	1134.727211096884	50
8	552	1149.686330772087	51
8	557	1157.60173230721	52
8	570	1183.012828616931	53
8	603	1289.808680087619	54
8	631	1398.844838926474	55
8	635	1405.620668199678	56
8	649	1452.34482471344	57
8	650	1454.147378982897	58
8	654	1462.479022691551	59
8	663	1477.537227592166	60
8	664	1480.63422439507	61
8	677	1494.403558450165	62
8	692	1508.05870806561	63
8	693	1510.737292290228	64
8	698	1528.706469024655	65
8	710	1539.338080846777	66
8	721	1563.328687751464	67
8	724	1572.018758108267	68
8	727	1576.116069842217	69
8	734	1584.598384758873	70
8	744	1602.932869039367	71
8	745	1606.310454118796	72
8	746	1610.470573299951	73
8	751	1618.008091846784	74
8	768	1651.127254557966	75
8	786	1675.621599318056	76
8	801	1731.99982315425	77
8	804	1735.060451552071	78
8	820	1770.768731710775	79
8	825	1781.109207745361	80
8	828	1783.289927214564	81
8	833	1791.08664093462	82
8	834	1797.484497544998	83
8	842	1808.300204492734	84
8	867	1855.327635715628	85
8	889	1905.950457026085	86
8	890	1906.215400346708	87
8	893	1912.749243039775	88
8	902	1924.389628500887	89
8	907	1939.367290267559	90
8	912	1945.956120707628	91
8	942	1990.520889508065	92
8	943	1992.26627847597	93
8	950	1997.10900969489	94
8	953	2009.789531312575	95
8	954	2010.020502010069	96
8	962	2016.420490219931	97
8	978	2032.238776455032	98
8	997	2072.360468238404	99
8	1010	2121.352850798624	100
8	1013	2126.65268920429	101
8	1017	2129.577666861513	102
8	1024	2154.255558073023	103
8	1025	2164.171248786657	104
8	1037	2194.200911225524	105
8	1049	2223.367398553434	106
8	1067	2279.340606701754	107
8	1071	2301.197252857333	108
8	1074	2316.6106647259	109
8	1077	2324.438741159803	110
8	1089	2353.126756604783	111
8	1110	2411.217109101732	112
8	1127	2460.250422800391	113
8	1136	2471.312910086949	114
8	1139	2480.052809718359	115
8	1146	2497.927839584605	116
9	135	360.960404813056	0.095868984845
9	172	436.521258086064	2.328766092431
9	173	443.033807034377	8.578596742485
9	189	473.652250717998	0.234125057432
9	198	497.4690751779	2.483215721769
9	222	535.230158881053	1.567168160757
9	232	544.115255814613	6.484356960907
9	267	581.921996189365	5.036476024077
9	275	603.633821649329	4.348951866147
9	283	627.437882834096	19.467111179663
9	291	637.460155404488	2.572224891947
9	296	646.313700962368	6.659819974159
9	299	649.728509607805	0.311349375777
9	314	686.740461745448	7.000308087645
9	317	693.641507836914	9.891553137254
9	336	730.89519014161	1.210938976871
9	351	766.212187334487	0.759164560598
9	354	770.19767834622	3.76631939286
9	360	790.223363982049	1.250057611655
9	363	793.222732821078	1.29224441785
9	374	802.998824087681	7.84319116129
9	379	811.573956958766	12.538605901168
9	386	821.104241215095	20.925403855067
9	391	830.486614478499	29.558983057076
9	409	856.710575372553	7.245594789932
9	413	864.533908911123	0.781804583216
9	423	879.578439368565	7.307633000347
9	438	915.728459139578	14.316479087505
9	471	974.998730398787	0.223060386147
9	476	988.552803205039	0.51551783365
9	492	1011.848852035144	5.25565204036
9	493	1016.232315203856	4.934444447583
9	504	1033.051672327952	5.670731631975
9	507	1038.704512800207	0.468675330864
9	519	1052.428634451054	0.573979854447
9	524	1071.851374922328	3.394050563286
9	537	1117.283633227862	2.169052205459
9	541	1127.724082527064	2.673858362201
9	545	1134.727211096884	3.138754340367
9	552	1149.686330772087	3.689040579258
9	557	1157.60173230721	1.945866890234
9	570	1183.012828616931	3.532670093338
9	603	1289.808680087619	2.139061086604
9	631	1398.844838926474	1.6410241639
9	635	1405.620668199678	2.148880778762
9	649	1452.34482471344	30.170156982262
9	650	1454.147378982897	28.605423405859
9	654	1462.479022691551	2.66922002257
9	663	1477.537227592166	14.064443890489
9	664	1480.63422439507	12.375959304966
9	677	1494.403558450165	17.373230684257
9	692	1508.05870806561	24.325588619835
9	693	1510.737292290228	8.544720318444
9	698	1528.706469024655	14.881568951328
9	710	1539.338080846777	3.722557687648
9	721	1563.328687751464	18.493254183025
9	724	1572.018758108267	19.613100426352
9	727	1576.116069842217	21.692820321821
9	734	1584.598384758873	0.429438610347
9	744	1602.932869039367	12.552433265621
9	745	1606.310454118796	10.107655042117
9	746	1610.470573299951	9.441666339183
9	751	1618.008091846784	5.588906392021
9	768	1651.127254557966	5.074660709397
9	786	1675.621599318056	2.975615419918
9	801	1731.99982315425	6.826253604733
9	804	1735.060451552071	0.774918658232
9	820	1770.768731710775	23.874013076739
9	825	1781.109207745361	28.426242372187
9	828	1783.289927214564	29.869629276021
9	833	1791.08664093462	34.730465717811
9	834	1797.484497544998	20.991854449566
9	842	1808.300204492734	2.58694820603
9	867	1855.327635715628	15.099163806582
9	889	1905.950457026085	9.562585747608
9	890	1906.215400346708	3.369555799452
9	893	1912.749243039775	7.577828802384
9	902	1924.389628500887	4.330214091016
9	907	1939.367290267559	15.92115168475
9	912	1945.956120707628	18.509942176788
9	942	1990.520889508065	25.047865092273
9	943	1992.26627847597	17.656040676213
9	950	1997.10900969489	18.851694261927
9	953	2009.789531312575	16.863708654315
9	954	2010.020502010069	14.187713687838
9	962	2016.420490219931	2.457770733835
9	978	2032.238776455032	10.336479653256
9	997	2072.360468238404	15.507863401835
9	1010	2121.352850798624	2.275070904655
9	1013	2126.65268920429	6.772272472532
9	1017	2129.577666861513	1.661925963581
9	1024	2154.255558073023	6.17510237612
9	1025	2164.171248786657	13.649478240396
9	1037	2194.200911225524	0.511746550597
9	1049	2223.367398553434	3.48912121187
9	1067	2279.340606701754	6.965218755788
9	1071	2301.197252857333	2.125046499926
9	1074	2316.6106647259	2.430879783797
9	1077	2324.438741159803	0.585463077773
9	1089	2353.126756604783	0.652794784199
9	1110	2411.217109101732	0.925318610534
9	1127	2460.250422800391	3.150474441122
9	1136	2471.312910086949	7.286621827957
9	1139	2480.052809718359	14.828081935413
9	1146	2497.927839584605	0.642632134368
10	169	434.192491993633	3
10	266	576.885520165288	4
10	298	649.417160232028	5
10	309	679.740153657803	6
10	412	863.752104327907	7
10	475	988.037285371389	8
10	501	1027.380940695977	9
10	506	1038.235837469343	10
10	536	1115.114581022403	11
10	540	1125.050224164863	12
10	544	1131.588456756517	13
10	630	1397.203814762574	14
10	634	1403.471787420916	15
10	646	1422.174667731178	16
10	697	1513.824900073327	17
10	707	1535.615523159129	18
10	714	1544.835433568439	19
10	733	1584.168946148526	20
10	739	1590.380435773746	21
10	748	1612.419185454763	22
10	841	1805.713256286704	23
10	925	1965.473024415792	24
10	961	2013.962719486096	25
10	975	2021.902296801776	26
10	1021	2148.080455696903	27
10	1036	2193.689164674927	28
11	1147	2500	0.1064
12	1147	2500	0.0464

