version 2
run experiments_easy_game_mode1-1693-20230308-12:08:10-27254
attr configname experiments_easy_game_mode1
attr datetime 20230308-12:08:10
attr experiment experiments_easy_game_mode1
attr inifile omnetpp.ini
attr iterationvars "$0=7, $1=3, $2=0"
attr iterationvarsf 7,3,0-
attr measurement "$0=7, $1=3, $2=0"
attr network Network
attr processid 27254
attr repetition 13
attr replication #13
attr resultdir results
attr runnumber 1693
attr seedset 13
param *.boss.arrival_mean 20
param *.boss.service_mean 7
param *.minion.arrival_mean 10
param *.minion.service_mean 3
param *.player.recover_rate_x 0
param **.minion.arrival_distribution 0
param **.minion.service_distribution 0
param **.boss.arrival_distribution 0
param **.boss.service_distribution 0

vector 0 Network.player boss_jobs_number_stat:vector ETV
attr source signal_boss_jobs_number
vector 1 Network.player boss_jobs_queue_number_stat:vector ETV
attr source signal_boss_jobs_queue_number
vector 2 Network.player minion_jobs_number_stat:vector ETV
attr source signal_minion_jobs_number
vector 3 Network.player minion_jobs_queue_number_stat:vector ETV
attr source signal_minion_jobs_queue_number
vector 4 Network.player boss_defeated_stat:vector ETV
attr source signal_boss_defeated
vector 5 Network.player boss_response_time_stat:vector ETV
attr source signal_boss_response_time
vector 6 Network.player boss_waiting_time_stat:vector ETV
attr source signal_boss_waiting_time
vector 7 Network.player minion_waiting_time_stat:vector ETV
attr source signal_minion_waiting_time
vector 8 Network.player minion_recovered_stat:vector ETV
attr source signal_minion_recovered
vector 9 Network.player minion_defeated_stat:vector ETV
attr source signal_minion_defeated
vector 10 Network.player minion_response_time_stat:vector ETV
attr source signal_minion_response_time
vector 11 Network.player minion_throughput:vector ETV
attr source signal_minion_throughput
vector 12 Network.player boss_throughput:vector ETV
attr source signal_boss_throughput
0	161	350.881313172297	2
0	168	360.818519535049	2
0	170	361.531643308555	3
0	177	371.908598985871	1
0	179	376.931018151467	2
0	181	381.136330067117	3
0	215	429.073456309595	1
0	227	458.216863057689	1
0	232	485.039383383465	1
0	245	504.219337313665	1
0	249	513.42129579689	2
0	262	565.569280449517	1
0	278	626.472031129181	1
0	281	634.336558468053	1
0	285	638.192742303279	2
0	287	644.030677267764	3
0	289	644.144963208146	4
0	297	669.619848426002	3
0	308	693.409668976404	1
0	346	809.310921917985	1
0	357	827.380958355965	1
0	359	834.74067954906	2
0	372	858.166594785723	1
0	375	861.941115502046	1
0	390	883.655885421752	1
0	392	887.512647225875	2
0	404	903.905552536614	1
0	407	907.483937674146	1
0	434	990.413455002523	1
0	439	1008.003682923438	1
0	446	1020.417949707382	1
0	452	1033.249379298814	1
0	461	1053.470206707816	1
0	470	1065.821984533476	1
0	476	1072.614960455695	2
0	479	1077.976575989947	2
0	495	1104.858659015191	1
0	512	1143.647684051215	1
0	520	1159.235141044981	2
0	527	1171.966462265233	2
0	538	1196.686858693904	1
0	540	1197.809451509109	2
0	543	1201.314877016841	2
0	572	1301.300109462689	1
0	578	1316.697341954421	1
0	580	1321.049430127316	2
0	584	1327.240078304281	1
0	596	1352.172457290686	1
0	619	1419.760823824721	1
0	634	1453.65964639195	1
0	667	1539.073766767534	1
0	674	1551.811268998897	1
0	680	1574.680051997075	1
0	683	1580.731531549448	1
0	685	1583.786751798574	2
0	691	1595.405242588751	3
0	704	1614.424317239799	1
0	707	1619.123148538388	1
0	713	1628.846044176192	1
0	722	1641.653488925519	1
0	724	1646.228649184495	2
0	726	1651.491893488932	3
0	730	1656.443885829001	4
0	733	1659.95899571819	4
0	742	1686.518869704216	1
0	744	1691.412908866778	2
0	760	1722.827600274038	1
0	762	1726.331710433346	2
0	776	1767.39258822199	1
0	803	1826.132510283332	1
0	806	1837.232700665273	1
0	819	1856.676250964027	1
0	821	1857.37999332076	2
0	830	1883.476859197256	1
0	832	1885.403139532809	2
0	842	1927.167334289672	1
0	844	1928.858537845573	2
0	854	1985.692923559129	1
0	877	2035.12845233487	1
0	882	2037.706644485021	1
0	884	2043.472956852933	2
0	895	2086.337690370672	1
0	899	2097.545413534898	1
0	901	2099.566104157284	2
0	908	2115.320149594233	1
0	919	2145.854161296251	1
0	928	2165.681529415681	1
0	937	2187.109250616897	1
0	976	2221.454825515369	1
0	1003	2264.236815591852	1
0	1007	2271.874558676346	1
0	1014	2293.078236472355	1
0	1037	2336.495621840945	1
0	1041	2337.348088405461	2
0	1050	2352.254707627457	2
0	1064	2372.17973835098	1
0	1076	2414.535637886846	1
0	1094	2439.36645112858	1
0	1096	2440.572633583659	2
0	1107	2452.701691149425	1
0	1109	2455.773500652442	2
0	1112	2478.047714483756	2
0	1119	2490.461691942782	2
1	161	350.881313172297	1
1	166	360.138690488099	1
1	168	360.818519535049	1
1	170	361.531643308555	2
1	171	362.734274927039	2
1	174	363.103863235668	1
1	175	367.421943016039	0
1	177	371.908598985871	0
1	179	376.931018151467	1
1	181	381.136330067117	2
1	182	382.372511027043	2
1	185	385.818977267277	1
1	186	385.883244024819	0
1	215	429.073456309595	0
1	216	429.923603800835	0
1	227	458.216863057689	0
1	228	464.958927525688	0
1	232	485.039383383465	0
1	233	485.495294522357	0
1	245	504.219337313665	0
1	249	513.42129579689	1
1	250	516.172912707596	1
1	251	521.496180876491	0
1	262	565.569280449517	0
1	267	581.589070323313	0
1	278	626.472031129181	0
1	279	627.624639866673	0
1	281	634.336558468053	0
1	285	638.192742303279	1
1	287	644.030677267764	2
1	289	644.144963208146	3
1	292	664.025880350949	3
1	293	665.532675555135	2
1	297	669.619848426002	2
1	298	670.339282425641	2
1	303	685.478918730851	1
1	304	688.519416840757	0
1	308	693.409668976404	0
1	315	703.066371026725	0
1	346	809.310921917985	0
1	353	823.437239562232	0
1	357	827.380958355965	0
1	359	834.74067954906	1
1	366	847.184218885538	1
1	369	850.723712882574	0
1	372	858.166594785723	0
1	373	859.691235774893	0
1	375	861.941115502046	0
1	378	869.164150503925	0
1	390	883.655885421752	0
1	392	887.512647225875	1
1	393	889.542456635156	1
1	394	889.687114301413	0
1	404	903.905552536614	0
1	405	905.673182128565	0
1	407	907.483937674146	0
1	410	919.038840095426	0
1	434	990.413455002523	0
1	435	993.896004403444	0
1	439	1008.003682923438	0
1	440	1011.933768089239	0
1	446	1020.417949707382	0
1	447	1023.072329353127	0
1	452	1033.249379298814	0
1	455	1038.973157838571	0
1	461	1053.470206707816	0
1	462	1055.324040172034	0
1	470	1065.821984533476	0
1	476	1072.614960455695	1
1	477	1076.392658504693	1
1	479	1077.976575989947	1
1	480	1078.160077221403	1
1	481	1081.765753470186	0
1	495	1104.858659015191	0
1	496	1109.899897693022	0
1	512	1143.647684051215	0
1	520	1159.235141044981	1
1	523	1160.34906428833	1
1	527	1171.966462265233	1
1	528	1177.817538222202	1
1	529	1185.165685369696	0
1	538	1196.686858693904	0
1	540	1197.809451509109	1
1	541	1200.944203979699	1
1	543	1201.314877016841	1
1	544	1210.039172026771	1
1	547	1233.640781258991	0
1	572	1301.300109462689	0
1	573	1311.885050515803	0
1	578	1316.697341954421	0
1	580	1321.049430127316	1
1	581	1323.54590481708	1
1	582	1326.569223727431	0
1	584	1327.240078304281	0
1	585	1328.580536938254	0
1	596	1352.172457290686	0
1	597	1352.31144749975	0
1	619	1419.760823824721	0
1	622	1432.386931981144	0
1	634	1453.65964639195	0
1	635	1456.767908192368	0
1	667	1539.073766767534	0
1	670	1544.775817439871	0
1	674	1551.811268998897	0
1	675	1554.34032267904	0
1	680	1574.680051997075	0
1	681	1575.832625981763	0
1	683	1580.731531549448	0
1	685	1583.786751798574	1
1	691	1595.405242588751	2
1	692	1598.330034053025	2
1	693	1602.930786216324	1
1	696	1604.976337443527	0
1	704	1614.424317239799	0
1	705	1616.132910780547	0
1	707	1619.123148538388	0
1	708	1621.054850615507	0
1	713	1628.846044176192	0
1	716	1633.562373315231	0
1	722	1641.653488925519	0
1	724	1646.228649184495	1
1	726	1651.491893488932	2
1	730	1656.443885829001	3
1	731	1658.503133204528	3
1	733	1659.95899571819	3
1	736	1663.115064751857	3
1	737	1673.613355643942	2
1	738	1677.382684859961	1
1	739	1681.314642709338	0
1	742	1686.518869704216	0
1	744	1691.412908866778	1
1	745	1692.573561169801	1
1	750	1710.412097644708	0
1	760	1722.827600274038	0
1	762	1726.331710433346	1
1	763	1727.829860853963	1
1	768	1736.439675366234	0
1	776	1767.39258822199	0
1	789	1796.401270047858	0
1	803	1826.132510283332	0
1	804	1826.653836018586	0
1	806	1837.232700665273	0
1	813	1849.543821593839	0
1	819	1856.676250964027	0
1	821	1857.37999332076	1
1	824	1859.397344309926	1
1	825	1873.184617401441	0
1	830	1883.476859197256	0
1	832	1885.403139532809	1
1	835	1896.532571957922	1
1	836	1902.292340217413	0
1	842	1927.167334289672	0
1	844	1928.858537845573	1
1	845	1934.235641879346	1
1	846	1937.095217711966	0
1	854	1985.692923559129	0
1	855	1992.381494951233	0
1	877	2035.12845233487	0
1	878	2037.316916318286	0
1	882	2037.706644485021	0
1	884	2043.472956852933	1
1	885	2049.269935865892	1
1	886	2054.213753970077	0
1	895	2086.337690370672	0
1	896	2093.42033017435	0
1	899	2097.545413534898	0
1	901	2099.566104157284	1
1	902	2100.343403863845	1
1	903	2102.521683649449	0
1	908	2115.320149594233	0
1	909	2116.226596968712	0
1	919	2145.854161296251	0
1	920	2149.263407735311	0
1	928	2165.681529415681	0
1	933	2175.261981764611	0
1	937	2187.109250616897	0
1	940	2190.070639488407	0
1	976	2221.454825515369	0
1	977	2230.059004432873	0
1	1003	2264.236815591852	0
1	1004	2265.801706320317	0
1	1007	2271.874558676346	0
1	1008	2278.015819500141	0
1	1014	2293.078236472355	0
1	1015	2295.188165911868	0
1	1037	2336.495621840945	0
1	1041	2337.348088405461	1
1	1048	2347.935202387097	1
1	1050	2352.254707627457	1
1	1051	2355.753413928576	1
1	1052	2357.179711318358	0
1	1064	2372.17973835098	0
1	1067	2385.383727293201	0
1	1076	2414.535637886846	0
1	1081	2416.380033804116	0
1	1094	2439.36645112858	0
1	1096	2440.572633583659	1
1	1097	2440.952780025853	1
1	1098	2441.115269492052	0
1	1107	2452.701691149425	0
1	1109	2455.773500652442	1
1	1110	2463.024008037731	1
1	1112	2478.047714483756	1
1	1115	2485.230198060791	1
1	1119	2490.461691942782	1
1	1122	2497.679307451963	1
2	163	354.220807892071	3
2	165	358.816678104859	4
2	173	362.918884947423	5
2	184	382.502447573653	6
2	189	386.691966251989	6
2	192	391.480322332022	6
2	197	402.91178608321	4
2	200	403.909484036199	4
2	202	412.173305584134	5
2	205	416.102112529242	5
2	209	421.769602253501	4
2	212	427.13295448405	4
2	221	433.849908919438	1
2	224	447.408489393891	1
2	230	481.918541865505	1
2	236	492.645323064696	1
2	239	498.41728786812	1
2	241	500.665197321305	2
2	247	513.078115747372	1
2	254	529.606159204226	1
2	257	547.383719825004	1
2	260	562.820335773616	1
2	264	571.42461516205	2
2	266	576.44888564805	3
2	272	599.143554045033	1
2	275	606.28963701956	1
2	283	634.448028384357	1
2	291	650.35220467007	2
2	295	665.766420488575	3
2	300	671.661096219755	4
2	302	680.844601077482	5
2	310	694.4339970116	4
2	312	700.985969889335	5
2	314	701.806198171285	6
2	320	713.958362007736	4
2	322	720.645742409063	5
2	328	729.832992657518	2
2	332	735.531473481411	1
2	335	776.789953050879	1
2	338	779.614350689329	1
2	341	785.140662753362	1
2	344	804.919677685226	1
2	348	813.104810438763	2
2	350	813.307067739144	3
2	352	818.30858984354	4
2	355	824.302002192307	5
2	361	836.864931136729	6
2	363	837.350773138421	7
2	365	843.326417154544	8
2	368	850.212541818324	9
2	377	862.256259261925	9
2	388	881.830197929819	2
2	396	893.854051650568	3
2	400	897.930962325278	2
2	409	910.066976022594	1
2	413	933.253107534893	1
2	416	941.657077362681	1
2	419	942.968278161708	1
2	422	946.440734773634	1
2	425	948.153764576261	1
2	428	965.521339741348	1
2	431	981.004076053121	1
2	437	1004.449375652978	1
2	443	1015.38380414706	1
2	449	1024.553756365915	1
2	454	1037.290707556304	1
2	458	1049.858783622759	1
2	464	1057.607896085531	1
2	466	1061.401959982533	2
2	472	1067.787554912875	1
2	474	1068.252939213793	2
2	484	1091.347777855667	2
2	488	1096.268931160359	1
2	491	1100.961170677705	1
2	493	1104.564690809039	2
2	498	1112.067930347438	3
2	503	1119.099637767066	1
2	506	1130.957477577577	1
2	509	1138.78013148916	1
2	514	1144.323871654139	1
2	516	1148.450157988024	2
2	518	1158.627211880175	3
2	522	1159.331674425107	4
2	525	1168.353695857964	5
2	532	1188.190898806865	5
2	536	1194.247409209763	4
2	546	1215.289413414158	5
2	551	1240.032217313543	4
2	553	1240.082505664293	5
2	560	1253.710917304745	1
2	562	1257.293697563909	2
2	566	1283.813109435883	1
2	569	1291.389407764327	1
2	575	1313.569823988025	1
2	587	1346.167197587479	1
2	589	1350.028723703293	2
2	593	1351.512135146458	1
2	599	1363.224814850181	1
2	602	1377.772949826415	1
2	605	1378.379669330629	1
2	608	1391.432326235966	1
2	611	1393.686084915507	1
2	614	1405.629567179376	1
2	617	1418.469175043072	1
2	621	1425.893199456538	2
2	625	1439.836864833386	2
2	628	1444.7624137905	2
2	630	1448.263396076285	3
2	638	1465.369118310634	1
2	641	1497.176956300586	1
2	643	1497.962016172964	2
2	645	1498.005744378918	3
2	650	1508.777151633738	1
2	653	1513.081014510385	1
2	656	1519.02434727888	1
2	659	1521.224361848015	1
2	661	1521.4211177398	2
2	663	1527.176332775919	3
2	669	1542.095215944384	2
2	677	1568.633061524487	1
2	687	1586.257204412821	1
2	689	1589.545655119811	2
2	695	1603.92385839718	3
2	701	1609.50799170604	1
2	710	1625.662992635075	1
2	715	1631.920961920185	1
2	719	1635.677345328082	1
2	728	1654.996103444303	1
2	735	1663.090675980942	2
2	747	1704.68708707631	2
2	749	1709.770363652536	3
2	754	1716.266022827696	2
2	757	1720.94382496743	2
2	765	1728.637724047396	2
2	767	1731.636747604201	3
2	771	1746.878738555797	3
2	778	1767.685687162037	1
2	780	1784.550241260931	2
2	782	1784.841039858382	3
2	784	1786.41524331182	4
2	786	1789.616137908949	5
2	788	1793.820346761653	6
2	793	1800.426775317516	5
2	799	1812.321555644909	2
2	808	1840.504910789092	1
2	810	1842.590162227535	2
2	812	1847.99445252932	3
2	815	1854.07194290293	4
2	823	1858.808527574329	3
2	834	1894.016135839259	1
2	839	1915.429774557667	1
2	848	1967.183320475023	1
2	851	1979.625919561273	1
2	857	1993.509219006814	1
2	859	1999.044872113969	2
2	863	2006.225192601021	1
2	866	2011.405938186384	1
2	869	2018.637309074694	1
2	872	2030.325865854542	1
2	874	2031.042674949367	2
2	880	2037.599694128195	2
2	890	2073.067371242433	1
2	893	2078.372861477825	1
2	905	2109.343958797616	1
2	911	2123.437687074001	1
2	914	2138.579705603058	1
2	917	2143.511469465731	1
2	923	2162.382812115029	1
2	925	2163.089283698397	2
2	930	2168.186973905235	2
2	932	2173.869921520784	3
2	939	2189.811664414536	2
2	944	2196.082281053651	1
2	946	2196.260568128432	2
2	948	2197.06684740145	3
2	951	2198.899392425671	3
2	956	2203.672221669975	1
2	959	2205.91081637071	1
2	962	2209.528222924243	1
2	965	2212.282576392703	1
2	967	2215.738187667887	2
2	969	2216.540206352545	3
2	972	2219.790560216916	3
2	980	2232.952055811601	1
2	982	2233.289927255512	2
2	986	2234.378659968128	1
2	988	2246.891927868613	2
2	991	2252.24765871453	2
2	993	2256.212029238043	3
2	996	2258.711853867551	3
2	1001	2263.520418659047	1
2	1010	2291.641604036185	1
2	1012	2292.288336125078	2
2	1018	2299.337709247451	2
2	1022	2301.157408505392	1
2	1025	2310.542912566416	1
2	1027	2316.096112479992	2
2	1031	2324.857901397619	1
2	1034	2329.828241345159	1
2	1039	2336.636636448296	1
2	1043	2342.58296503385	2
2	1045	2344.407946736265	3
2	1047	2347.851559815224	4
2	1058	2363.887143678592	1
2	1061	2368.453322025333	1
2	1066	2384.92887531202	1
2	1070	2392.242113020186	1
2	1073	2402.905379266026	1
2	1078	2414.704580193717	1
2	1080	2416.079366247579	2
2	1083	2418.726709731	3
2	1086	2427.294030763727	3
2	1091	2438.424958185678	1
2	1100	2441.73512436978	1
2	1103	2445.627055548079	1
2	1105	2448.642151641041	2
2	1114	2479.805499485109	3
2	1117	2489.270064040171	4
2	1121	2494.009934103584	5
3	163	354.220807892071	2
3	165	358.816678104859	3
3	173	362.918884947423	4
3	184	382.502447573653	5
3	187	386.432654874713	5
3	189	386.691966251989	5
3	190	390.522047978642	5
3	192	391.480322332022	5
3	193	392.090775080609	5
3	194	394.149727544157	4
3	195	399.822529111712	3
3	197	402.91178608321	3
3	198	402.992235049589	3
3	200	403.909484036199	3
3	202	412.173305584134	4
3	203	415.416215417668	4
3	205	416.102112529242	4
3	206	417.9324624813	4
3	207	420.779789668915	3
3	209	421.769602253501	3
3	210	423.287510598356	3
3	212	427.13295448405	3
3	213	427.144118936305	3
3	217	430.355732906594	2
3	218	433.162000857268	1
3	219	433.461914650969	0
3	221	433.849908919438	0
3	222	435.574400953083	0
3	224	447.408489393891	0
3	225	447.820171029931	0
3	230	481.918541865505	0
3	234	489.865367164068	0
3	236	492.645323064696	0
3	237	493.274989506011	0
3	239	498.41728786812	0
3	241	500.665197321305	1
3	242	502.332707670279	1
3	243	504.078532155337	0
3	247	513.078115747372	0
3	252	529.0152513505	0
3	254	529.606159204226	0
3	255	535.548405348558	0
3	257	547.383719825004	0
3	258	549.957984131708	0
3	260	562.820335773616	0
3	264	571.42461516205	1
3	266	576.44888564805	2
3	268	585.658762986505	2
3	269	591.464742729697	1
3	270	592.244669032907	0
3	272	599.143554045033	0
3	273	604.176248146617	0
3	275	606.28963701956	0
3	276	608.173293608823	0
3	283	634.448028384357	0
3	291	650.35220467007	1
3	295	665.766420488575	2
3	300	671.661096219755	3
3	302	680.844601077482	4
3	305	688.975401517211	4
3	306	690.883215434283	3
3	310	694.4339970116	3
3	312	700.985969889335	4
3	314	701.806198171285	5
3	316	704.730359249349	5
3	317	708.170275336259	4
3	318	710.395804815302	3
3	320	713.958362007736	3
3	322	720.645742409063	4
3	323	720.915890619729	4
3	324	721.951132671893	3
3	325	727.195441243382	2
3	326	727.657867680566	1
3	328	729.832992657518	1
3	329	731.319349388213	1
3	330	731.495320307734	0
3	332	735.531473481411	0
3	333	736.619879248628	0
3	335	776.789953050879	0
3	336	778.786305860534	0
3	338	779.614350689329	0
3	339	780.098735976317	0
3	341	785.140662753362	0
3	342	786.235247579373	0
3	344	804.919677685226	0
3	348	813.104810438763	1
3	350	813.307067739144	2
3	352	818.30858984354	3
3	355	824.302002192307	4
3	361	836.864931136729	5
3	363	837.350773138421	6
3	365	843.326417154544	7
3	368	850.212541818324	8
3	370	854.366474663555	8
3	377	862.256259261925	8
3	379	870.010115004452	8
3	380	870.18335376961	7
3	381	871.425283466225	6
3	382	875.150096187289	5
3	383	876.156172414107	4
3	384	877.090805591562	3
3	385	877.794857512931	2
3	386	881.626561792312	1
3	388	881.830197929819	1
3	396	893.854051650568	2
3	397	895.732474095258	2
3	398	897.406315125562	1
3	400	897.930962325278	1
3	401	899.958968757134	1
3	402	900.753974109085	0
3	409	910.066976022594	0
3	411	920.488734864784	0
3	413	933.253107534893	0
3	414	934.001749558821	0
3	416	941.657077362681	0
3	417	942.03272617259	0
3	419	942.968278161708	0
3	420	943.05457203692	0
3	422	946.440734773634	0
3	423	947.544101027469	0
3	425	948.153764576261	0
3	426	950.208618072795	0
3	428	965.521339741348	0
3	429	972.186242228747	0
3	431	981.004076053121	0
3	432	984.885576839577	0
3	437	1004.449375652978	0
3	441	1012.73930783716	0
3	443	1015.38380414706	0
3	444	1016.671011689797	0
3	449	1024.553756365915	0
3	450	1030.454809212176	0
3	454	1037.290707556304	0
3	456	1039.849918296855	0
3	458	1049.858783622759	0
3	459	1051.332300778608	0
3	464	1057.607896085531	0
3	466	1061.401959982533	1
3	467	1062.736495816988	1
3	468	1065.383556083364	0
3	472	1067.787554912875	0
3	474	1068.252939213793	1
3	482	1087.025562564362	1
3	484	1091.347777855667	1
3	485	1091.914133013722	1
3	486	1092.068213876803	0
3	488	1096.268931160359	0
3	489	1097.340793207421	0
3	491	1100.961170677705	0
3	493	1104.564690809039	1
3	498	1112.067930347438	2
3	499	1113.209588083737	2
3	500	1115.08380162565	1
3	501	1118.672539506235	0
3	503	1119.099637767066	0
3	504	1120.000952850171	0
3	506	1130.957477577577	0
3	507	1131.14444351465	0
3	509	1138.78013148916	0
3	510	1139.294702546681	0
3	514	1144.323871654139	0
3	516	1148.450157988024	1
3	518	1158.627211880175	2
3	522	1159.331674425107	3
3	525	1168.353695857964	4
3	530	1186.669762814945	4
3	532	1188.190898806865	4
3	533	1191.623267621825	4
3	534	1193.916975599989	3
3	536	1194.247409209763	3
3	546	1215.289413414158	4
3	548	1234.164786620278	4
3	549	1236.651627450028	3
3	551	1240.032217313543	3
3	553	1240.082505664293	4
3	554	1245.1475234824	4
3	555	1245.277127343731	3
3	556	1246.171943217987	2
3	557	1246.266112077419	1
3	558	1246.509753758162	0
3	560	1253.710917304745	0
3	562	1257.293697563909	1
3	563	1257.656246389821	1
3	564	1258.376239991566	0
3	566	1283.813109435883	0
3	567	1284.229390536189	0
3	569	1291.389407764327	0
3	570	1297.932193577726	0
3	575	1313.569823988025	0
3	576	1314.911809203051	0
3	587	1346.167197587479	0
3	589	1350.028723703293	1
3	590	1351.280933525629	1
3	591	1351.411972406367	0
3	593	1351.512135146458	0
3	594	1351.718277062022	0
3	599	1363.224814850181	0
3	600	1366.236722331682	0
3	602	1377.772949826415	0
3	603	1378.031707742005	0
3	605	1378.379669330629	0
3	606	1382.280978594316	0
3	608	1391.432326235966	0
3	609	1391.665020139121	0
3	611	1393.686084915507	0
3	612	1397.211996772362	0
3	614	1405.629567179376	0
3	615	1405.917972713833	0
3	617	1418.469175043072	0
3	621	1425.893199456538	1
3	623	1436.508614297704	1
3	625	1439.836864833386	1
3	626	1442.44838174882	1
3	628	1444.7624137905	1
3	630	1448.263396076285	2
3	631	1450.927907081647	2
3	632	1452.294076235328	1
3	636	1460.674201888376	0
3	638	1465.369118310634	0
3	639	1469.089942182364	0
3	641	1497.176956300586	0
3	643	1497.962016172964	1
3	645	1498.005744378918	2
3	646	1500.869620666796	2
3	647	1504.580603003013	1
3	648	1506.953938385975	0
3	650	1508.777151633738	0
3	651	1508.985301758769	0
3	653	1513.081014510385	0
3	654	1516.097942983402	0
3	656	1519.02434727888	0
3	657	1519.920930317153	0
3	659	1521.224361848015	0
3	661	1521.4211177398	1
3	663	1527.176332775919	2
3	664	1528.006115057038	2
3	665	1533.047874965147	1
3	669	1542.095215944384	1
3	671	1544.917196104124	1
3	672	1548.356957140908	0
3	677	1568.633061524487	0
3	678	1571.669873997553	0
3	687	1586.257204412821	0
3	689	1589.545655119811	1
3	695	1603.92385839718	2
3	697	1605.689626385214	2
3	698	1605.87847046018	1
3	699	1608.572839828644	0
3	701	1609.50799170604	0
3	702	1612.971958336601	0
3	710	1625.662992635075	0
3	711	1628.467943158073	0
3	715	1631.920961920185	0
3	717	1635.510694934339	0
3	719	1635.677345328082	0
3	720	1636.242545384578	0
3	728	1654.996103444303	0
3	735	1663.090675980942	1
3	740	1685.037939027693	1
3	747	1704.68708707631	1
3	749	1709.770363652536	2
3	751	1711.728979573144	2
3	752	1712.441487092636	1
3	754	1716.266022827696	1
3	755	1719.196312280829	1
3	757	1720.94382496743	1
3	758	1722.821717707295	1
3	765	1728.637724047396	1
3	767	1731.636747604201	2
3	769	1740.274215982074	2
3	771	1746.878738555797	2
3	772	1747.115703410467	2
3	773	1747.494139554617	1
3	774	1750.907282408285	0
3	778	1767.685687162037	0
3	780	1784.550241260931	1
3	782	1784.841039858382	2
3	784	1786.41524331182	3
3	786	1789.616137908949	4
3	788	1793.820346761653	5
3	790	1798.396826245638	5
3	791	1799.040331526729	4
3	793	1800.426775317516	4
3	794	1802.155750550235	4
3	795	1804.489858811783	3
3	796	1805.958267011036	2
3	797	1812.191695773733	1
3	799	1812.321555644909	1
3	800	1812.403615179915	1
3	801	1814.987475994133	0
3	808	1840.504910789092	0
3	810	1842.590162227535	1
3	812	1847.99445252932	2
3	815	1854.07194290293	3
3	816	1854.42254975166	3
3	817	1855.620415012034	2
3	823	1858.808527574329	2
3	826	1875.631097841409	2
3	827	1877.941966384697	1
3	828	1878.429421569481	0
3	834	1894.016135839259	0
3	837	1902.87629624293	0
3	839	1915.429774557667	0
3	840	1918.560211257258	0
3	848	1967.183320475023	0
3	849	1970.516862403719	0
3	851	1979.625919561273	0
3	852	1983.352286900274	0
3	857	1993.509219006814	0
3	859	1999.044872113969	1
3	860	1999.590055984067	1
3	861	2001.136867723153	0
3	863	2006.225192601021	0
3	864	2008.188848275648	0
3	866	2011.405938186384	0
3	867	2013.031732262116	0
3	869	2018.637309074694	0
3	870	2019.975280194411	0
3	872	2030.325865854542	0
3	874	2031.042674949367	1
3	875	2031.722122489175	1
3	880	2037.599694128195	1
3	887	2055.783882039065	1
3	888	2060.911341238824	0
3	890	2073.067371242433	0
3	891	2076.886576734478	0
3	893	2078.372861477825	0
3	897	2095.662289671616	0
3	905	2109.343958797616	0
3	906	2110.418866299603	0
3	911	2123.437687074001	0
3	912	2130.095029756985	0
3	914	2138.579705603058	0
3	915	2139.512075813528	0
3	917	2143.511469465731	0
3	921	2156.35301007427	0
3	923	2162.382812115029	0
3	925	2163.089283698397	1
3	926	2165.083364905917	1
3	930	2168.186973905235	1
3	932	2173.869921520784	2
3	934	2184.684686460602	2
3	935	2185.59528974431	1
3	939	2189.811664414536	1
3	941	2192.925034624416	1
3	942	2195.494673799446	0
3	944	2196.082281053651	0
3	946	2196.260568128432	1
3	948	2197.06684740145	2
3	949	2197.239165855768	2
3	951	2198.899392425671	2
3	952	2199.553764029175	2
3	953	2200.885502586844	1
3	954	2202.279060764658	0
3	956	2203.672221669975	0
3	957	2204.096521111403	0
3	959	2205.91081637071	0
3	960	2206.82696318344	0
3	962	2209.528222924243	0
3	963	2210.809815565745	0
3	965	2212.282576392703	0
3	967	2215.738187667887	1
3	969	2216.540206352545	2
3	970	2219.434759965024	2
3	972	2219.790560216916	2
3	973	2219.939239127264	2
3	974	2221.20625845245	1
3	978	2230.522651929404	0
3	980	2232.952055811601	0
3	982	2233.289927255512	1
3	983	2233.60955375094	1
3	984	2233.870287179186	0
3	986	2234.378659968128	0
3	988	2246.891927868613	1
3	989	2248.281808491385	1
3	991	2252.24765871453	1
3	993	2256.212029238043	2
3	994	2256.425154289067	2
3	996	2258.711853867551	2
3	997	2258.786131670297	2
3	998	2260.111604622275	1
3	999	2262.727235786144	0
3	1001	2263.520418659047	0
3	1005	2269.909411937569	0
3	1010	2291.641604036185	0
3	1012	2292.288336125078	1
3	1016	2298.267340255923	1
3	1018	2299.337709247451	1
3	1019	2299.617487030392	1
3	1020	2300.018625382831	0
3	1022	2301.157408505392	0
3	1023	2303.644811023231	0
3	1025	2310.542912566416	0
3	1027	2316.096112479992	1
3	1028	2316.568287059643	1
3	1029	2318.389888727785	0
3	1031	2324.857901397619	0
3	1032	2328.096019923145	0
3	1034	2329.828241345159	0
3	1035	2336.312040478739	0
3	1039	2336.636636448296	0
3	1043	2342.58296503385	1
3	1045	2344.407946736265	2
3	1047	2347.851559815224	3
3	1053	2357.336150668388	3
3	1054	2357.465662690445	2
3	1055	2361.47669755442	1
3	1056	2363.709553716193	0
3	1058	2363.887143678592	0
3	1059	2366.524404376919	0
3	1061	2368.453322025333	0
3	1062	2371.105754706454	0
3	1066	2384.92887531202	0
3	1068	2385.658399888301	0
3	1070	2392.242113020186	0
3	1071	2395.530637021929	0
3	1073	2402.905379266026	0
3	1074	2403.479108764478	0
3	1078	2414.704580193717	0
3	1080	2416.079366247579	1
3	1083	2418.726709731	2
3	1084	2421.85279294881	2
3	1086	2427.294030763727	2
3	1087	2433.367972182962	2
3	1088	2435.697197087202	1
3	1089	2436.958363705017	0
3	1091	2438.424958185678	0
3	1092	2438.909985360814	0
3	1100	2441.73512436978	0
3	1101	2444.411150918292	0
3	1103	2445.627055548079	0
3	1105	2448.642151641041	1
3	1114	2479.805499485109	2
3	1117	2489.270064040171	3
3	1121	2494.009934103584	4
4	166	360.138690488099	19
4	171	362.734274927039	20
4	174	363.103863235668	21
4	175	367.421943016039	22
4	182	382.372511027043	23
4	185	385.818977267277	24
4	186	385.883244024819	25
4	216	429.923603800835	26
4	228	464.958927525688	27
4	233	485.495294522357	28
4	250	516.172912707596	29
4	251	521.496180876491	30
4	267	581.589070323313	31
4	279	627.624639866673	32
4	292	664.025880350949	33
4	293	665.532675555135	34
4	298	670.339282425641	35
4	303	685.478918730851	36
4	304	688.519416840757	37
4	315	703.066371026725	38
4	353	823.437239562232	39
4	366	847.184218885538	40
4	369	850.723712882574	41
4	373	859.691235774893	42
4	378	869.164150503925	43
4	393	889.542456635156	44
4	394	889.687114301413	45
4	405	905.673182128565	46
4	410	919.038840095426	47
4	435	993.896004403444	48
4	440	1011.933768089239	49
4	447	1023.072329353127	50
4	455	1038.973157838571	51
4	462	1055.324040172034	52
4	477	1076.392658504693	53
4	480	1078.160077221403	54
4	481	1081.765753470186	55
4	496	1109.899897693022	56
4	523	1160.34906428833	57
4	528	1177.817538222202	58
4	529	1185.165685369696	59
4	541	1200.944203979699	60
4	544	1210.039172026771	61
4	547	1233.640781258991	62
4	573	1311.885050515803	63
4	581	1323.54590481708	64
4	582	1326.569223727431	65
4	585	1328.580536938254	66
4	597	1352.31144749975	67
4	622	1432.386931981144	68
4	635	1456.767908192368	69
4	670	1544.775817439871	70
4	675	1554.34032267904	71
4	681	1575.832625981763	72
4	692	1598.330034053025	73
4	693	1602.930786216324	74
4	696	1604.976337443527	75
4	705	1616.132910780547	76
4	708	1621.054850615507	77
4	716	1633.562373315231	78
4	731	1658.503133204528	79
4	736	1663.115064751857	80
4	737	1673.613355643942	81
4	738	1677.382684859961	82
4	739	1681.314642709338	83
4	745	1692.573561169801	84
4	750	1710.412097644708	85
4	763	1727.829860853963	86
4	768	1736.439675366234	87
4	789	1796.401270047858	88
4	804	1826.653836018586	89
4	813	1849.543821593839	90
4	824	1859.397344309926	91
4	825	1873.184617401441	92
4	835	1896.532571957922	93
4	836	1902.292340217413	94
4	845	1934.235641879346	95
4	846	1937.095217711966	96
4	855	1992.381494951233	97
4	878	2037.316916318286	98
4	885	2049.269935865892	99
4	886	2054.213753970077	100
4	896	2093.42033017435	101
4	902	2100.343403863845	102
4	903	2102.521683649449	103
4	909	2116.226596968712	104
4	920	2149.263407735311	105
4	933	2175.261981764611	106
4	940	2190.070639488407	107
4	977	2230.059004432873	108
4	1004	2265.801706320317	109
4	1008	2278.015819500141	110
4	1015	2295.188165911868	111
4	1048	2347.935202387097	112
4	1051	2355.753413928576	113
4	1052	2357.179711318358	114
4	1067	2385.383727293201	115
4	1081	2416.380033804116	116
4	1097	2440.952780025853	117
4	1098	2441.115269492052	118
4	1110	2463.024008037731	119
4	1115	2485.230198060791	120
4	1122	2497.679307451963	121
5	166	360.138690488099	17.68186430319
5	171	362.734274927039	11.852961754742
5	174	363.103863235668	2.285343700619
5	175	367.421943016039	5.890299707484
5	182	382.372511027043	10.463912041172
5	185	385.818977267277	8.88795911581
5	186	385.883244024819	4.746913957702
5	216	429.923603800835	0.85014749124
5	228	464.958927525688	6.742064467999
5	233	485.495294522357	0.455911138892
5	250	516.172912707596	11.953575393931
5	251	521.496180876491	8.074885079601
5	267	581.589070323313	16.019789873796
5	279	627.624639866673	1.152608737492
5	292	664.025880350949	29.689321882896
5	293	665.532675555135	27.339933251856
5	298	670.339282425641	26.308605157877
5	303	685.478918730851	41.333955522705
5	304	688.519416840757	18.899568414755
5	315	703.066371026725	9.656702050321
5	353	823.437239562232	14.126317644247
5	366	847.184218885538	19.803260529573
5	369	850.723712882574	15.983033333514
5	373	859.691235774893	1.52464098917
5	378	869.164150503925	7.223035001879
5	393	889.542456635156	5.886571213404
5	394	889.687114301413	2.174467075538
5	405	905.673182128565	1.767629591951
5	410	919.038840095426	11.55490242128
5	435	993.896004403444	3.482549400921
5	440	1011.933768089239	3.930085165801
5	447	1023.072329353127	2.654379645745
5	455	1038.973157838571	5.723778539757
5	462	1055.324040172034	1.853833464218
5	477	1076.392658504693	10.570673971217
5	480	1078.160077221403	5.545116765708
5	481	1081.765753470186	3.789177480239
5	496	1109.899897693022	5.041238677831
5	523	1160.34906428833	16.701380237115
5	528	1177.817538222202	18.582397177221
5	529	1185.165685369696	13.199223104463
5	541	1200.944203979699	4.257345285795
5	544	1210.039172026771	12.229720517662
5	547	1233.640781258991	32.32590424215
5	573	1311.885050515803	10.584941053114
5	581	1323.54590481708	6.848562862659
5	582	1326.569223727431	5.519793600115
5	585	1328.580536938254	1.340458633973
5	597	1352.31144749975	0.138990209064
5	622	1432.386931981144	12.626108156423
5	635	1456.767908192368	3.108261800418
5	670	1544.775817439871	5.702050672337
5	675	1554.34032267904	2.529053680143
5	681	1575.832625981763	1.152573984688
5	692	1598.330034053025	17.598502503577
5	693	1602.930786216324	19.14403441775
5	696	1604.976337443527	9.571094854776
5	705	1616.132910780547	1.708593540748
5	708	1621.054850615507	1.931702077119
5	716	1633.562373315231	4.716329139039
5	731	1658.503133204528	16.849644279009
5	736	1663.115064751857	16.886415567362
5	737	1673.613355643942	22.12146215501
5	738	1677.382684859961	20.93879903096
5	739	1681.314642709338	21.355646991148
5	745	1692.573561169801	6.054691465585
5	750	1710.412097644708	18.99918877793
5	763	1727.829860853963	5.002260579925
5	768	1736.439675366234	10.107964932888
5	789	1796.401270047858	29.008681825868
5	804	1826.653836018586	0.521325735254
5	813	1849.543821593839	12.311120928566
5	824	1859.397344309926	2.721093345899
5	825	1873.184617401441	15.804624080681
5	835	1896.532571957922	13.055712760666
5	836	1902.292340217413	16.889200684604
5	845	1934.235641879346	7.068307589674
5	846	1937.095217711966	8.236679866393
5	855	1992.381494951233	6.688571392104
5	878	2037.316916318286	2.188463983416
5	885	2049.269935865892	11.563291380871
5	886	2054.213753970077	10.740797117144
5	896	2093.42033017435	7.082639803678
5	902	2100.343403863845	2.797990328947
5	903	2102.521683649449	2.955579492165
5	909	2116.226596968712	0.906447374479
5	920	2149.263407735311	3.40924643906
5	933	2175.261981764611	9.58045234893
5	940	2190.070639488407	2.96138887151
5	977	2230.059004432873	8.604178917504
5	1004	2265.801706320317	1.564890728465
5	1008	2278.015819500141	6.141260823795
5	1015	2295.188165911868	2.109929439513
5	1048	2347.935202387097	11.439580546152
5	1051	2355.753413928576	18.405325523115
5	1052	2357.179711318358	4.925003690901
5	1067	2385.383727293201	13.203988942221
5	1081	2416.380033804116	1.84439591727
5	1097	2440.952780025853	1.586328897273
5	1098	2441.115269492052	0.542635908393
5	1110	2463.024008037731	10.322316888306
5	1115	2485.230198060791	29.456697408349
5	1122	2497.679307451963	19.631592968207
6	166	360.138690488099	9.257377315802
6	171	362.734274927039	1.91575539199
6	174	363.103863235668	1.572219927113
6	177	371.908598985871	0
6	182	382.372511027043	5.441492875576
6	185	385.818977267277	4.68264720016
6	215	429.073456309595	0
6	227	458.216863057689	0
6	232	485.039383383465	0
6	245	504.219337313665	0
6	250	516.172912707596	2.751616910706
6	262	565.569280449517	0
6	278	626.472031129181	0
6	281	634.336558468053	0
6	292	664.025880350949	25.83313804767
6	293	665.532675555135	21.501998287371
6	298	670.339282425641	26.194319217495
6	303	685.478918730851	15.859070304849
6	308	693.409668976404	0
6	346	809.310921917985	0
6	357	827.380958355965	0
6	366	847.184218885538	12.443539336478
6	372	858.166594785723	0
6	375	861.941115502046	0
6	390	883.655885421752	0
6	393	889.542456635156	2.029809409281
6	404	903.905552536614	0
6	407	907.483937674146	0
6	434	990.413455002523	0
6	439	1008.003682923438	0
6	446	1020.417949707382	0
6	452	1033.249379298814	0
6	461	1053.470206707816	0
6	470	1065.821984533476	0
6	477	1076.392658504693	3.777698048998
6	480	1078.160077221403	0.183501231456
6	495	1104.858659015191	0
6	512	1143.647684051215	0
6	523	1160.34906428833	1.113923243349
6	528	1177.817538222202	5.851075956969
6	538	1196.686858693904	0
6	541	1200.944203979699	3.13475247059
6	544	1210.039172026771	8.72429500993
6	572	1301.300109462689	0
6	578	1316.697341954421	0
6	581	1323.54590481708	2.496474689764
6	584	1327.240078304281	0
6	596	1352.172457290686	0
6	619	1419.760823824721	0
6	634	1453.65964639195	0
6	667	1539.073766767534	0
6	674	1551.811268998897	0
6	680	1574.680051997075	0
6	683	1580.731531549448	0
6	692	1598.330034053025	14.543282254451
6	693	1602.930786216324	7.525543627573
6	704	1614.424317239799	0
6	707	1619.123148538388	0
6	713	1628.846044176192	0
6	722	1641.653488925519	0
6	731	1658.503133204528	12.274484020033
6	736	1663.115064751857	11.623171262925
6	737	1673.613355643942	17.169469814941
6	738	1677.382684859961	17.423689141771
6	742	1686.518869704216	0
6	745	1692.573561169801	1.160652303023
6	760	1722.827600274038	0
6	763	1727.829860853963	1.498150420617
6	776	1767.39258822199	0
6	803	1826.132510283332	0
6	806	1837.232700665273	0
6	819	1856.676250964027	0
6	824	1859.397344309926	2.017350989166
6	830	1883.476859197256	0
6	835	1896.532571957922	11.129432425113
6	842	1927.167334289672	0
6	845	1934.235641879346	5.377104033773
6	854	1985.692923559129	0
6	877	2035.12845233487	0
6	882	2037.706644485021	0
6	885	2049.269935865892	5.796979012959
6	895	2086.337690370672	0
6	899	2097.545413534898	0
6	902	2100.343403863845	0.777299706561
6	908	2115.320149594233	0
6	919	2145.854161296251	0
6	928	2165.681529415681	0
6	937	2187.109250616897	0
6	976	2221.454825515369	0
6	1003	2264.236815591852	0
6	1007	2271.874558676346	0
6	1014	2293.078236472355	0
6	1037	2336.495621840945	0
6	1048	2347.935202387097	10.587113981636
6	1051	2355.753413928576	3.498706301119
6	1064	2372.17973835098	0
6	1076	2414.535637886846	0
6	1094	2439.36645112858	0
6	1097	2440.952780025853	0.380146442194
6	1107	2452.701691149425	0
6	1110	2463.024008037731	7.250507385289
6	1115	2485.230198060791	7.182483577035
6	1122	2497.679307451963	7.217615509181
7	175	367.421943016039	25.56723033904
7	186	385.883244024819	37.872556158926
7	187	386.432654874713	32.211846982642
7	190	390.522047978642	31.705369873783
7	193	392.090775080609	29.171890133186
7	194	394.149727544157	22.241128558286
7	195	399.822529111712	17.320081538059
7	198	402.992235049589	16.3002687976
7	203	415.416215417668	23.935893085646
7	206	417.9324624813	15.02067639809
7	207	420.779789668915	16.870305632716
7	210	423.287510598356	11.114205014222
7	213	427.144118936305	11.042006407063
7	216	429.923603800835	8.154001547334
7	217	430.355732906594	3.222778422544
7	218	433.162000857268	4.088544547673
7	221	433.849908919438	0
7	224	447.408489393891	0
7	230	481.918541865505	0
7	233	485.495294522357	0.455911138892
7	236	492.645323064696	0
7	239	498.41728786812	0
7	242	502.332707670279	1.667510348974
7	251	521.496180876491	8.418065129119
7	254	529.606159204226	0
7	257	547.383719825004	0
7	260	562.820335773616	0
7	267	581.589070323313	16.019789873796
7	268	585.658762986505	14.234147824455
7	269	591.464742729697	15.015857081647
7	272	599.143554045033	0
7	275	606.28963701956	0
7	304	688.519416840757	54.0713884564
7	305	688.975401517211	38.623196847141
7	306	690.883215434283	25.116794945708
7	315	703.066371026725	31.40527480697
7	316	704.730359249349	23.885758171867
7	317	708.170275336259	14.760606359855
7	318	710.395804815302	15.961807803702
7	323	720.915890619729	19.929920730394
7	324	721.951132671893	20.144934500608
7	325	727.195441243382	13.237079235646
7	326	727.657867680566	7.012125271503
7	329	731.319349388213	1.486356730695
7	332	735.531473481411	0
7	335	776.789953050879	0
7	338	779.614350689329	0
7	341	785.140662753362	0
7	344	804.919677685226	0
7	353	823.437239562232	14.126317644247
7	369	850.723712882574	37.618902443811
7	370	854.366474663555	41.059406924411
7	373	859.691235774893	41.382645931353
7	378	869.164150503925	44.862148311618
7	379	870.010115004452	42.629156648487
7	380	870.18335376961	33.318422632881
7	381	871.425283466225	34.074510327804
7	382	875.150096187289	31.823679032745
7	383	876.156172414107	25.943630595783
7	384	877.090805591562	18.924210805839
7	385	877.794857512931	15.853742010885
7	386	881.626561792312	19.370302530387
7	394	889.687114301413	7.856916371594
7	397	895.732474095258	12.076588673506
7	398	897.406315125562	3.552263474994
7	401	899.958968757134	2.028006431856
7	410	919.038840095426	8.971864072832
7	413	933.253107534893	0
7	416	941.657077362681	0
7	419	942.968278161708	0
7	422	946.440734773634	0
7	425	948.153764576261	0
7	428	965.521339741348	0
7	431	981.004076053121	0
7	437	1004.449375652978	0
7	440	1011.933768089239	3.930085165801
7	443	1015.38380414706	0
7	449	1024.553756365915	0
7	455	1038.973157838571	1.682450282267
7	458	1049.858783622759	0
7	464	1057.607896085531	0
7	467	1062.736495816988	1.334535834455
7	481	1081.765753470186	13.978198557311
7	482	1087.025562564362	18.772623350569
7	485	1091.914133013722	0.566355158055
7	488	1096.268931160359	0
7	491	1100.961170677705	0
7	496	1109.899897693022	5.335206883983
7	499	1113.209588083737	8.350929068546
7	500	1115.08380162565	3.015871278212
7	503	1119.099637767066	0
7	506	1130.957477577577	0
7	509	1138.78013148916	0
7	529	1185.165685369696	40.841813715557
7	530	1186.669762814945	38.219604826921
7	533	1191.623267621825	32.99605574165
7	534	1193.916975599989	34.585301174882
7	547	1233.640781258991	65.287085401027
7	548	1234.164786620278	45.973887813413
7	549	1236.651627450028	42.404218240265
7	554	1245.1475234824	48.460664788496
7	555	1245.277127343731	29.987713929573
7	556	1246.171943217987	6.139725904444
7	557	1246.266112077419	6.183606413126
7	560	1253.710917304745	0
7	563	1257.656246389821	0.362548825912
7	566	1283.813109435883	0
7	569	1291.389407764327	0
7	575	1313.569823988025	0
7	587	1346.167197587479	0
7	590	1351.280933525629	1.252209822336
7	593	1351.512135146458	0
7	599	1363.224814850181	0
7	602	1377.772949826415	0
7	605	1378.379669330629	0
7	608	1391.432326235966	0
7	611	1393.686084915507	0
7	614	1405.629567179376	0
7	617	1418.469175043072	0
7	622	1432.386931981144	12.626108156423
7	623	1436.508614297704	10.615414841166
7	626	1442.44838174882	2.611516915434
7	631	1450.927907081647	6.165493291147
7	632	1452.294076235328	4.030680159043
7	635	1456.767908192368	3.108261800418
7	638	1465.369118310634	0
7	641	1497.176956300586	0
7	646	1500.869620666796	2.907604493832
7	647	1504.580603003013	6.574858624095
7	650	1508.777151633738	0
7	653	1513.081014510385	0
7	656	1519.02434727888	0
7	659	1521.224361848015	0
7	664	1528.006115057038	6.584997317238
7	665	1533.047874965147	5.871542189228
7	670	1544.775817439871	5.702050672337
7	671	1544.917196104124	2.82198015974
7	677	1568.633061524487	0
7	696	1604.976337443527	18.719133030706
7	697	1605.689626385214	16.143971265403
7	698	1605.87847046018	1.954612063
7	701	1609.50799170604	0
7	710	1625.662992635075	0
7	716	1633.562373315231	1.641411395046
7	719	1635.677345328082	0
7	739	1681.314642709338	26.318539265035
7	740	1685.037939027693	21.947263046751
7	750	1710.412097644708	23.893227940492
7	751	1711.728979573144	7.041892496834
7	752	1712.441487092636	2.6711234401
7	755	1719.196312280829	2.930289453133
7	758	1722.821717707295	1.877892739865
7	768	1736.439675366234	13.612075092196
7	769	1740.274215982074	11.636491934678
7	772	1747.115703410467	15.478955806266
7	773	1747.494139554617	0.61540099882
7	789	1796.401270047858	28.715582885821
7	790	1798.396826245638	13.846584984707
7	791	1799.040331526729	14.199291668347
7	794	1802.155750550235	15.740507238415
7	795	1804.489858811783	14.873720902834
7	796	1805.958267011036	12.137920249383
7	797	1812.191695773733	11.764920456217
7	800	1812.403615179915	0.082059535006
7	813	1849.543821593839	9.038910804747
7	816	1854.42254975166	11.832387524125
7	817	1855.620415012034	7.625962482714
7	825	1873.184617401441	19.112674498511
7	826	1875.631097841409	18.954846877382
7	827	1877.941966384697	19.133438810368
7	836	1902.292340217413	8.276204378154
7	839	1915.429774557667	0
7	848	1967.183320475023	0
7	851	1979.625919561273	0
7	857	1993.509219006814	0
7	860	1999.590055984067	0.545183870098
7	863	2006.225192601021	0
7	866	2011.405938186384	0
7	869	2018.637309074694	0
7	872	2030.325865854542	0
7	875	2031.722122489175	0.679447539808
7	878	2037.316916318286	2.188463983416
7	886	2054.213753970077	16.614059841882
7	887	2055.783882039065	18.077237554044
7	890	2073.067371242433	0
7	893	2078.372861477825	0
7	896	2093.42033017435	7.082639803678
7	905	2109.343958797616	0
7	911	2123.437687074001	0
7	914	2138.579705603058	0
7	917	2143.511469465731	0
7	920	2149.263407735311	3.40924643906
7	923	2162.382812115029	0
7	926	2165.083364905917	1.99408120752
7	933	2175.261981764611	9.58045234893
7	934	2184.684686460602	16.497712555367
7	935	2185.59528974431	11.725368223526
7	940	2190.070639488407	2.96138887151
7	941	2192.925034624416	3.11337020988
7	944	2196.082281053651	0
7	949	2197.239165855768	0.978597727336
7	952	2199.553764029175	2.486916627725
7	953	2200.885502586844	1.986110161173
7	956	2203.672221669975	0
7	959	2205.91081637071	0
7	962	2209.528222924243	0
7	965	2212.282576392703	0
7	970	2219.434759965024	3.696572297137
7	973	2219.939239127264	3.399032774719
7	974	2221.20625845245	1.415698235534
7	977	2230.059004432873	8.604178917504
7	980	2232.952055811601	0
7	983	2233.60955375094	0.319626495428
7	986	2234.378659968128	0
7	989	2248.281808491385	1.389880622772
7	994	2256.425154289067	4.177495574537
7	997	2258.786131670297	2.574102432254
7	998	2260.111604622275	1.399750754724
7	1001	2263.520418659047	0
7	1004	2265.801706320317	1.564890728465
7	1010	2291.641604036185	0
7	1015	2295.188165911868	2.89982978679
7	1016	2298.267340255923	5.189103783568
7	1019	2299.617487030392	0.279777782941
7	1022	2301.157408505392	0
7	1025	2310.542912566416	0
7	1028	2316.568287059643	0.472174579651
7	1031	2324.857901397619	0
7	1034	2329.828241345159	0
7	1052	2357.179711318358	20.543074870062
7	1053	2357.336150668388	14.753185634538
7	1054	2357.465662690445	13.05771595418
7	1055	2361.47669755442	13.625137739196
7	1058	2363.887143678592	0
7	1061	2368.453322025333	0
7	1067	2385.383727293201	0.454851981181
7	1070	2392.242113020186	0
7	1073	2402.905379266026	0
7	1081	2416.380033804116	1.675453610399
7	1084	2421.85279294881	5.773426701231
7	1087	2433.367972182962	14.641262451962
7	1088	2435.697197087202	8.403166323475
7	1091	2438.424958185678	0
7	1100	2441.73512436978	0
7	1103	2445.627055548079	0
8	177	371.908598985871	5
8	215	429.073456309595	6
8	232	485.039383383465	7
8	262	565.569280449517	8
8	308	693.409668976404	9
8	346	809.310921917985	10
8	357	827.380958355965	11
8	372	858.166594785723	12
8	375	861.941115502046	13
8	390	883.655885421752	14
8	439	1008.003682923438	15
8	495	1104.858659015191	16
8	538	1196.686858693904	17
8	619	1419.760823824721	18
8	634	1453.65964639195	19
8	667	1539.073766767534	20
8	742	1686.518869704216	21
8	760	1722.827600274038	22
8	819	1856.676250964027	23
8	877	2035.12845233487	24
8	882	2037.706644485021	25
8	895	2086.337690370672	26
8	919	2145.854161296251	27
8	928	2165.681529415681	28
8	937	2187.109250616897	29
8	976	2221.454825515369	30
8	1003	2264.236815591852	31
8	1014	2293.078236472355	32
8	1107	2452.701691149425	33
9	187	386.432654874713	34
9	190	390.522047978642	35
9	193	392.090775080609	36
9	194	394.149727544157	37
9	195	399.822529111712	38
9	198	402.992235049589	39
9	203	415.416215417668	40
9	206	417.9324624813	41
9	207	420.779789668915	42
9	210	423.287510598356	43
9	213	427.144118936305	44
9	217	430.355732906594	45
9	218	433.162000857268	46
9	219	433.461914650969	47
9	222	435.574400953083	48
9	225	447.820171029931	49
9	234	489.865367164068	50
9	237	493.274989506011	51
9	242	502.332707670279	52
9	243	504.078532155337	53
9	252	529.0152513505	54
9	255	535.548405348558	55
9	258	549.957984131708	56
9	268	585.658762986505	57
9	269	591.464742729697	58
9	270	592.244669032907	59
9	273	604.176248146617	60
9	276	608.173293608823	61
9	305	688.975401517211	62
9	306	690.883215434283	63
9	316	704.730359249349	64
9	317	708.170275336259	65
9	318	710.395804815302	66
9	323	720.915890619729	67
9	324	721.951132671893	68
9	325	727.195441243382	69
9	326	727.657867680566	70
9	329	731.319349388213	71
9	330	731.495320307734	72
9	333	736.619879248628	73
9	336	778.786305860534	74
9	339	780.098735976317	75
9	342	786.235247579373	76
9	370	854.366474663555	77
9	379	870.010115004452	78
9	380	870.18335376961	79
9	381	871.425283466225	80
9	382	875.150096187289	81
9	383	876.156172414107	82
9	384	877.090805591562	83
9	385	877.794857512931	84
9	386	881.626561792312	85
9	397	895.732474095258	86
9	398	897.406315125562	87
9	401	899.958968757134	88
9	402	900.753974109085	89
9	411	920.488734864784	90
9	414	934.001749558821	91
9	417	942.03272617259	92
9	420	943.05457203692	93
9	423	947.544101027469	94
9	426	950.208618072795	95
9	429	972.186242228747	96
9	432	984.885576839577	97
9	441	1012.73930783716	98
9	444	1016.671011689797	99
9	450	1030.454809212176	100
9	456	1039.849918296855	101
9	459	1051.332300778608	102
9	467	1062.736495816988	103
9	468	1065.383556083364	104
9	482	1087.025562564362	105
9	485	1091.914133013722	106
9	486	1092.068213876803	107
9	489	1097.340793207421	108
9	499	1113.209588083737	109
9	500	1115.08380162565	110
9	501	1118.672539506235	111
9	504	1120.000952850171	112
9	507	1131.14444351465	113
9	510	1139.294702546681	114
9	530	1186.669762814945	115
9	533	1191.623267621825	116
9	534	1193.916975599989	117
9	548	1234.164786620278	118
9	549	1236.651627450028	119
9	554	1245.1475234824	120
9	555	1245.277127343731	121
9	556	1246.171943217987	122
9	557	1246.266112077419	123
9	558	1246.509753758162	124
9	563	1257.656246389821	125
9	564	1258.376239991566	126
9	567	1284.229390536189	127
9	570	1297.932193577726	128
9	576	1314.911809203051	129
9	590	1351.280933525629	130
9	591	1351.411972406367	131
9	594	1351.718277062022	132
9	600	1366.236722331682	133
9	603	1378.031707742005	134
9	606	1382.280978594316	135
9	609	1391.665020139121	136
9	612	1397.211996772362	137
9	615	1405.917972713833	138
9	623	1436.508614297704	139
9	626	1442.44838174882	140
9	631	1450.927907081647	141
9	632	1452.294076235328	142
9	636	1460.674201888376	143
9	639	1469.089942182364	144
9	646	1500.869620666796	145
9	647	1504.580603003013	146
9	648	1506.953938385975	147
9	651	1508.985301758769	148
9	654	1516.097942983402	149
9	657	1519.920930317153	150
9	664	1528.006115057038	151
9	665	1533.047874965147	152
9	671	1544.917196104124	153
9	672	1548.356957140908	154
9	678	1571.669873997553	155
9	697	1605.689626385214	156
9	698	1605.87847046018	157
9	699	1608.572839828644	158
9	702	1612.971958336601	159
9	711	1628.467943158073	160
9	717	1635.510694934339	161
9	720	1636.242545384578	162
9	740	1685.037939027693	163
9	751	1711.728979573144	164
9	752	1712.441487092636	165
9	755	1719.196312280829	166
9	758	1722.821717707295	167
9	769	1740.274215982074	168
9	772	1747.115703410467	169
9	773	1747.494139554617	170
9	774	1750.907282408285	171
9	790	1798.396826245638	172
9	791	1799.040331526729	173
9	794	1802.155750550235	174
9	795	1804.489858811783	175
9	796	1805.958267011036	176
9	797	1812.191695773733	177
9	800	1812.403615179915	178
9	801	1814.987475994133	179
9	816	1854.42254975166	180
9	817	1855.620415012034	181
9	826	1875.631097841409	182
9	827	1877.941966384697	183
9	828	1878.429421569481	184
9	837	1902.87629624293	185
9	840	1918.560211257258	186
9	849	1970.516862403719	187
9	852	1983.352286900274	188
9	860	1999.590055984067	189
9	861	2001.136867723153	190
9	864	2008.188848275648	191
9	867	2013.031732262116	192
9	870	2019.975280194411	193
9	875	2031.722122489175	194
9	887	2055.783882039065	195
9	888	2060.911341238824	196
9	891	2076.886576734478	197
9	897	2095.662289671616	198
9	906	2110.418866299603	199
9	912	2130.095029756985	200
9	915	2139.512075813528	201
9	921	2156.35301007427	202
9	926	2165.083364905917	203
9	934	2184.684686460602	204
9	935	2185.59528974431	205
9	941	2192.925034624416	206
9	942	2195.494673799446	207
9	949	2197.239165855768	208
9	952	2199.553764029175	209
9	953	2200.885502586844	210
9	954	2202.279060764658	211
9	957	2204.096521111403	212
9	960	2206.82696318344	213
9	963	2210.809815565745	214
9	970	2219.434759965024	215
9	973	2219.939239127264	216
9	974	2221.20625845245	217
9	978	2230.522651929404	218
9	983	2233.60955375094	219
9	984	2233.870287179186	220
9	989	2248.281808491385	221
9	994	2256.425154289067	222
9	997	2258.786131670297	223
9	998	2260.111604622275	224
9	999	2262.727235786144	225
9	1005	2269.909411937569	226
9	1016	2298.267340255923	227
9	1019	2299.617487030392	228
9	1020	2300.018625382831	229
9	1023	2303.644811023231	230
9	1028	2316.568287059643	231
9	1029	2318.389888727785	232
9	1032	2328.096019923145	233
9	1035	2336.312040478739	234
9	1053	2357.336150668388	235
9	1054	2357.465662690445	236
9	1055	2361.47669755442	237
9	1056	2363.709553716193	238
9	1059	2366.524404376919	239
9	1062	2371.105754706454	240
9	1068	2385.658399888301	241
9	1071	2395.530637021929	242
9	1074	2403.479108764478	243
9	1084	2421.85279294881	244
9	1087	2433.367972182962	245
9	1088	2435.697197087202	246
9	1089	2436.958363705017	247
9	1092	2438.909985360814	248
9	1101	2444.411150918292	249
10	187	386.432654874713	38.42196700882
10	190	390.522047978642	36.301240086571
10	193	392.090775080609	33.27409697575
10	194	394.149727544157	31.230842596734
10	195	399.822529111712	27.913930125841
10	198	402.992235049589	20.489787475936
10	203	415.416215417668	28.724249165679
10	206	417.9324624813	26.452140149278
10	207	420.779789668915	17.868003585705
10	210	423.287510598356	19.378026562157
10	213	427.144118936305	14.970813352171
10	217	430.355732906594	8.586130653093
10	218	433.162000857268	6.029046373218
10	219	433.461914650969	4.388458341374
10	222	435.574400953083	1.724492033645
10	225	447.820171029931	0.41168163604
10	234	489.865367164068	4.825983780603
10	237	493.274989506011	0.629666441315
10	242	502.332707670279	3.915419802159
10	243	504.078532155337	3.413334834032
10	252	529.0152513505	15.937135603128
10	255	535.548405348558	5.942246144332
10	258	549.957984131708	2.574264306704
10	268	585.658762986505	20.089482536988
10	269	591.464742729697	20.040127567647
10	270	592.244669032907	15.795783384857
10	273	604.176248146617	5.032694101584
10	276	608.173293608823	1.883656589263
10	305	688.975401517211	54.527373132854
10	306	690.883215434283	40.531010764213
10	316	704.730359249349	33.069263029594
10	317	708.170275336259	27.325674258777
10	318	710.395804815302	16.986135838898
10	323	720.915890619729	26.481893608129
10	324	721.951132671893	20.965162782558
10	325	727.195441243382	25.389243072097
10	326	727.657867680566	13.69950567283
10	329	731.319349388213	10.67360697915
10	330	731.495320307734	1.662327650216
10	333	736.619879248628	1.088405767217
10	336	778.786305860534	1.996352809655
10	339	780.098735976317	0.484385286988
10	342	786.235247579373	1.094584826011
10	370	854.366474663555	41.261664224792
10	379	870.010115004452	45.708112812145
10	380	870.18335376961	42.802395413645
10	381	871.425283466225	34.560352329496
10	382	875.150096187289	37.799323048868
10	383	876.156172414107	32.829755259563
10	384	877.090805591562	26.878263773238
10	385	877.794857512931	19.628262727208
10	386	881.626561792312	19.685446290266
10	397	895.732474095258	13.902276165439
10	398	897.406315125562	13.75042970381
10	401	899.958968757134	6.104917106566
10	402	900.753974109085	2.823011783807
10	411	920.488734864784	10.42175884219
10	414	934.001749558821	0.748642023928
10	417	942.03272617259	0.375648809909
10	420	943.05457203692	0.086293875212
10	423	947.544101027469	1.103366253835
10	426	950.208618072795	2.054853496534
10	429	972.186242228747	6.664902487399
10	432	984.885576839577	3.881500786456
10	441	1012.73930783716	4.735624913722
10	444	1016.671011689797	1.287207542737
10	450	1030.454809212176	5.901052846261
10	456	1039.849918296855	2.559210740551
10	459	1051.332300778608	1.473517155849
10	467	1062.736495816988	5.128599731457
10	468	1065.383556083364	3.981596100831
10	482	1087.025562564362	19.238007651487
10	485	1091.914133013722	23.661193799929
10	486	1092.068213876803	0.720436021136
10	489	1097.340793207421	1.071862047062
10	499	1113.209588083737	8.644897274698
10	500	1115.08380162565	10.225142610459
10	501	1118.672539506235	6.604609158797
10	504	1120.000952850171	0.901315083105
10	507	1131.14444351465	0.186965937073
10	510	1139.294702546681	0.514571057521
10	530	1186.669762814945	42.345891160806
10	533	1191.623267621825	43.173109633801
10	534	1193.916975599989	35.289763719814
10	548	1234.164786620278	65.811090762314
10	549	1236.651627450028	48.460728643163
10	554	1245.1475234824	50.900114272637
10	555	1245.277127343731	48.590268649827
10	556	1246.171943217987	30.882529803829
10	557	1246.266112077419	6.233894763876
10	558	1246.509753758162	6.427248093869
10	563	1257.656246389821	3.945329085076
10	564	1258.376239991566	1.082542427657
10	567	1284.229390536189	0.416281100306
10	570	1297.932193577726	6.542785813399
10	576	1314.911809203051	1.341985215026
10	590	1351.280933525629	5.11373593815
10	591	1351.411972406367	1.383248703074
10	594	1351.718277062022	0.206141915564
10	600	1366.236722331682	3.011907481501
10	603	1378.031707742005	0.25875791559
10	606	1382.280978594316	3.901309263687
10	609	1391.665020139121	0.232693903155
10	612	1397.211996772362	3.525911856855
10	615	1405.917972713833	0.288405534457
10	623	1436.508614297704	16.747790472983
10	626	1442.44838174882	16.555182292282
10	631	1450.927907081647	11.091042248261
10	632	1452.294076235328	7.531662444828
10	636	1460.674201888376	7.014555496426
10	639	1469.089942182364	3.72082387173
10	646	1500.869620666796	3.69266436621
10	647	1504.580603003013	6.618586830049
10	648	1506.953938385975	8.948194007057
10	651	1508.985301758769	0.208150125031
10	654	1516.097942983402	3.016928473017
10	657	1519.920930317153	0.896583038273
10	664	1528.006115057038	6.781753209023
10	665	1533.047874965147	11.626757225347
10	671	1544.917196104124	5.84342933659
10	672	1548.356957140908	6.261741196524
10	678	1571.669873997553	3.036812473066
10	697	1605.689626385214	19.432421972393
10	698	1605.87847046018	16.332815340369
10	699	1608.572839828644	4.648981431464
10	702	1612.971958336601	3.463966630561
10	711	1628.467943158073	2.804950522998
10	717	1635.510694934339	3.589733014154
10	720	1636.242545384578	0.565200056496
10	740	1685.037939027693	30.04183558339
10	751	1711.728979573144	25.210109868928
10	752	1712.441487092636	7.754400016326
10	755	1719.196312280829	9.425948628293
10	758	1722.821717707295	6.555694879599
10	769	1740.274215982074	17.446615708036
10	772	1747.115703410467	18.477979363071
10	773	1747.494139554617	15.857391950416
10	774	1750.907282408285	4.028543852488
10	790	1798.396826245638	30.711139083601
10	791	1799.040331526729	14.490090265798
10	794	1802.155750550235	17.314710691853
10	795	1804.489858811783	18.074615499963
10	796	1805.958267011036	16.342129102087
10	797	1812.191695773733	18.37134901208
10	800	1812.403615179915	11.976839862399
10	801	1814.987475994133	2.665920349224
10	816	1854.42254975166	13.917638962568
10	817	1855.620415012034	13.030252784499
10	826	1875.631097841409	21.559154938479
10	827	1877.941966384697	21.26571542067
10	828	1878.429421569481	19.620893995152
10	837	1902.87629624293	8.860160403671
10	840	1918.560211257258	3.130436699591
10	849	1970.516862403719	3.333541928696
10	852	1983.352286900274	3.726367339001
10	860	1999.590055984067	6.080836977253
10	861	2001.136867723153	2.091995609184
10	864	2008.188848275648	1.963655674627
10	867	2013.031732262116	1.625794075732
10	870	2019.975280194411	1.337971119717
10	875	2031.722122489175	1.396256634633
10	887	2055.783882039065	18.18418791087
10	888	2060.911341238824	23.204696753803
10	891	2076.886576734478	3.819205492045
10	897	2095.662289671616	9.324599300944
10	906	2110.418866299603	1.074907501987
10	912	2130.095029756985	6.657342682984
10	915	2139.512075813528	0.93237021047
10	921	2156.35301007427	10.498848778019
10	926	2165.083364905917	2.700552790888
10	934	2184.684686460602	19.003157044921
10	935	2185.59528974431	17.408315839075
10	941	2192.925034624416	5.815784007519
10	942	2195.494673799446	5.68300938491
10	949	2197.239165855768	1.156884802117
10	952	2199.553764029175	3.293195900743
10	953	2200.885502586844	3.818655185394
10	954	2202.279060764658	3.379668338987
10	957	2204.096521111403	0.424299441428
10	960	2206.82696318344	0.91614681273
10	963	2210.809815565745	1.281592641502
10	970	2219.434759965024	7.152183572321
10	973	2219.939239127264	4.201051459377
10	974	2221.20625845245	4.666052099905
10	978	2230.522651929404	9.067826414035
10	983	2233.60955375094	0.657497939339
10	984	2233.870287179186	0.580359923674
10	989	2248.281808491385	13.903148523257
10	994	2256.425154289067	9.533226420454
10	997	2258.786131670297	6.538472955767
10	998	2260.111604622275	3.899575384232
10	999	2262.727235786144	4.015381918593
10	1005	2269.909411937569	5.672596345717
10	1016	2298.267340255923	5.979004130845
10	1019	2299.617487030392	6.539250558037
10	1020	2300.018625382831	0.68091613538
10	1023	2303.644811023231	2.487402517839
10	1028	2316.568287059643	6.025374493227
10	1029	2318.389888727785	2.293776247793
10	1032	2328.096019923145	3.238118525526
10	1035	2336.312040478739	6.48379913358
10	1053	2357.336150668388	20.699514220092
10	1054	2357.465662690445	14.882697656595
10	1055	2361.47669755442	17.068750818155
10	1056	2363.709553716193	15.857993900969
10	1059	2366.524404376919	2.637260698327
10	1062	2371.105754706454	2.652432681121
10	1068	2385.658399888301	0.729524576281
10	1071	2395.530637021929	3.288524001743
10	1074	2403.479108764478	0.573729498452
10	1084	2421.85279294881	7.148212755093
10	1087	2433.367972182962	17.288605935383
10	1088	2435.697197087202	16.970487356202
10	1089	2436.958363705017	9.66433294129
10	1092	2438.909985360814	0.485027175136
10	1101	2444.411150918292	2.676026548512
11	1123	2500	0.0996
12	1123	2500	0.0484

