version 2
run experiments_easy_game_mode1-123-20230308-12:02:20-19015
attr configname experiments_easy_game_mode1
attr datetime 20230308-12:02:20
attr experiment experiments_easy_game_mode1
attr inifile omnetpp.ini
attr iterationvars "$0=5, $1=2, $2=0"
attr iterationvarsf 5,2,0-
attr measurement "$0=5, $1=2, $2=0"
attr network Network
attr processid 19015
attr repetition 3
attr replication #3
attr resultdir results
attr runnumber 123
attr seedset 3
param *.boss.arrival_mean 20
param *.boss.service_mean 5
param *.minion.arrival_mean 10
param *.minion.service_mean 2
param *.player.recover_rate_x 0
param **.minion.arrival_distribution 0
param **.minion.service_distribution 0
param **.boss.arrival_distribution 0
param **.boss.service_distribution 0

vector 0 Network.player boss_defeated_stat:vector ETV
attr source signal_boss_defeated
vector 1 Network.player boss_jobs_queue_number_stat:vector ETV
attr source signal_boss_jobs_queue_number
vector 2 Network.player boss_response_time_stat:vector ETV
attr source signal_boss_response_time
vector 3 Network.player minion_jobs_number_stat:vector ETV
attr source signal_minion_jobs_number
vector 4 Network.player minion_jobs_queue_number_stat:vector ETV
attr source signal_minion_jobs_queue_number
vector 5 Network.player minion_waiting_time_stat:vector ETV
attr source signal_minion_waiting_time
vector 6 Network.player minion_defeated_stat:vector ETV
attr source signal_minion_defeated
vector 7 Network.player minion_response_time_stat:vector ETV
attr source signal_minion_response_time
vector 8 Network.player boss_jobs_number_stat:vector ETV
attr source signal_boss_jobs_number
vector 9 Network.player minion_recovered_stat:vector ETV
attr source signal_minion_recovered
vector 10 Network.player boss_waiting_time_stat:vector ETV
attr source signal_boss_waiting_time
vector 11 Network.player minion_throughput:vector ETV
attr source signal_minion_throughput
vector 12 Network.player boss_throughput:vector ETV
attr source signal_boss_throughput
0	159	358.107273479916	20
0	170	393.142137598938	21
0	175	396.136870597222	22
0	180	405.884065810897	23
0	183	413.523305123723	24
0	190	431.844909070366	25
0	217	497.343256993037	26
0	224	507.382212517379	27
0	233	528.19901631415	28
0	240	536.426401311064	29
0	241	539.170689120828	30
0	242	540.352786707115	31
0	249	549.31791087091	32
0	273	590.587305307943	33
0	281	604.264168811277	34
0	287	607.75978927184	35
0	315	709.940418902726	36
0	318	730.611455563824	37
0	324	736.169017768325	38
0	331	765.471933565725	39
0	363	841.120621562639	40
0	379	912.400138828223	41
0	380	921.070329296056	42
0	381	923.40267452721	43
0	382	924.902489718161	44
0	389	932.048713594354	45
0	390	932.506008529326	46
0	397	943.608806084357	47
0	415	1007.393219531071	48
0	420	1016.824892510379	49
0	430	1030.144646736512	50
0	439	1049.008629362638	51
0	440	1050.302595504061	52
0	446	1061.27069184966	53
0	450	1066.440971221405	54
0	471	1087.72264610346	55
0	474	1092.878897783791	56
0	479	1095.535380731048	57
0	488	1122.435018186988	58
0	494	1131.760926742106	59
0	501	1138.276485444494	60
0	528	1177.111412501015	61
0	569	1258.763315349335	62
0	572	1262.621510660641	63
0	573	1267.119387464646	64
0	586	1291.819800142919	65
0	589	1300.424050904807	66
0	592	1302.68942004611	67
0	611	1346.956029982563	68
0	619	1368.398198680777	69
0	639	1410.956036587786	70
0	653	1438.794721704304	71
0	658	1447.557597908397	72
0	661	1450.28107705426	73
0	671	1475.627178880784	74
0	696	1567.355239229482	75
0	708	1590.169306669934	76
0	717	1602.705968613941	77
0	743	1682.926025715454	78
0	747	1689.025821270176	79
0	756	1716.958409134834	80
0	757	1717.373502854953	81
0	763	1726.009637465934	82
0	779	1745.940471826917	83
0	794	1786.052486653882	84
0	799	1788.702801689371	85
0	813	1801.74388705332	86
0	816	1807.692228606044	87
0	817	1808.587849645731	88
0	818	1808.735812301882	89
0	848	1921.227108893951	90
0	890	2055.969757055559	91
0	907	2081.841657001367	92
0	910	2082.811022487998	93
0	920	2116.313453100909	94
0	924	2121.232402132208	95
0	930	2144.213799444538	96
0	948	2174.405607522971	97
0	953	2178.030875226438	98
0	986	2237.714898474954	99
0	999	2261.251723799974	100
0	1012	2283.206722107264	101
0	1013	2285.284308520998	102
0	1016	2287.284949918914	103
0	1017	2288.49350327696	104
0	1020	2289.648916337172	105
0	1029	2300.831194536723	106
0	1032	2306.591991084725	107
0	1048	2315.209814775275	108
0	1092	2423.183564919779	109
0	1114	2459.034855035252	110
0	1117	2466.40580995597	111
0	1122	2468.470880738175	112
0	1125	2476.317149386508	113
1	159	358.107273479916	0
1	169	380.659473743649	0
1	170	393.142137598938	0
1	174	395.971694417465	0
1	175	396.136870597222	0
1	179	404.35044228479	0
1	180	405.884065810897	0
1	182	410.037356174797	0
1	183	413.523305123723	0
1	185	425.519679098172	0
1	190	431.844909070366	0
1	212	493.340900375065	0
1	214	493.458722537011	1
1	216	496.742594609582	2
1	217	497.343256993037	2
1	224	507.382212517379	1
1	228	519.107824800269	1
1	232	524.050395342014	2
1	233	528.19901631415	2
1	235	528.76545634016	2
1	239	535.742612840699	3
1	240	536.426401311064	3
1	241	539.170689120828	2
1	242	540.352786707115	1
1	249	549.31791087091	0
1	272	589.672238161967	0
1	273	590.587305307943	0
1	280	598.144708626378	0
1	281	604.264168811277	0
1	286	607.520627601297	0
1	287	607.75978927184	0
1	314	702.49001005566	0
1	315	709.940418902726	0
1	317	730.410353463151	0
1	318	730.611455563824	0
1	323	735.549137058382	0
1	324	736.169017768325	0
1	330	764.354773011734	0
1	331	765.471933565725	0
1	362	838.86047744023	0
1	363	841.120621562639	0
1	368	879.741882111558	0
1	370	882.113317559985	1
1	372	884.446492488943	2
1	374	888.24560307094	3
1	376	895.381730109802	4
1	379	912.400138828223	4
1	380	921.070329296056	3
1	381	923.40267452721	2
1	382	924.902489718161	1
1	384	927.517978306195	1
1	389	932.048713594354	1
1	390	932.506008529326	0
1	396	940.401529101434	0
1	397	943.608806084357	0
1	412	990.909014986853	0
1	415	1007.393219531071	0
1	419	1013.261047276616	0
1	420	1016.824892510379	0
1	425	1028.545887104851	0
1	430	1030.144646736512	0
1	436	1034.503025313914	0
1	438	1036.534772003394	1
1	439	1049.008629362638	1
1	440	1050.302595504061	0
1	443	1060.691130510771	0
1	446	1061.27069184966	0
1	449	1063.19383248497	0
1	450	1066.440971221405	0
1	470	1084.594332712561	0
1	471	1087.72264610346	0
1	473	1090.754167319039	0
1	474	1092.878897783791	0
1	476	1094.772215871149	0
1	479	1095.535380731048	0
1	485	1120.122180825996	0
1	488	1122.435018186988	0
1	491	1127.896198946203	0
1	493	1131.632484755457	1
1	494	1131.760926742106	1
1	501	1138.276485444494	0
1	527	1175.335185131008	0
1	528	1177.111412501015	0
1	566	1256.60543472736	0
1	568	1258.346007673972	1
1	569	1258.763315349335	1
1	571	1258.889412571991	1
1	572	1262.621510660641	1
1	573	1267.119387464646	0
1	581	1286.342301461403	0
1	583	1286.57494181929	1
1	585	1287.862513521532	2
1	586	1291.819800142919	2
1	589	1300.424050904807	1
1	592	1302.68942004611	0
1	610	1337.223720075614	0
1	611	1346.956029982563	0
1	616	1363.520401318974	0
1	619	1368.398198680777	0
1	638	1406.512882744487	0
1	639	1410.956036587786	0
1	650	1433.648475926042	0
1	652	1435.347326120521	1
1	653	1438.794721704304	1
1	657	1445.829455077947	1
1	658	1447.557597908397	1
1	661	1450.28107705426	0
1	668	1469.693661528508	0
1	671	1475.627178880784	0
1	695	1564.774017558306	0
1	696	1567.355239229482	0
1	707	1588.196429206383	0
1	708	1590.169306669934	0
1	716	1600.231040489507	0
1	717	1602.705968613941	0
1	740	1682.208424127058	0
1	743	1682.926025715454	0
1	746	1686.419845939918	0
1	747	1689.025821270176	0
1	749	1707.679710106683	0
1	755	1716.345476470025	1
1	756	1716.958409134834	1
1	757	1717.373502854953	0
1	760	1720.55581185757	0
1	763	1726.009637465934	0
1	778	1745.64792178764	0
1	779	1745.940471826917	0
1	791	1779.449199170603	0
1	794	1786.052486653882	0
1	798	1788.294956596051	0
1	799	1788.702801689371	0
1	806	1797.29918631301	0
1	810	1798.359156213276	1
1	812	1799.172771781991	2
1	813	1801.74388705332	2
1	815	1806.766350733902	2
1	816	1807.692228606044	2
1	817	1808.587849645731	1
1	818	1808.735812301882	0
1	845	1917.923427135827	0
1	848	1921.227108893951	0
1	889	2052.509094390919	0
1	890	2055.969757055559	0
1	906	2075.308674587472	0
1	907	2081.841657001367	0
1	909	2082.099549429316	0
1	910	2082.811022487998	0
1	917	2108.685862315649	0
1	920	2116.313453100909	0
1	923	2121.076209533676	0
1	924	2121.232402132208	0
1	929	2142.723683495446	0
1	930	2144.213799444538	0
1	947	2169.304437475917	0
1	948	2174.405607522971	0
1	952	2177.228225124877	0
1	953	2178.030875226438	0
1	983	2234.76196218177	0
1	986	2237.714898474954	0
1	998	2260.983183628547	0
1	999	2261.251723799974	0
1	1003	2264.84038493309	0
1	1007	2268.90144810621	1
1	1009	2273.677289607649	2
1	1012	2283.206722107264	2
1	1013	2285.284308520998	1
1	1015	2285.719432706355	1
1	1016	2287.284949918914	1
1	1017	2288.49350327696	0
1	1019	2288.561711981572	0
1	1020	2289.648916337172	0
1	1024	2293.558850252091	0
1	1028	2298.239937262922	1
1	1029	2300.831194536723	1
1	1032	2306.591991084725	0
1	1045	2312.094400186417	0
1	1048	2315.209814775275	0
1	1091	2421.021190455418	0
1	1092	2423.183564919779	0
1	1103	2446.030079873069	0
1	1107	2451.694476261001	1
1	1111	2455.678417661446	2
1	1113	2458.010288498061	3
1	1114	2459.034855035252	3
1	1117	2466.40580995597	2
1	1122	2468.470880738175	1
1	1125	2476.317149386508	0
2	159	358.107273479916	10.295428471319
2	170	393.142137598938	12.482663855289
2	175	396.136870597222	0.165176179757
2	180	405.884065810897	1.533623526107
2	183	413.523305123723	3.485948948926
2	190	431.844909070366	6.325229972194
2	217	497.343256993037	4.002356617972
2	224	507.382212517379	13.923489980368
2	233	528.19901631415	31.456421704568
2	240	536.426401311064	17.318576510795
2	241	539.170689120828	15.120293778814
2	242	540.352786707115	11.587330366955
2	249	549.31791087091	13.575298030211
2	273	590.587305307943	0.915067145976
2	281	604.264168811277	6.119460184899
2	287	607.75978927184	0.239161670543
2	315	709.940418902726	7.450408847066
2	318	730.611455563824	0.201102100673
2	324	736.169017768325	0.619880709943
2	331	765.471933565725	1.117160553991
2	363	841.120621562639	2.260144122409
2	379	912.400138828223	32.658256716665
2	380	921.070329296056	38.957011736071
2	381	923.40267452721	38.956182038267
2	382	924.902489718161	36.656886647221
2	389	932.048713594354	36.666983484552
2	390	932.506008529326	4.988030223131
2	397	943.608806084357	3.207276982923
2	415	1007.393219531071	16.484204544218
2	420	1016.824892510379	3.563845233763
2	430	1030.144646736512	1.598759631661
2	439	1049.008629362638	14.505604048724
2	440	1050.302595504061	13.767823500667
2	446	1061.27069184966	0.579561338889
2	450	1066.440971221405	3.247138736435
2	471	1087.72264610346	3.128313390899
2	474	1092.878897783791	2.124730464752
2	479	1095.535380731048	0.763164859899
2	488	1122.435018186988	2.312837360992
2	494	1131.760926742106	3.864727795903
2	501	1138.276485444494	6.644000689037
2	528	1177.111412501015	1.776227370007
2	569	1258.763315349335	2.157880621975
2	572	1262.621510660641	4.275502986669
2	573	1267.119387464646	8.229974892655
2	586	1291.819800142919	5.477498681516
2	589	1300.424050904807	13.849109085517
2	592	1302.68942004611	14.826906524578
2	611	1346.956029982563	9.732309906949
2	619	1368.398198680777	4.877797361803
2	639	1410.956036587786	4.443153843299
2	653	1438.794721704304	5.146245778262
2	658	1447.557597908397	12.210271787876
2	661	1450.28107705426	4.451621976313
2	671	1475.627178880784	5.933517352276
2	696	1567.355239229482	2.581221671176
2	708	1590.169306669934	1.972877463551
2	717	1602.705968613941	2.474928124434
2	743	1682.926025715454	0.717601588396
2	747	1689.025821270176	2.605975330258
2	756	1716.958409134834	9.278699028151
2	757	1717.373502854953	1.028026384928
2	763	1726.009637465934	5.453825608364
2	779	1745.940471826917	0.292550039277
2	794	1786.052486653882	6.603287483279
2	799	1788.702801689371	0.40784509332
2	813	1801.74388705332	4.44470074031
2	816	1807.692228606044	9.333072392768
2	817	1808.587849645731	9.41507786374
2	818	1808.735812301882	1.96946156798
2	848	1921.227108893951	3.303681758124
2	890	2055.969757055559	3.46066266464
2	907	2081.841657001367	6.532982413895
2	910	2082.811022487998	0.711473058682
2	920	2116.313453100909	7.62759078526
2	924	2121.232402132208	0.156192598532
2	930	2144.213799444538	1.490115949092
2	948	2174.405607522971	5.101170047054
2	953	2178.030875226438	0.802650101561
2	986	2237.714898474954	2.952936293184
2	999	2261.251723799974	0.268540171427
2	1012	2283.206722107264	18.366337174174
2	1013	2285.284308520998	16.382860414788
2	1016	2287.284949918914	13.607660311265
2	1017	2288.49350327696	2.774070570605
2	1020	2289.648916337172	1.0872043556
2	1029	2300.831194536723	7.272344284632
2	1032	2306.591991084725	8.352053821803
2	1048	2315.209814775275	3.115414588858
2	1092	2423.183564919779	2.162374464361
2	1114	2459.034855035252	13.004775162183
2	1117	2466.40580995597	14.711333694969
2	1122	2468.470880738175	12.792463076729
2	1125	2476.317149386508	18.306860888447
3	161	361.339663494602	1
3	164	367.9828784262	1
3	167	379.513301138535	1
3	172	394.129264259982	2
3	187	425.765741351908	1
3	189	427.517811650595	2
3	192	433.606808067719	3
3	197	448.069818965425	1
3	200	456.351270045832	1
3	202	456.561563782591	2
3	206	472.719413120029	1
3	208	474.172100886485	2
3	219	502.850351250119	1
3	221	504.086422382937	2
3	223	506.614196716074	3
3	226	510.323349281481	4
3	230	522.461553090038	5
3	237	533.592296136414	6
3	244	540.522669763452	7
3	246	546.894682894063	8
3	248	549.159432880295	9
3	260	566.096778961453	1
3	263	576.022142600914	1
3	266	579.441227499843	1
3	269	580.999566973229	1
3	275	594.209352549086	1
3	277	594.753402569665	2
3	284	606.880926727436	1
3	289	608.676596580058	2
3	293	612.645161330649	1
3	296	632.76123856948	1
3	299	636.83562207702	1
3	301	637.217093321776	2
3	305	675.410655830787	1
3	308	677.865079647084	1
3	311	687.662234629069	1
3	320	730.758287029875	1
3	326	760.778512054772	1
3	328	762.676109818951	2
3	335	777.263713199375	1
3	338	778.560288534075	1
3	341	795.990510267887	1
3	344	803.875283134171	1
3	347	809.094828093027	1
3	350	814.571875706268	1
3	353	820.574063313727	1
3	356	829.945582910592	1
3	359	835.06437174103	1
3	365	850.643575561551	1
3	378	903.906946611633	1
3	386	930.044493005324	2
3	388	931.999341308693	3
3	393	935.126957832346	3
3	401	967.986976557275	1
3	404	971.614401115977	1
3	407	977.048754828475	1
3	410	990.426205312561	1
3	414	995.943592048176	2
3	422	1022.382591948731	1
3	427	1028.602936522879	1
3	429	1028.810805650015	2
3	434	1033.490433093267	1
3	445	1061.002901677937	1
3	452	1067.267288635778	1
3	455	1075.724465931961	1
3	457	1076.082481560829	2
3	461	1077.735018370196	1
3	464	1078.615384691453	1
3	467	1081.67931445012	1
3	478	1094.866445323894	1
3	482	1111.881230236583	1
3	487	1121.992740047389	1
3	496	1134.933958298035	1
3	498	1135.217004455986	2
3	500	1135.363051972741	3
3	503	1138.932231129405	4
3	509	1144.787715153364	1
3	512	1147.283264483279	1
3	515	1155.69337419801	1
3	517	1156.259289260176	2
3	519	1163.204706882349	3
3	522	1170.612254816977	3
3	530	1186.949025027116	1
3	532	1192.333899696592	2
3	534	1197.613977193519	3
3	537	1198.108177697727	3
3	540	1198.606263427609	3
3	545	1207.102040070224	1
3	548	1215.572599614181	1
3	551	1231.844375578986	1
3	554	1234.910810938707	1
3	557	1236.116699961997	1
3	560	1247.942971155498	1
3	563	1251.188053035955	1
3	575	1275.249598754447	1
3	578	1285.512833833394	1
3	588	1294.031758144982	1
3	591	1300.819020909668	2
3	596	1310.93961002616	1
3	599	1318.003070602428	1
3	602	1326.696373353387	1
3	605	1332.884941883537	1
3	608	1336.650535836356	1
3	614	1359.16404557901	1
3	618	1366.636648785843	2
3	623	1375.945051716496	1
3	626	1386.322276825134	1
3	629	1395.569428066275	1
3	632	1398.224964158521	1
3	634	1404.092529556116	2
3	636	1404.723363852476	3
3	642	1411.263528282476	3
3	647	1420.224574092024	1
3	655	1442.157175674872	1
3	660	1450.186517457622	2
3	665	1452.524777592798	1
3	670	1471.364551841377	1
3	674	1500.292962552547	1
3	677	1514.628496105396	1
3	679	1515.391585098206	2
3	683	1520.075491215183	1
3	686	1529.117938344292	1
3	689	1536.955543686046	1
3	692	1537.272009496688	1
3	698	1568.170486611142	1
3	701	1579.114421679445	1
3	703	1580.500100178335	2
3	710	1590.644250055458	1
3	712	1590.825644943243	2
3	719	1610.664425130129	1
3	722	1618.936633049524	1
3	725	1647.347486492507	1
3	728	1651.645264029249	1
3	731	1657.544440275635	1
3	734	1667.875743443595	1
3	737	1678.961085905515	1
3	742	1682.270965130991	1
3	751	1708.084792584536	1
3	753	1713.623104352338	2
3	762	1723.283784264192	2
3	765	1728.055282631709	3
3	768	1731.950005401017	3
3	771	1733.335643327318	3
3	775	1737.184569819368	2
3	782	1746.430995735594	1
3	785	1749.876436639148	1
3	788	1750.623721910651	1
3	793	1782.186823052272	1
3	796	1786.678947997071	2
3	803	1791.887006369677	1
3	808	1797.950978938951	1
3	821	1827.242154249278	1
3	824	1850.542439783431	1
3	827	1870.004880988581	1
3	830	1873.144783037164	1
3	833	1884.822081319794	1
3	835	1885.778595246252	2
3	837	1885.811529056579	3
3	842	1897.708087929202	1
3	847	1920.744293764123	1
3	851	1932.417776871576	1
3	854	1957.658186564513	1
3	856	1958.145638604626	2
3	858	1958.20490747963	3
3	862	1962.041132941032	2
3	866	1972.339259434377	1
3	869	1996.972662773382	1
3	872	2001.837521535633	1
3	875	2022.651661072584	1
3	878	2031.708678368501	1
3	881	2039.16582307412	1
3	884	2048.602623725115	1
3	887	2051.296746386859	1
3	893	2060.450138024586	1
3	896	2061.864559880863	1
3	898	2065.608353002928	2
3	902	2073.528318068424	1
3	904	2074.252666708182	2
3	914	2094.944618720664	1
3	919	2111.075776948067	1
3	926	2121.523496411099	1
3	932	2145.763574788525	1
3	935	2151.397617746221	1
3	938	2153.562706682703	1
3	941	2158.8277209331	1
3	944	2161.192638793574	1
3	950	2176.623459025381	1
3	955	2181.362624258206	2
3	958	2184.414138255062	2
3	962	2189.569960956599	1
3	965	2192.862153177103	1
3	968	2214.505848794852	1
3	970	2214.739026256483	2
3	974	2216.997427399395	1
3	977	2228.158970210153	1
3	980	2233.589270654671	1
3	985	2235.134555999138	1
3	989	2245.5746372874	1
3	992	2246.434071313046	1
3	995	2253.60115613332	1
3	1001	2264.722149296945	1
3	1005	2268.784290434962	2
3	1011	2282.192260561595	3
3	1026	2297.26438804666	2
3	1031	2306.451312004043	3
3	1035	2307.906601523895	3
3	1037	2308.451575159593	4
3	1040	2310.57992847033	4
3	1047	2313.938378685859	2
3	1051	2319.089880690129	2
3	1055	2332.875221144699	1
3	1058	2348.332552859931	1
3	1061	2353.692697809273	1
3	1063	2356.62042384619	2
3	1065	2358.091024437805	3
3	1067	2359.250582496203	4
3	1073	2366.186839445675	1
3	1076	2392.876483049199	1
3	1078	2394.55395121754	2
3	1080	2395.905132468107	3
3	1083	2396.699003818489	3
3	1088	2405.987835363148	1
3	1094	2431.543350033688	1
3	1097	2434.969970675909	1
3	1100	2436.854714053433	1
3	1105	2446.703873746544	1
3	1109	2453.818389630889	2
3	1116	2464.591085000307	3
3	1119	2466.762044446235	4
3	1121	2467.46333134511	5
3	1124	2475.219092225462	6
3	1127	2479.611011255182	7
3	1136	2495.728823675633	1
3	1139	2499.804357768263	1
4	161	361.339663494602	0
4	162	362.852158795774	0
4	164	367.9828784262	0
4	165	368.837015651042	0
4	167	379.513301138535	0
4	172	394.129264259982	1
4	176	396.15578529349	1
4	177	402.175489443228	0
4	187	425.765741351908	0
4	189	427.517811650595	1
4	192	433.606808067719	2
4	193	433.751099123729	2
4	194	434.638473170746	1
4	195	435.036123349528	0
4	197	448.069818965425	0
4	198	454.025375061237	0
4	200	456.351270045832	0
4	202	456.561563782591	1
4	203	458.917797291117	1
4	204	459.409340090017	0
4	206	472.719413120029	0
4	208	474.172100886485	1
4	209	478.316672487321	1
4	210	479.086208143701	0
4	219	502.850351250119	0
4	221	504.086422382937	1
4	223	506.614196716074	2
4	226	510.323349281481	3
4	230	522.461553090038	4
4	237	533.592296136414	5
4	244	540.522669763452	6
4	246	546.894682894063	7
4	248	549.159432880295	8
4	250	550.863972553294	8
4	251	555.860500689615	7
4	252	557.130777537966	6
4	253	557.195624894527	5
4	254	559.154259195264	4
4	255	559.288857531684	3
4	256	561.629792646104	2
4	257	563.617373086936	1
4	258	564.298880755961	0
4	260	566.096778961453	0
4	261	570.236766785929	0
4	263	576.022142600914	0
4	264	576.130709835806	0
4	266	579.441227499843	0
4	267	579.458735367	0
4	269	580.999566973229	0
4	270	584.098796188248	0
4	275	594.209352549086	0
4	277	594.753402569665	1
4	278	596.954744900625	1
4	282	604.566642273813	0
4	284	606.880926727436	0
4	289	608.676596580058	1
4	290	610.47168378639	1
4	291	610.910065564699	0
4	293	612.645161330649	0
4	294	612.802636253952	0
4	296	632.76123856948	0
4	297	634.569982345629	0
4	299	636.83562207702	0
4	301	637.217093321776	1
4	302	638.972498386458	1
4	303	640.539007561063	0
4	305	675.410655830787	0
4	306	676.834346447533	0
4	308	677.865079647084	0
4	309	679.066183650534	0
4	311	687.662234629069	0
4	312	688.969639124957	0
4	320	730.758287029875	0
4	321	732.191442418726	0
4	326	760.778512054772	0
4	328	762.676109818951	1
4	332	767.678321778596	1
4	333	770.329928111975	0
4	335	777.263713199375	0
4	336	777.263737275605	0
4	338	778.560288534075	0
4	339	778.81222244819	0
4	341	795.990510267887	0
4	342	796.557833812615	0
4	344	803.875283134171	0
4	345	804.111783753261	0
4	347	809.094828093027	0
4	348	811.586034140332	0
4	350	814.571875706268	0
4	351	818.195577976953	0
4	353	820.574063313727	0
4	354	821.35891051617	0
4	356	829.945582910592	0
4	357	830.580369217515	0
4	359	835.06437174103	0
4	360	835.713053765379	0
4	365	850.643575561551	0
4	366	852.568837722203	0
4	378	903.906946611633	0
4	386	930.044493005324	1
4	388	931.999341308693	2
4	391	934.883818669766	2
4	393	935.126957832346	2
4	394	936.665352943346	2
4	398	945.929212140163	1
4	399	947.208610670415	0
4	401	967.986976557275	0
4	402	968.547663233731	0
4	404	971.614401115977	0
4	405	972.328376447628	0
4	407	977.048754828475	0
4	408	978.274050071565	0
4	410	990.426205312561	0
4	414	995.943592048176	1
4	416	1008.86626546687	1
4	417	1009.449626074519	0
4	422	1022.382591948731	0
4	423	1022.568856965378	0
4	427	1028.602936522879	0
4	429	1028.810805650015	1
4	431	1031.098568809876	1
4	432	1032.641300457816	0
4	434	1033.490433093267	0
4	441	1051.145408659178	0
4	445	1061.002901677937	0
4	447	1061.408812494901	0
4	452	1067.267288635778	0
4	453	1070.227433149956	0
4	455	1075.724465931961	0
4	457	1076.082481560829	1
4	458	1076.38087002507	1
4	459	1076.52153792071	0
4	461	1077.735018370196	0
4	462	1077.970770068707	0
4	464	1078.615384691453	0
4	465	1080.932651238312	0
4	467	1081.67931445012	0
4	468	1083.246426988747	0
4	478	1094.866445323894	0
4	480	1097.124678139172	0
4	482	1111.881230236583	0
4	483	1113.845698154497	0
4	487	1121.992740047389	0
4	489	1122.731985835648	0
4	496	1134.933958298035	0
4	498	1135.217004455986	1
4	500	1135.363051972741	2
4	503	1138.932231129405	3
4	504	1139.650423758171	3
4	505	1139.858376084439	2
4	506	1142.364492936265	1
4	507	1142.928049630693	0
4	509	1144.787715153364	0
4	510	1145.250036342256	0
4	512	1147.283264483279	0
4	513	1147.612510675491	0
4	515	1155.69337419801	0
4	517	1156.259289260176	1
4	519	1163.204706882349	2
4	520	1165.558094579007	2
4	522	1170.612254816977	2
4	523	1170.765325874683	2
4	524	1171.156673638866	1
4	525	1173.436198619927	0
4	530	1186.949025027116	0
4	532	1192.333899696592	1
4	534	1197.613977193519	2
4	535	1197.922958608934	2
4	537	1198.108177697727	2
4	538	1198.465681040663	2
4	540	1198.606263427609	2
4	541	1199.9911926183	2
4	542	1201.673954596291	1
4	543	1201.864439997051	0
4	545	1207.102040070224	0
4	546	1208.728750619892	0
4	548	1215.572599614181	0
4	549	1216.217159554105	0
4	551	1231.844375578986	0
4	552	1231.99541212792	0
4	554	1234.910810938707	0
4	555	1235.322287850108	0
4	557	1236.116699961997	0
4	558	1239.7782226009	0
4	560	1247.942971155498	0
4	561	1249.139770481406	0
4	563	1251.188053035955	0
4	564	1252.227514988802	0
4	575	1275.249598754447	0
4	576	1276.353087746622	0
4	578	1285.512833833394	0
4	579	1285.825839702181	0
4	588	1294.031758144982	0
4	591	1300.819020909668	1
4	593	1302.69524985102	1
4	594	1303.118964947657	0
4	596	1310.93961002616	0
4	597	1312.34139187251	0
4	599	1318.003070602428	0
4	600	1319.352271619116	0
4	602	1326.696373353387	0
4	603	1327.938005882084	0
4	605	1332.884941883537	0
4	606	1335.374700759906	0
4	608	1336.650535836356	0
4	612	1349.527357411	0
4	614	1359.16404557901	0
4	618	1366.636648785843	1
4	620	1372.433064819044	1
4	621	1372.45812804049	0
4	623	1375.945051716496	0
4	624	1380.100521663662	0
4	626	1386.322276825134	0
4	627	1389.078498553957	0
4	629	1395.569428066275	0
4	630	1396.951892817201	0
4	632	1398.224964158521	0
4	634	1404.092529556116	1
4	636	1404.723363852476	2
4	640	1411.181881322022	2
4	642	1411.263528282476	2
4	643	1411.602556259252	2
4	644	1412.62171553479	1
4	645	1417.510307988291	0
4	647	1420.224574092024	0
4	648	1420.513822138863	0
4	655	1442.157175674872	0
4	660	1450.186517457622	1
4	662	1451.189072949313	1
4	663	1451.588644988828	0
4	665	1452.524777592798	0
4	666	1453.038664052782	0
4	670	1471.364551841377	0
4	672	1475.687653996513	0
4	674	1500.292962552547	0
4	675	1504.411171827123	0
4	677	1514.628496105396	0
4	679	1515.391585098206	1
4	680	1515.646191832626	1
4	681	1515.939386555233	0
4	683	1520.075491215183	0
4	684	1520.440813792026	0
4	686	1529.117938344292	0
4	687	1529.657308769104	0
4	689	1536.955543686046	0
4	690	1537.037162010601	0
4	692	1537.272009496688	0
4	693	1539.08171847502	0
4	698	1568.170486611142	0
4	699	1574.82512981902	0
4	701	1579.114421679445	0
4	703	1580.500100178335	1
4	704	1580.774292783896	1
4	705	1581.661802513587	0
4	710	1590.644250055458	0
4	712	1590.825644943243	1
4	713	1597.02943545677	1
4	714	1597.084356865659	0
4	719	1610.664425130129	0
4	720	1611.87191335609	0
4	722	1618.936633049524	0
4	723	1620.513776390228	0
4	725	1647.347486492507	0
4	726	1647.623616820975	0
4	728	1651.645264029249	0
4	729	1654.648102288675	0
4	731	1657.544440275635	0
4	732	1660.40340922417	0
4	734	1667.875743443595	0
4	735	1669.544968973016	0
4	737	1678.961085905515	0
4	738	1679.411462374174	0
4	742	1682.270965130991	0
4	744	1684.118785112818	0
4	751	1708.084792584536	0
4	753	1713.623104352338	1
4	758	1717.760016772677	1
4	762	1723.283784264192	1
4	765	1728.055282631709	2
4	766	1731.273656533629	2
4	768	1731.950005401017	2
4	769	1732.423027112253	2
4	771	1733.335643327318	2
4	772	1733.915562451469	2
4	773	1734.747383807706	1
4	775	1737.184569819368	1
4	776	1739.085054784639	1
4	780	1746.215499199791	0
4	782	1746.430995735594	0
4	783	1748.429997934862	0
4	785	1749.876436639148	0
4	786	1750.185132229713	0
4	788	1750.623721910651	0
4	789	1750.860043246833	0
4	793	1782.186823052272	0
4	796	1786.678947997071	1
4	800	1789.84909271254	1
4	801	1791.329594822486	0
4	803	1791.887006369677	0
4	804	1794.100735720051	0
4	808	1797.950978938951	0
4	819	1809.226218839394	0
4	821	1827.242154249278	0
4	822	1827.473660496274	0
4	824	1850.542439783431	0
4	825	1851.637714517604	0
4	827	1870.004880988581	0
4	828	1870.189667650398	0
4	830	1873.144783037164	0
4	831	1875.137000283599	0
4	833	1884.822081319794	0
4	835	1885.778595246252	1
4	837	1885.811529056579	2
4	838	1891.612236019664	2
4	839	1892.56345400185	1
4	840	1892.995535400665	0
4	842	1897.708087929202	0
4	843	1897.751359342068	0
4	847	1920.744293764123	0
4	849	1921.398006935519	0
4	851	1932.417776871576	0
4	852	1940.118310316843	0
4	854	1957.658186564513	0
4	856	1958.145638604626	1
4	858	1958.20490747963	2
4	859	1958.285922990706	2
4	860	1961.127161579048	1
4	862	1962.041132941032	1
4	863	1963.227551805657	1
4	864	1963.290916768034	0
4	866	1972.339259434377	0
4	867	1973.922002514774	0
4	869	1996.972662773382	0
4	870	1998.766908613497	0
4	872	2001.837521535633	0
4	873	2004.223751093533	0
4	875	2022.651661072584	0
4	876	2024.401661695306	0
4	878	2031.708678368501	0
4	879	2038.307661377915	0
4	881	2039.16582307412	0
4	882	2042.715091591686	0
4	884	2048.602623725115	0
4	885	2049.253312766558	0
4	887	2051.296746386859	0
4	891	2057.430404937461	0
4	893	2060.450138024586	0
4	894	2060.982309168272	0
4	896	2061.864559880863	0
4	898	2065.608353002928	1
4	899	2066.678514464194	1
4	900	2070.415865315633	0
4	902	2073.528318068424	0
4	904	2074.252666708182	1
4	911	2084.107535114017	1
4	912	2084.357395879335	0
4	914	2094.944618720664	0
4	915	2095.954719614074	0
4	919	2111.075776948067	0
4	921	2118.648775380602	0
4	926	2121.523496411099	0
4	927	2122.329397033031	0
4	932	2145.763574788525	0
4	933	2146.09685227182	0
4	935	2151.397617746221	0
4	936	2152.540971149291	0
4	938	2153.562706682703	0
4	939	2154.018009422451	0
4	941	2158.8277209331	0
4	942	2159.429489627393	0
4	944	2161.192638793574	0
4	945	2161.332623155367	0
4	950	2176.623459025381	0
4	955	2181.362624258206	1
4	956	2182.351284474292	1
4	958	2184.414138255062	1
4	959	2185.119762996191	1
4	960	2185.590656562333	0
4	962	2189.569960956599	0
4	963	2189.967056500436	0
4	965	2192.862153177103	0
4	966	2193.611888181148	0
4	968	2214.505848794852	0
4	970	2214.739026256483	1
4	971	2214.771222493893	1
4	972	2215.241176764936	0
4	974	2216.997427399395	0
4	975	2217.506714608631	0
4	977	2228.158970210153	0
4	978	2229.720359640132	0
4	980	2233.589270654671	0
4	981	2234.244778109652	0
4	985	2235.134555999138	0
4	987	2238.603141286866	0
4	989	2245.5746372874	0
4	990	2245.643451119437	0
4	992	2246.434071313046	0
4	993	2250.994240699324	0
4	995	2253.60115613332	0
4	996	2254.188285977944	0
4	1001	2264.722149296945	0
4	1005	2268.784290434962	1
4	1011	2282.192260561595	2
4	1021	2291.859312440233	2
4	1022	2291.978750334566	1
4	1026	2297.26438804666	1
4	1031	2306.451312004043	2
4	1033	2306.767495470307	2
4	1035	2307.906601523895	2
4	1037	2308.451575159593	3
4	1038	2309.621053971207	3
4	1040	2310.57992847033	3
4	1041	2310.871151819366	3
4	1042	2311.383555879853	2
4	1043	2311.775868149186	1
4	1047	2313.938378685859	1
4	1049	2316.784007461175	1
4	1051	2319.089880690129	1
4	1052	2319.613454272178	1
4	1053	2324.480119642353	0
4	1055	2332.875221144699	0
4	1056	2342.392209699754	0
4	1058	2348.332552859931	0
4	1059	2349.892625448039	0
4	1061	2353.692697809273	0
4	1063	2356.62042384619	1
4	1065	2358.091024437805	2
4	1067	2359.250582496203	3
4	1068	2362.605505605065	3
4	1069	2363.542140009077	2
4	1070	2364.31250495914	1
4	1071	2364.339082008068	0
4	1073	2366.186839445675	0
4	1074	2373.302509477101	0
4	1076	2392.876483049199	0
4	1078	2394.55395121754	1
4	1080	2395.905132468107	2
4	1081	2396.412385651035	2
4	1083	2396.699003818489	2
4	1084	2399.175794178867	2
4	1085	2402.567546114296	1
4	1086	2402.611884949858	0
4	1088	2405.987835363148	0
4	1089	2406.153990235619	0
4	1094	2431.543350033688	0
4	1095	2431.712576249717	0
4	1097	2434.969970675909	0
4	1098	2435.346670772001	0
4	1100	2436.854714053433	0
4	1101	2437.903051708166	0
4	1105	2446.703873746544	0
4	1109	2453.818389630889	1
4	1116	2464.591085000307	2
4	1119	2466.762044446235	3
4	1121	2467.46333134511	4
4	1124	2475.219092225462	5
4	1127	2479.611011255182	6
4	1128	2479.959308037567	6
4	1129	2483.504415066864	5
4	1130	2485.165376483107	4
4	1131	2489.050709340284	3
4	1132	2489.911605191946	2
4	1133	2489.920306400537	1
4	1134	2490.23362095822	0
4	1136	2495.728823675633	0
4	1137	2496.245663578342	0
4	1139	2499.804357768263	0
5	161	361.339663494602	0
5	164	367.9828784262	0
5	167	379.513301138535	0
5	170	393.142137598938	12.482663855289
5	175	396.136870597222	2.00760633724
5	176	396.15578529349	0.184090876025
5	190	431.844909070366	6.079167718458
5	193	433.751099123729	6.233287473134
5	194	434.638473170746	1.031665103027
5	197	448.069818965425	0
5	200	456.351270045832	0
5	203	458.917797291117	2.356233508526
5	206	472.719413120029	0
5	209	478.316672487321	4.144571600836
5	249	549.31791087091	46.467559620791
5	250	550.863972553294	46.777550170357
5	251	555.860500689615	49.246303973541
5	252	557.130777537966	46.807428256485
5	253	557.195624894527	34.734071804489
5	254	559.154259195264	25.56196305885
5	255	559.288857531684	18.766187768232
5	256	561.629792646104	14.735109752041
5	257	563.617373086936	14.457940206641
5	260	566.096778961453	0
5	263	576.022142600914	0
5	266	579.441227499843	0
5	269	580.999566973229	0
5	275	594.209352549086	0
5	278	596.954744900625	2.20134233096
5	281	604.264168811277	6.119460184899
5	284	606.880926727436	0
5	287	607.75978927184	0.239161670543
5	290	610.47168378639	1.795087206332
5	293	612.645161330649	0
5	296	632.76123856948	0
5	299	636.83562207702	0
5	302	638.972498386458	1.755405064682
5	305	675.410655830787	0
5	308	677.865079647084	0
5	311	687.662234629069	0
5	320	730.758287029875	0
5	326	760.778512054772	0
5	331	765.471933565725	2.795823746774
5	332	767.678321778596	3.323548766862
5	335	777.263713199375	0
5	338	778.560288534075	0
5	341	795.990510267887	0
5	344	803.875283134171	0
5	347	809.094828093027	0
5	350	814.571875706268	0
5	353	820.574063313727	0
5	356	829.945582910592	0
5	359	835.06437174103	0
5	365	850.643575561551	0
5	390	932.506008529326	28.599061917693
5	391	934.883818669766	4.839325664442
5	394	936.665352943346	4.666011634653
5	397	943.608806084357	8.481848252011
5	398	945.929212140163	5.527683038729
5	401	967.986976557275	0
5	404	971.614401115977	0
5	407	977.048754828475	0
5	410	990.426205312561	0
5	415	1007.393219531071	16.484204544218
5	416	1008.86626546687	12.922673418694
5	422	1022.382591948731	0
5	430	1030.144646736512	1.541710213633
5	431	1031.098568809876	2.287763159861
5	434	1033.490433093267	0
5	440	1050.302595504061	15.799570190147
5	446	1061.27069184966	0.267790171723
5	452	1067.267288635778	0
5	455	1075.724465931961	0
5	458	1076.38087002507	0.298388464241
5	461	1077.735018370196	0
5	464	1078.615384691453	0
5	467	1081.67931445012	0
5	479	1095.535380731048	0.668935407154
5	482	1111.881230236583	0
5	488	1122.435018186988	0.442278139599
5	501	1138.276485444494	3.342527146459
5	504	1139.650423758171	4.433419302185
5	505	1139.858376084439	4.495324111698
5	506	1142.364492936265	3.43226180686
5	509	1144.787715153364	0
5	512	1147.283264483279	0
5	515	1155.69337419801	0
5	520	1165.558094579007	9.298805318831
5	523	1170.765325874683	7.560618992334
5	524	1171.156673638866	0.544418821889
5	530	1186.949025027116	0
5	535	1197.922958608934	5.589058912342
5	538	1198.465681040663	0.851703847144
5	541	1199.9911926183	1.883014920573
5	542	1201.673954596291	3.067691168682
5	545	1207.102040070224	0
5	548	1215.572599614181	0
5	551	1231.844375578986	0
5	554	1234.910810938707	0
5	557	1236.116699961997	0
5	560	1247.942971155498	0
5	563	1251.188053035955	0
5	575	1275.249598754447	0
5	578	1285.512833833394	0
5	592	1302.68942004611	8.657661901128
5	593	1302.69524985102	1.876228941352
5	596	1310.93961002616	0
5	599	1318.003070602428	0
5	602	1326.696373353387	0
5	605	1332.884941883537	0
5	608	1336.650535836356	0
5	611	1346.956029982563	9.732309906949
5	614	1359.16404557901	0
5	619	1368.398198680777	4.877797361803
5	620	1372.433064819044	5.796416033201
5	623	1375.945051716496	0
5	626	1386.322276825134	0
5	629	1395.569428066275	0
5	632	1398.224964158521	0
5	639	1410.956036587786	6.86350703167
5	640	1411.181881322022	6.458517469546
5	643	1411.602556259252	5.089673514765
5	644	1412.62171553479	1.358187252314
5	647	1420.224574092024	0
5	661	1450.28107705426	8.123901379388
5	662	1451.189072949313	1.002555491691
5	665	1452.524777592798	0
5	671	1475.627178880784	4.262627039407
5	674	1500.292962552547	0
5	677	1514.628496105396	0
5	680	1515.646191832626	0.25460673442
5	683	1520.075491215183	0
5	686	1529.117938344292	0
5	689	1536.955543686046	0
5	692	1537.272009496688	0
5	698	1568.170486611142	0
5	701	1579.114421679445	0
5	704	1580.774292783896	0.274192605561
5	710	1590.644250055458	0
5	713	1597.02943545677	6.203790513527
5	719	1610.664425130129	0
5	722	1618.936633049524	0
5	725	1647.347486492507	0
5	728	1651.645264029249	0
5	731	1657.544440275635	0
5	734	1667.875743443595	0
5	737	1678.961085905515	0
5	743	1682.926025715454	0.655060584463
5	757	1717.373502854953	9.288710270417
5	758	1717.760016772677	4.136912420339
5	763	1726.009637465934	5.453825608364
5	766	1731.273656533629	7.989872269437
5	769	1732.423027112253	4.367744480544
5	772	1733.915562451469	1.965557050452
5	773	1734.747383807706	1.411740480388
5	776	1739.085054784639	1.900484965271
5	779	1745.940471826917	0.292550039277
5	782	1746.430995735594	0
5	785	1749.876436639148	0
5	788	1750.623721910651	0
5	794	1786.052486653882	3.86566360161
5	799	1788.702801689371	2.0238536923
5	800	1789.84909271254	1.554136116489
5	803	1791.887006369677	0
5	818	1808.735812301882	10.784833362931
5	821	1827.242154249278	0
5	824	1850.542439783431	0
5	827	1870.004880988581	0
5	830	1873.144783037164	0
5	833	1884.822081319794	0
5	838	1891.612236019664	5.833640773412
5	839	1892.56345400185	6.751924945271
5	842	1897.708087929202	0
5	848	1921.227108893951	0.482815129828
5	851	1932.417776871576	0
5	854	1957.658186564513	0
5	859	1958.285922990706	0.14028438608
5	860	1961.127161579048	2.922254099418
5	863	1963.227551805657	1.186418864625
5	866	1972.339259434377	0
5	869	1996.972662773382	0
5	872	2001.837521535633	0
5	875	2022.651661072584	0
5	878	2031.708678368501	0
5	881	2039.16582307412	0
5	884	2048.602623725115	0
5	887	2051.296746386859	0
5	890	2055.969757055559	3.46066266464
5	893	2060.450138024586	0
5	896	2061.864559880863	0
5	899	2066.678514464194	1.070161461266
5	902	2073.528318068424	0
5	907	2081.841657001367	7.588990293185
5	910	2082.811022487998	7.502347900526
5	911	2084.107535114017	2.007985684701
5	914	2094.944618720664	0
5	920	2116.313453100909	5.237676152842
5	926	2121.523496411099	0
5	932	2145.763574788525	0
5	935	2151.397617746221	0
5	938	2153.562706682703	0
5	941	2158.8277209331	0
5	944	2161.192638793574	0
5	950	2176.623459025381	0
5	953	2178.030875226438	0.802650101561
5	956	2182.351284474292	0.988660216086
5	959	2185.119762996191	0.705624741129
5	962	2189.569960956599	0
5	965	2192.862153177103	0
5	968	2214.505848794852	0
5	971	2214.771222493893	0.03219623741
5	974	2216.997427399395	0
5	977	2228.158970210153	0
5	980	2233.589270654671	0
5	986	2237.714898474954	2.580342475816
5	989	2245.5746372874	0
5	992	2246.434071313046	0
5	995	2253.60115613332	0
5	1001	2264.722149296945	0
5	1017	2288.49350327696	23.65311834387
5	1020	2289.648916337172	20.86462590221
5	1021	2291.859312440233	9.667051878638
5	1022	2291.978750334566	3.417038352994
5	1032	2306.591991084725	13.033140832634
5	1033	2306.767495470307	9.503107423647
5	1038	2309.621053971207	3.169741967164
5	1041	2310.871151819366	2.964550295471
5	1042	2311.383555879853	2.93198072026
5	1043	2311.775868149186	1.195939678856
5	1048	2315.209814775275	3.115414588858
5	1049	2316.784007461175	2.845628775316
5	1052	2319.613454272178	0.523573582049
5	1055	2332.875221144699	0
5	1058	2348.332552859931	0
5	1061	2353.692697809273	0
5	1068	2362.605505605065	5.985081758875
5	1069	2363.542140009077	5.451115571272
5	1070	2364.31250495914	5.061922462937
5	1073	2366.186839445675	0
5	1076	2392.876483049199	0
5	1081	2396.412385651035	1.858434433495
5	1084	2399.175794178867	3.27066171076
5	1085	2402.567546114296	5.868542295807
5	1088	2405.987835363148	0
5	1094	2431.543350033688	0
5	1097	2434.969970675909	0
5	1100	2436.854714053433	0
5	1125	2476.317149386508	29.613275639964
5	1128	2479.959308037567	26.140918406678
5	1129	2483.504415066864	18.913330066557
5	1130	2485.165376483107	18.403332036872
5	1131	2489.050709340284	21.587377995174
5	1132	2489.911605191946	14.692512966484
5	1133	2489.920306400537	10.309295145355
5	1136	2495.728823675633	0
5	1139	2499.804357768263	0
6	162	362.852158795774	34
6	165	368.837015651042	35
6	176	396.15578529349	36
6	177	402.175489443228	37
6	193	433.751099123729	38
6	194	434.638473170746	39
6	195	435.036123349528	40
6	198	454.025375061237	41
6	203	458.917797291117	42
6	204	459.409340090017	43
6	209	478.316672487321	44
6	210	479.086208143701	45
6	250	550.863972553294	46
6	251	555.860500689615	47
6	252	557.130777537966	48
6	253	557.195624894527	49
6	254	559.154259195264	50
6	255	559.288857531684	51
6	256	561.629792646104	52
6	257	563.617373086936	53
6	258	564.298880755961	54
6	261	570.236766785929	55
6	264	576.130709835806	56
6	267	579.458735367	57
6	270	584.098796188248	58
6	278	596.954744900625	59
6	282	604.566642273813	60
6	290	610.47168378639	61
6	291	610.910065564699	62
6	294	612.802636253952	63
6	297	634.569982345629	64
6	302	638.972498386458	65
6	303	640.539007561063	66
6	306	676.834346447533	67
6	309	679.066183650534	68
6	312	688.969639124957	69
6	321	732.191442418726	70
6	332	767.678321778596	71
6	333	770.329928111975	72
6	336	777.263737275605	73
6	339	778.81222244819	74
6	342	796.557833812615	75
6	345	804.111783753261	76
6	348	811.586034140332	77
6	351	818.195577976953	78
6	354	821.35891051617	79
6	357	830.580369217515	80
6	360	835.713053765379	81
6	366	852.568837722203	82
6	391	934.883818669766	83
6	394	936.665352943346	84
6	398	945.929212140163	85
6	399	947.208610670415	86
6	402	968.547663233731	87
6	405	972.328376447628	88
6	408	978.274050071565	89
6	416	1008.86626546687	90
6	417	1009.449626074519	91
6	423	1022.568856965378	92
6	431	1031.098568809876	93
6	432	1032.641300457816	94
6	441	1051.145408659178	95
6	447	1061.408812494901	96
6	453	1070.227433149956	97
6	458	1076.38087002507	98
6	459	1076.52153792071	99
6	462	1077.970770068707	100
6	465	1080.932651238312	101
6	468	1083.246426988747	102
6	480	1097.124678139172	103
6	483	1113.845698154497	104
6	489	1122.731985835648	105
6	504	1139.650423758171	106
6	505	1139.858376084439	107
6	506	1142.364492936265	108
6	507	1142.928049630693	109
6	510	1145.250036342256	110
6	513	1147.612510675491	111
6	520	1165.558094579007	112
6	523	1170.765325874683	113
6	524	1171.156673638866	114
6	525	1173.436198619927	115
6	535	1197.922958608934	116
6	538	1198.465681040663	117
6	541	1199.9911926183	118
6	542	1201.673954596291	119
6	543	1201.864439997051	120
6	546	1208.728750619892	121
6	549	1216.217159554105	122
6	552	1231.99541212792	123
6	555	1235.322287850108	124
6	558	1239.7782226009	125
6	561	1249.139770481406	126
6	564	1252.227514988802	127
6	576	1276.353087746622	128
6	579	1285.825839702181	129
6	593	1302.69524985102	130
6	594	1303.118964947657	131
6	597	1312.34139187251	132
6	600	1319.352271619116	133
6	603	1327.938005882084	134
6	606	1335.374700759906	135
6	612	1349.527357411	136
6	620	1372.433064819044	137
6	621	1372.45812804049	138
6	624	1380.100521663662	139
6	627	1389.078498553957	140
6	630	1396.951892817201	141
6	640	1411.181881322022	142
6	643	1411.602556259252	143
6	644	1412.62171553479	144
6	645	1417.510307988291	145
6	648	1420.513822138863	146
6	662	1451.189072949313	147
6	663	1451.588644988828	148
6	666	1453.038664052782	149
6	672	1475.687653996513	150
6	675	1504.411171827123	151
6	680	1515.646191832626	152
6	681	1515.939386555233	153
6	684	1520.440813792026	154
6	687	1529.657308769104	155
6	690	1537.037162010601	156
6	693	1539.08171847502	157
6	699	1574.82512981902	158
6	704	1580.774292783896	159
6	705	1581.661802513587	160
6	713	1597.02943545677	161
6	714	1597.084356865659	162
6	720	1611.87191335609	163
6	723	1620.513776390228	164
6	726	1647.623616820975	165
6	729	1654.648102288675	166
6	732	1660.40340922417	167
6	735	1669.544968973016	168
6	738	1679.411462374174	169
6	744	1684.118785112818	170
6	758	1717.760016772677	171
6	766	1731.273656533629	172
6	769	1732.423027112253	173
6	772	1733.915562451469	174
6	773	1734.747383807706	175
6	776	1739.085054784639	176
6	780	1746.215499199791	177
6	783	1748.429997934862	178
6	786	1750.185132229713	179
6	789	1750.860043246833	180
6	800	1789.84909271254	181
6	801	1791.329594822486	182
6	804	1794.100735720051	183
6	819	1809.226218839394	184
6	822	1827.473660496274	185
6	825	1851.637714517604	186
6	828	1870.189667650398	187
6	831	1875.137000283599	188
6	838	1891.612236019664	189
6	839	1892.56345400185	190
6	840	1892.995535400665	191
6	843	1897.751359342068	192
6	849	1921.398006935519	193
6	852	1940.118310316843	194
6	859	1958.285922990706	195
6	860	1961.127161579048	196
6	863	1963.227551805657	197
6	864	1963.290916768034	198
6	867	1973.922002514774	199
6	870	1998.766908613497	200
6	873	2004.223751093533	201
6	876	2024.401661695306	202
6	879	2038.307661377915	203
6	882	2042.715091591686	204
6	885	2049.253312766558	205
6	891	2057.430404937461	206
6	894	2060.982309168272	207
6	899	2066.678514464194	208
6	900	2070.415865315633	209
6	911	2084.107535114017	210
6	912	2084.357395879335	211
6	915	2095.954719614074	212
6	921	2118.648775380602	213
6	927	2122.329397033031	214
6	933	2146.09685227182	215
6	936	2152.540971149291	216
6	939	2154.018009422451	217
6	942	2159.429489627393	218
6	945	2161.332623155367	219
6	956	2182.351284474292	220
6	959	2185.119762996191	221
6	960	2185.590656562333	222
6	963	2189.967056500436	223
6	966	2193.611888181148	224
6	971	2214.771222493893	225
6	972	2215.241176764936	226
6	975	2217.506714608631	227
6	978	2229.720359640132	228
6	981	2234.244778109652	229
6	987	2238.603141286866	230
6	990	2245.643451119437	231
6	993	2250.994240699324	232
6	996	2254.188285977944	233
6	1021	2291.859312440233	234
6	1022	2291.978750334566	235
6	1033	2306.767495470307	236
6	1038	2309.621053971207	237
6	1041	2310.871151819366	238
6	1042	2311.383555879853	239
6	1043	2311.775868149186	240
6	1049	2316.784007461175	241
6	1052	2319.613454272178	242
6	1053	2324.480119642353	243
6	1056	2342.392209699754	244
6	1059	2349.892625448039	245
6	1068	2362.605505605065	246
6	1069	2363.542140009077	247
6	1070	2364.31250495914	248
6	1071	2364.339082008068	249
6	1074	2373.302509477101	250
6	1081	2396.412385651035	251
6	1084	2399.175794178867	252
6	1085	2402.567546114296	253
6	1086	2402.611884949858	254
6	1089	2406.153990235619	255
6	1095	2431.712576249717	256
6	1098	2435.346670772001	257
6	1101	2437.903051708166	258
6	1128	2479.959308037567	259
6	1129	2483.504415066864	260
6	1130	2485.165376483107	261
6	1131	2489.050709340284	262
6	1132	2489.911605191946	263
6	1133	2489.920306400537	264
6	1134	2490.23362095822	265
6	1137	2496.245663578342	266
7	162	362.852158795774	1.512495301172
7	165	368.837015651042	0.854137224842
7	176	396.15578529349	2.026521033508
7	177	402.175489443228	6.203795025763
7	193	433.751099123729	7.985357771821
7	194	434.638473170746	7.120661520151
7	195	435.036123349528	1.429315281809
7	198	454.025375061237	5.955556095812
7	203	458.917797291117	2.566527245285
7	204	459.409340090017	2.847776307426
7	209	478.316672487321	5.597259367292
7	210	479.086208143701	4.914107257216
7	250	550.863972553294	48.013621303175
7	251	555.860500689615	51.774078306678
7	252	557.130777537966	50.516580821892
7	253	557.195624894527	46.872275613046
7	254	559.154259195264	36.692706105226
7	255	559.288857531684	25.69656139527
7	256	561.629792646104	21.107122882652
7	257	563.617373086936	16.722690192873
7	258	564.298880755961	15.139447875666
7	261	570.236766785929	4.139987824476
7	264	576.130709835806	0.108567234892
7	267	579.458735367	0.017507867157
7	270	584.098796188248	3.099229215019
7	278	596.954744900625	2.745392351539
7	282	604.566642273813	6.421933647435
7	290	610.47168378639	2.951056185093
7	291	610.910065564699	2.233468984641
7	294	612.802636253952	0.157474923303
7	297	634.569982345629	1.808743776149
7	302	638.972498386458	2.136876309438
7	303	640.539007561063	3.321914239287
7	306	676.834346447533	1.423690616746
7	309	679.066183650534	1.20110400345
7	312	688.969639124957	1.307404495888
7	321	732.191442418726	1.433155388851
7	332	767.678321778596	5.002211959645
7	333	770.329928111975	5.975155100241
7	336	777.263737275605	2.407623e-05
7	339	778.81222244819	0.251933914115
7	342	796.557833812615	0.567323544728
7	345	804.111783753261	0.23650061909
7	348	811.586034140332	2.491206047305
7	351	818.195577976953	3.623702270685
7	354	821.35891051617	0.784847202443
7	357	830.580369217515	0.634786306923
7	360	835.713053765379	0.648682024349
7	366	852.568837722203	1.925262160652
7	391	934.883818669766	30.976872058133
7	394	936.665352943346	6.620859938022
7	398	945.929212140163	10.802254307817
7	399	947.208610670415	6.807081568981
7	402	968.547663233731	0.560686676456
7	405	972.328376447628	0.713975331651
7	408	978.274050071565	1.22529524309
7	416	1008.86626546687	17.957250480017
7	417	1009.449626074519	13.506034026343
7	423	1022.568856965378	0.186265016647
7	431	1031.098568809876	2.495632286997
7	432	1032.641300457816	3.830494807801
7	441	1051.145408659178	16.642383345264
7	447	1061.408812494901	0.405910816964
7	453	1070.227433149956	2.960144514178
7	458	1076.38087002507	0.656404093109
7	459	1076.52153792071	0.439056359881
7	462	1077.970770068707	0.235751698511
7	465	1080.932651238312	2.317266546859
7	468	1083.246426988747	1.567112538627
7	480	1097.124678139172	2.258232815278
7	483	1113.845698154497	1.964467917914
7	489	1122.731985835648	0.739245788259
7	504	1139.650423758171	4.716465460136
7	505	1139.858376084439	4.641371628453
7	506	1142.364492936265	7.001440963524
7	507	1142.928049630693	3.995818501288
7	510	1145.250036342256	0.462321188892
7	513	1147.612510675491	0.329246192212
7	520	1165.558094579007	9.864720380997
7	523	1170.765325874683	14.506036614507
7	524	1171.156673638866	7.951966756517
7	525	1173.436198619927	2.82394380295
7	535	1197.922958608934	10.973933581818
7	538	1198.465681040663	6.131781344071
7	541	1199.9911926183	2.377215424781
7	542	1201.673954596291	3.565776898564
7	543	1201.864439997051	3.258176569442
7	546	1208.728750619892	1.626710549668
7	549	1216.217159554105	0.644559939924
7	552	1231.99541212792	0.151036548934
7	555	1235.322287850108	0.411476911401
7	558	1239.7782226009	3.661522638903
7	561	1249.139770481406	1.196799325908
7	564	1252.227514988802	1.039461952847
7	576	1276.353087746622	1.103488992175
7	579	1285.825839702181	0.313005868787
7	593	1302.69524985102	8.663491706038
7	594	1303.118964947657	2.299944037989
7	597	1312.34139187251	1.40178184635
7	600	1319.352271619116	1.349201016688
7	603	1327.938005882084	1.241632528697
7	606	1335.374700759906	2.489758876369
7	612	1349.527357411	12.303637335386
7	620	1372.433064819044	8.91266350007
7	621	1372.45812804049	5.821479254647
7	624	1380.100521663662	4.155469947166
7	627	1389.078498553957	2.756221728823
7	630	1396.951892817201	1.382464750926
7	640	1411.181881322022	7.089351765906
7	643	1411.602556259252	6.879192406776
7	644	1412.62171553479	6.108832790303
7	645	1417.510307988291	6.246779705815
7	648	1420.513822138863	0.289248046839
7	662	1451.189072949313	9.031897274441
7	663	1451.588644988828	1.402127531206
7	666	1453.038664052782	0.513886459984
7	672	1475.687653996513	4.323102155136
7	675	1504.411171827123	4.118209274576
7	680	1515.646191832626	1.01769572723
7	681	1515.939386555233	0.547801457027
7	684	1520.440813792026	0.365322576843
7	687	1529.657308769104	0.539370424812
7	690	1537.037162010601	0.081618324555
7	693	1539.08171847502	1.809708978332
7	699	1574.82512981902	6.654643207878
7	704	1580.774292783896	1.659871104451
7	705	1581.661802513587	1.161702335252
7	713	1597.02943545677	6.385185401312
7	714	1597.084356865659	6.258711922416
7	720	1611.87191335609	1.207488225961
7	723	1620.513776390228	1.577143340704
7	726	1647.623616820975	0.276130328468
7	729	1654.648102288675	3.002838259426
7	732	1660.40340922417	2.858968948535
7	735	1669.544968973016	1.669225529421
7	738	1679.411462374174	0.450376468659
7	744	1684.118785112818	1.847819981827
7	758	1717.760016772677	9.675224188141
7	766	1731.273656533629	10.717844676059
7	769	1732.423027112253	9.139242848061
7	772	1733.915562451469	5.86027981976
7	773	1734.747383807706	2.797378406689
7	776	1739.085054784639	5.749411457321
7	780	1746.215499199791	0.567577412151
7	783	1748.429997934862	1.999002199268
7	786	1750.185132229713	0.308695590565
7	789	1750.860043246833	0.236321336182
7	800	1789.84909271254	3.170144715469
7	801	1791.329594822486	3.034638226435
7	804	1794.100735720051	2.213729350374
7	819	1809.226218839394	11.275239900443
7	822	1827.473660496274	0.231506246996
7	825	1851.637714517604	1.095274734173
7	828	1870.189667650398	0.184786661817
7	831	1875.137000283599	1.992217246435
7	838	1891.612236019664	6.79015469987
7	839	1892.56345400185	6.784858755598
7	840	1892.995535400665	7.184006344086
7	843	1897.751359342068	0.043271412866
7	849	1921.398006935519	0.653713171396
7	852	1940.118310316843	7.700533445267
7	859	1958.285922990706	0.627736426193
7	860	1961.127161579048	2.981522974422
7	863	1963.227551805657	5.022644326027
7	864	1963.290916768034	1.249783827002
7	867	1973.922002514774	1.582743080397
7	870	1998.766908613497	1.794245840115
7	873	2004.223751093533	2.3862295579
7	876	2024.401661695306	1.750000622722
7	879	2038.307661377915	6.598983009414
7	882	2042.715091591686	3.549268517566
7	885	2049.253312766558	0.650689041443
7	891	2057.430404937461	4.921310546542
7	894	2060.982309168272	0.532171143686
7	899	2066.678514464194	4.813954583331
7	900	2070.415865315633	4.807512312705
7	911	2084.107535114017	8.798860526545
7	912	2084.357395879335	2.257846450019
7	915	2095.954719614074	1.01010089341
7	921	2118.648775380602	7.572998432535
7	927	2122.329397033031	0.805900621932
7	933	2146.09685227182	0.333277483295
7	936	2152.540971149291	1.14335340307
7	939	2154.018009422451	0.455302739748
7	942	2159.429489627393	0.601768694293
7	945	2161.332623155367	0.139984361793
7	956	2182.351284474292	5.123059349415
7	959	2185.119762996191	3.757138737985
7	960	2185.590656562333	1.176518307271
7	963	2189.967056500436	0.397095543837
7	966	2193.611888181148	0.749735004045
7	971	2214.771222493893	0.265373699041
7	972	2215.241176764936	0.502150508453
7	975	2217.506714608631	0.509287209236
7	978	2229.720359640132	1.561389429979
7	981	2234.244778109652	0.655507454981
7	987	2238.603141286866	3.468585287728
7	990	2245.643451119437	0.068813832037
7	993	2250.994240699324	4.560169386278
7	996	2254.188285977944	0.587129844624
7	1021	2291.859312440233	23.075022005271
7	1022	2291.978750334566	9.786489772971
7	1033	2306.767495470307	13.208645218216
7	1038	2309.621053971207	12.356665924547
7	1041	2310.871151819366	4.419839815323
7	1042	2311.383555879853	3.476954355958
7	1043	2311.775868149186	3.324292989593
7	1049	2316.784007461175	4.689607274758
7	1052	2319.613454272178	5.675075586319
7	1053	2324.480119642353	5.390238952224
7	1056	2342.392209699754	9.516988555055
7	1059	2349.892625448039	1.560072588108
7	1068	2362.605505605065	8.912807795792
7	1069	2363.542140009077	6.921716162887
7	1070	2364.31250495914	6.221480521335
7	1071	2364.339082008068	5.088499511865
7	1074	2373.302509477101	7.115670031426
7	1081	2396.412385651035	3.535902601836
7	1084	2399.175794178867	4.621842961327
7	1085	2402.567546114296	6.662413646189
7	1086	2402.611884949858	5.912881131369
7	1089	2406.153990235619	0.166154872471
7	1095	2431.712576249717	0.169226216029
7	1098	2435.346670772001	0.376700096092
7	1101	2437.903051708166	1.048337654733
7	1128	2479.959308037567	33.255434291023
7	1129	2483.504415066864	29.686025435975
7	1130	2485.165376483107	20.5742914828
7	1131	2489.050709340284	22.288664894049
7	1132	2489.911605191946	22.448273846836
7	1133	2489.920306400537	14.701214175075
7	1134	2490.23362095822	10.622609703038
7	1137	2496.245663578342	0.516839902709
8	169	380.659473743649	1
8	174	395.971694417465	1
8	179	404.35044228479	1
8	182	410.037356174797	1
8	185	425.519679098172	1
8	212	493.340900375065	1
8	214	493.458722537011	2
8	216	496.742594609582	3
8	228	519.107824800269	2
8	232	524.050395342014	3
8	235	528.76545634016	3
8	239	535.742612840699	4
8	272	589.672238161967	1
8	280	598.144708626378	1
8	286	607.520627601297	1
8	314	702.49001005566	1
8	317	730.410353463151	1
8	323	735.549137058382	1
8	330	764.354773011734	1
8	362	838.86047744023	1
8	368	879.741882111558	1
8	370	882.113317559985	2
8	372	884.446492488943	3
8	374	888.24560307094	4
8	376	895.381730109802	5
8	384	927.517978306195	2
8	396	940.401529101434	1
8	412	990.909014986853	1
8	419	1013.261047276616	1
8	425	1028.545887104851	1
8	436	1034.503025313914	1
8	438	1036.534772003394	2
8	443	1060.691130510771	1
8	449	1063.19383248497	1
8	470	1084.594332712561	1
8	473	1090.754167319039	1
8	476	1094.772215871149	1
8	485	1120.122180825996	1
8	491	1127.896198946203	1
8	493	1131.632484755457	2
8	527	1175.335185131008	1
8	566	1256.60543472736	1
8	568	1258.346007673972	2
8	571	1258.889412571991	2
8	581	1286.342301461403	1
8	583	1286.57494181929	2
8	585	1287.862513521532	3
8	610	1337.223720075614	1
8	616	1363.520401318974	1
8	638	1406.512882744487	1
8	650	1433.648475926042	1
8	652	1435.347326120521	2
8	657	1445.829455077947	2
8	668	1469.693661528508	1
8	695	1564.774017558306	1
8	707	1588.196429206383	1
8	716	1600.231040489507	1
8	740	1682.208424127058	1
8	746	1686.419845939918	1
8	749	1707.679710106683	1
8	755	1716.345476470025	2
8	760	1720.55581185757	1
8	778	1745.64792178764	1
8	791	1779.449199170603	1
8	798	1788.294956596051	1
8	806	1797.29918631301	1
8	810	1798.359156213276	2
8	812	1799.172771781991	3
8	815	1806.766350733902	3
8	845	1917.923427135827	1
8	889	2052.509094390919	1
8	906	2075.308674587472	1
8	909	2082.099549429316	1
8	917	2108.685862315649	1
8	923	2121.076209533676	1
8	929	2142.723683495446	1
8	947	2169.304437475917	1
8	952	2177.228225124877	1
8	983	2234.76196218177	1
8	998	2260.983183628547	1
8	1003	2264.84038493309	1
8	1007	2268.90144810621	2
8	1009	2273.677289607649	3
8	1015	2285.719432706355	2
8	1019	2288.561711981572	1
8	1024	2293.558850252091	1
8	1028	2298.239937262922	2
8	1045	2312.094400186417	1
8	1091	2421.021190455418	1
8	1103	2446.030079873069	1
8	1107	2451.694476261001	2
8	1111	2455.678417661446	3
8	1113	2458.010288498061	4
9	169	380.659473743649	4
9	174	395.971694417465	5
9	280	598.144708626378	6
9	286	607.520627601297	7
9	330	764.354773011734	8
9	396	940.401529101434	9
9	412	990.909014986853	10
9	436	1034.503025313914	11
9	610	1337.223720075614	12
9	616	1363.520401318974	13
9	638	1406.512882744487	14
9	760	1720.55581185757	15
9	778	1745.64792178764	16
9	798	1788.294956596051	17
9	889	2052.509094390919	18
9	906	2075.308674587472	19
9	909	2082.099549429316	20
9	952	2177.228225124877	21
9	1003	2264.84038493309	22
9	1019	2288.561711981572	23
9	1024	2293.558850252091	24
9	1045	2312.094400186417	25
10	169	380.659473743649	0
10	174	395.971694417465	0
10	179	404.35044228479	0
10	182	410.037356174797	0
10	185	425.519679098172	0
10	212	493.340900375065	0
10	217	497.343256993037	3.884534456026
10	224	507.382212517379	10.639617907797
10	233	528.19901631415	9.091191513881
10	240	536.426401311064	12.37600596905
10	241	539.170689120828	10.405232780668
10	242	540.352786707115	4.610173866416
10	272	589.672238161967	0
10	280	598.144708626378	0
10	286	607.520627601297	0
10	314	702.49001005566	0
10	317	730.410353463151	0
10	323	735.549137058382	0
10	330	764.354773011734	0
10	362	838.86047744023	0
10	368	879.741882111558	0
10	379	912.400138828223	30.286821268238
10	380	921.070329296056	36.623836807113
10	381	923.40267452721	35.15707145627
10	382	924.902489718161	29.520759608359
10	389	932.048713594354	4.530735288159
10	396	940.401529101434	0
10	412	990.909014986853	0
10	419	1013.261047276616	0
10	425	1028.545887104851	0
10	436	1034.503025313914	0
10	439	1049.008629362638	12.473857359244
10	443	1060.691130510771	0
10	449	1063.19383248497	0
10	470	1084.594332712561	0
10	473	1090.754167319039	0
10	476	1094.772215871149	0
10	485	1120.122180825996	0
10	491	1127.896198946203	0
10	494	1131.760926742106	0.128441986649
10	527	1175.335185131008	0
10	566	1256.60543472736	0
10	569	1258.763315349335	0.417307675363
10	572	1262.621510660641	3.73209808865
10	581	1286.342301461403	0
10	586	1291.819800142919	5.244858323629
10	589	1300.424050904807	12.561537383275
10	610	1337.223720075614	0
10	616	1363.520401318974	0
10	638	1406.512882744487	0
10	650	1433.648475926042	0
10	653	1438.794721704304	3.447395583783
10	658	1447.557597908397	1.72814283045
10	668	1469.693661528508	0
10	695	1564.774017558306	0
10	707	1588.196429206383	0
10	716	1600.231040489507	0
10	740	1682.208424127058	0
10	746	1686.419845939918	0
10	749	1707.679710106683	0
10	756	1716.958409134834	0.612932664809
10	760	1720.55581185757	0
10	778	1745.64792178764	0
10	791	1779.449199170603	0
10	798	1788.294956596051	0
10	806	1797.29918631301	0
10	813	1801.74388705332	3.384730840044
10	816	1807.692228606044	8.519456824053
10	817	1808.587849645731	1.821498911829
10	845	1917.923427135827	0
10	889	2052.509094390919	0
10	906	2075.308674587472	0
10	909	2082.099549429316	0
10	917	2108.685862315649	0
10	923	2121.076209533676	0
10	929	2142.723683495446	0
10	947	2169.304437475917	0
10	952	2177.228225124877	0
10	983	2234.76196218177	0
10	998	2260.983183628547	0
10	1003	2264.84038493309	0
10	1012	2283.206722107264	14.305274001054
10	1013	2285.284308520998	11.607018913349
10	1016	2287.284949918914	1.565517212559
10	1019	2288.561711981572	0
10	1024	2293.558850252091	0
10	1029	2300.831194536723	2.591257273801
10	1045	2312.094400186417	0
10	1091	2421.021190455418	0
10	1103	2446.030079873069	0
10	1114	2459.034855035252	7.340378774251
10	1117	2466.40580995597	10.727392294524
10	1122	2468.470880738175	10.460592240114
11	1140	2500	0.1064
12	1140	2500	0.0452

