version 2
run experiments_easy_game_mode1-1224-20230308-12:06:16-24905
attr configname experiments_easy_game_mode1
attr datetime 20230308-12:06:16
attr experiment experiments_easy_game_mode1
attr inifile omnetpp.ini
attr iterationvars "$0=6.5, $1=2, $2=0"
attr iterationvarsf 6.5,2,0-
attr measurement "$0=6.5, $1=2, $2=0"
attr network Network
attr processid 24905
attr repetition 24
attr replication #24
attr resultdir results
attr runnumber 1224
attr seedset 24
param *.boss.arrival_mean 20
param *.boss.service_mean 6.5
param *.minion.arrival_mean 10
param *.minion.service_mean 2
param *.player.recover_rate_x 0
param **.minion.arrival_distribution 0
param **.minion.service_distribution 0
param **.boss.arrival_distribution 0
param **.boss.service_distribution 0

vector 0 Network.player minion_jobs_number_stat:vector ETV
attr source signal_minion_jobs_number
vector 1 Network.player minion_jobs_queue_number_stat:vector ETV
attr source signal_minion_jobs_queue_number
vector 2 Network.player minion_waiting_time_stat:vector ETV
attr source signal_minion_waiting_time
vector 3 Network.player minion_defeated_stat:vector ETV
attr source signal_minion_defeated
vector 4 Network.player minion_response_time_stat:vector ETV
attr source signal_minion_response_time
vector 5 Network.player boss_jobs_number_stat:vector ETV
attr source signal_boss_jobs_number
vector 6 Network.player boss_jobs_queue_number_stat:vector ETV
attr source signal_boss_jobs_queue_number
vector 7 Network.player boss_waiting_time_stat:vector ETV
attr source signal_boss_waiting_time
vector 8 Network.player boss_defeated_stat:vector ETV
attr source signal_boss_defeated
vector 9 Network.player boss_response_time_stat:vector ETV
attr source signal_boss_response_time
vector 10 Network.player minion_recovered_stat:vector ETV
attr source signal_minion_recovered
vector 11 Network.player minion_throughput:vector ETV
attr source signal_minion_throughput
vector 12 Network.player boss_throughput:vector ETV
attr source signal_boss_throughput
0	179	356.789216703952	1
0	182	366.407720533371	1
0	188	377.040571376589	1
0	197	407.187138617204	1
0	200	441.086758584803	1
0	203	444.494047951664	1
0	208	454.812616210221	1
0	212	465.641600051131	1
0	220	479.277820095291	1
0	227	494.852513830573	1
0	230	512.690580686026	1
0	232	513.291580781746	2
0	234	513.351339505375	3
0	243	536.37120453553	1
0	246	543.993126690739	2
0	248	544.734462538936	3
0	254	570.095733877643	1
0	257	581.896687504052	1
0	260	583.921324485665	1
0	263	585.279116190361	1
0	268	628.667395432288	1
0	272	639.69467870296	1
0	275	646.035768047026	1
0	277	646.700493880238	2
0	284	654.825600306625	1
0	286	656.330937168635	2
0	288	659.22283601459	3
0	294	662.930578404102	2
0	296	668.660465822505	3
0	298	669.213705429238	4
0	303	686.651463762509	5
0	307	689.556081539344	5
0	312	699.689261245628	3
0	314	700.697231461097	4
0	323	718.013659795175	1
0	325	722.983967879998	2
0	328	726.315870106654	2
0	332	748.09093089818	1
0	336	754.082570057365	2
0	340	755.845534507378	2
0	342	757.767462288997	3
0	347	763.296326840998	1
0	350	763.756724342622	1
0	353	783.013662615862	1
0	356	793.983471542549	1
0	359	798.026774169896	1
0	362	801.977773532648	1
0	368	833.465877522527	1
0	371	836.465091621941	1
0	374	841.389145078265	1
0	380	855.164496103926	1
0	385	859.058740100249	1
0	390	870.96052869789	2
0	392	872.015518815138	3
0	401	905.7906501075	1
0	404	917.454414024692	1
0	407	921.532650731636	1
0	410	927.925128540496	1
0	419	949.937502961437	1
0	422	955.67258158671	1
0	426	961.254644888158	2
0	430	967.551004355144	2
0	434	994.532880761544	1
0	437	995.30254166152	1
0	440	1009.931705878689	1
0	443	1021.737113462098	1
0	446	1024.17178272167	1
0	449	1024.471307065166	1
0	457	1044.17301064952	1
0	461	1058.134734592907	1
0	471	1077.59144860176	1
0	476	1099.7668425196	1
0	487	1177.970402632044	1
0	493	1196.635886742355	2
0	495	1200.226436534748	3
0	499	1205.305018111409	2
0	503	1208.547369053641	1
0	508	1215.12574070078	1
0	511	1219.267934439993	2
0	515	1237.053733865379	1
0	518	1239.590833280954	1
0	521	1243.366400938419	1
0	524	1247.006478551144	1
0	527	1256.950644294721	1
0	536	1269.448195677003	1
0	542	1316.893751880655	1
0	547	1326.742537226964	1
0	551	1345.848286259193	1
0	557	1348.648970850869	1
0	563	1356.52134966197	1
0	566	1358.668885500997	1
0	569	1366.071723712859	1
0	578	1412.303689929352	1
0	587	1429.733317691778	1
0	590	1434.323136498465	1
0	593	1434.964109108602	1
0	598	1436.961393363256	1
0	600	1438.014710699769	2
0	602	1440.91670006931	3
0	608	1452.643273660911	1
0	614	1471.204834866045	1
0	617	1477.679218653875	1
0	620	1483.295070252198	1
0	626	1491.594781451896	1
0	629	1505.030160024024	1
0	632	1516.450343239982	1
0	635	1517.991208355858	1
0	638	1523.870921068251	1
0	649	1538.057668432891	1
0	653	1546.248679213656	1
0	656	1563.091021173002	1
0	659	1564.606893435329	1
0	662	1568.309056649513	1
0	665	1578.568099306452	1
0	667	1579.021682457924	2
0	671	1582.461246981718	1
0	673	1582.712989310234	2
0	677	1603.358994729019	1
0	683	1607.744862763942	1
0	686	1612.46891407111	1
0	689	1636.770725581656	1
0	692	1643.752179947993	1
0	694	1644.931583917353	2
0	696	1645.208321763132	3
0	701	1659.176969637964	1
0	704	1674.345312371334	1
0	712	1685.420559474964	1
0	714	1689.950900213952	2
0	716	1697.931056839573	3
0	722	1705.363008194692	1
0	724	1708.149830541008	2
0	727	1710.341140059046	2
0	731	1713.362897446005	1
0	734	1716.826918214573	1
0	742	1746.520972385423	1
0	746	1750.012828917756	2
0	748	1750.7522501866	3
0	761	1780.545645202351	1
0	764	1783.624836174733	1
0	767	1785.515637779284	1
0	769	1786.608102528738	2
0	771	1788.100980481798	3
0	775	1792.129076952849	2
0	781	1809.173374539332	1
0	783	1813.686348165498	2
0	791	1834.396774731413	1
0	794	1837.476149774725	1
0	797	1870.033855423056	1
0	800	1890.545216059208	1
0	809	1916.765702130355	1
0	815	1934.493965339324	1
0	818	1937.97189039777	1
0	835	1976.855919890475	1
0	842	1988.823419157974	2
0	848	1996.727013769419	3
0	850	1998.85047389208	4
0	855	2006.840808922118	5
0	859	2024.745438396731	6
0	862	2025.944021961315	7
0	865	2028.289970011253	8
0	872	2040.45613515477	4
0	877	2047.342792869357	2
0	881	2067.117905936518	1
0	884	2079.932128378416	1
0	886	2080.182697143549	2
0	889	2080.499574889648	2
0	893	2107.610656614475	1
0	896	2112.345383053022	1
0	899	2130.249105147754	1
0	902	2138.55333155246	1
0	906	2143.419866067781	2
0	919	2171.416923986947	3
0	921	2174.188701438503	4
0	924	2187.093761591359	5
0	926	2192.155402618666	6
0	929	2204.841647655703	7
0	931	2206.245984870921	8
0	944	2244.13923776168	1
0	950	2277.537847225243	1
0	955	2289.141865512103	1
0	957	2291.318595943235	2
0	961	2295.59156571577	2
0	964	2297.947119131108	2
0	968	2316.278446438018	1
0	971	2327.98601757414	1
0	977	2345.680151314537	1
0	980	2351.582526638814	1
0	986	2361.054874266508	1
0	989	2366.210491028203	1
0	991	2370.222330685964	2
0	994	2379.145448243972	2
0	998	2389.248330480956	1
0	1001	2389.842691429586	1
0	1004	2393.095394791491	1
0	1006	2396.301173612793	2
0	1010	2402.826514123312	1
0	1012	2405.848596340953	2
0	1016	2413.005412113603	1
0	1021	2418.180451570403	1
0	1028	2443.112190058738	1
0	1033	2457.571520976012	1
0	1040	2492.925146764597	2
0	1042	2498.096628724313	3
0	1044	2499.167734483319	4
1	179	356.789216703952	0
1	180	357.506548475373	0
1	182	366.407720533371	0
1	183	366.786164552941	0
1	188	377.040571376589	0
1	189	377.334348612685	0
1	197	407.187138617204	0
1	198	409.885538564124	0
1	200	441.086758584803	0
1	201	443.986463692014	0
1	203	444.494047951664	0
1	204	445.158770512417	0
1	208	454.812616210221	0
1	210	457.549038954562	0
1	212	465.641600051131	0
1	213	465.864449255359	0
1	220	479.277820095291	0
1	222	482.911865236364	0
1	227	494.852513830573	0
1	228	495.364426225079	0
1	230	512.690580686026	0
1	232	513.291580781746	1
1	234	513.351339505375	2
1	235	514.888496131588	2
1	236	517.717062458663	1
1	237	520.417784893794	0
1	243	536.37120453553	0
1	246	543.993126690739	1
1	248	544.734462538936	2
1	250	549.488721588589	2
1	251	550.529472391321	1
1	252	551.812878376687	0
1	254	570.095733877643	0
1	255	570.479837068214	0
1	257	581.896687504052	0
1	258	582.236006872218	0
1	260	583.921324485665	0
1	261	584.299991897096	0
1	263	585.279116190361	0
1	264	586.394116457949	0
1	268	628.667395432288	0
1	270	630.465117203945	0
1	272	639.69467870296	0
1	273	640.052420247948	0
1	275	646.035768047026	0
1	277	646.700493880238	1
1	278	648.064688722093	1
1	279	648.380130672843	0
1	284	654.825600306625	0
1	286	656.330937168635	1
1	288	659.22283601459	2
1	289	660.484209883052	2
1	290	661.322844485565	1
1	294	662.930578404102	1
1	296	668.660465822505	2
1	298	669.213705429238	3
1	303	686.651463762509	4
1	305	688.278474679111	4
1	307	689.556081539344	4
1	308	691.212554039451	4
1	309	691.390330636957	3
1	310	692.547815801137	2
1	312	699.689261245628	2
1	314	700.697231461097	3
1	315	703.776378293863	3
1	316	704.340887626023	2
1	317	704.35476809711	1
1	318	705.316197047589	0
1	323	718.013659795175	0
1	325	722.983967879998	1
1	326	723.52849734259	1
1	328	726.315870106654	1
1	329	727.755411125116	1
1	330	728.6573320143	0
1	332	748.09093089818	0
1	336	754.082570057365	1
1	338	755.621012783433	1
1	340	755.845534507378	1
1	342	757.767462288997	2
1	343	759.063101564836	2
1	344	759.452346363053	1
1	345	759.723771320826	0
1	347	763.296326840998	0
1	348	763.599050677822	0
1	350	763.756724342622	0
1	351	764.833931504549	0
1	353	783.013662615862	0
1	354	784.287069405664	0
1	356	793.983471542549	0
1	357	798.006795449835	0
1	359	798.026774169896	0
1	360	799.009593823143	0
1	362	801.977773532648	0
1	363	802.389967421632	0
1	368	833.465877522527	0
1	369	833.707977784798	0
1	371	836.465091621941	0
1	372	838.648918561567	0
1	374	841.389145078265	0
1	375	846.013686797704	0
1	380	855.164496103926	0
1	381	856.539559014121	0
1	385	859.058740100249	0
1	390	870.96052869789	1
1	392	872.015518815138	2
1	394	875.521152600229	2
1	395	875.887988485468	1
1	396	876.091620934612	0
1	401	905.7906501075	0
1	402	910.785718173183	0
1	404	917.454414024692	0
1	405	917.812197740113	0
1	407	921.532650731636	0
1	408	922.144330377124	0
1	410	927.925128540496	0
1	411	928.34235477095	0
1	419	949.937502961437	0
1	420	952.771685318324	0
1	422	955.67258158671	0
1	426	961.254644888158	1
1	428	967.545770049211	1
1	430	967.551004355144	1
1	431	971.821120607783	1
1	432	972.998050005114	0
1	434	994.532880761544	0
1	435	995.114762160868	0
1	437	995.30254166152	0
1	438	996.520876037804	0
1	440	1009.931705878689	0
1	441	1013.80914064968	0
1	443	1021.737113462098	0
1	444	1022.623547547621	0
1	446	1024.17178272167	0
1	447	1024.357440642336	0
1	449	1024.471307065166	0
1	450	1028.766816106148	0
1	457	1044.17301064952	0
1	459	1046.999329427113	0
1	461	1058.134734592907	0
1	462	1058.217704439916	0
1	471	1077.59144860176	0
1	474	1094.743221519463	0
1	476	1099.7668425196	0
1	477	1105.499397912642	0
1	487	1177.970402632044	0
1	493	1196.635886742355	1
1	495	1200.226436534748	2
1	496	1200.594587796695	2
1	497	1201.152449953541	1
1	499	1205.305018111409	1
1	500	1207.108581711572	1
1	501	1207.649201194285	0
1	503	1208.547369053641	0
1	504	1210.036981712427	0
1	508	1215.12574070078	0
1	511	1219.267934439993	1
1	512	1219.88402057972	1
1	513	1221.872071820677	0
1	515	1237.053733865379	0
1	516	1237.374997257499	0
1	518	1239.590833280954	0
1	519	1240.214054178526	0
1	521	1243.366400938419	0
1	522	1244.59340183394	0
1	524	1247.006478551144	0
1	525	1247.787307417889	0
1	527	1256.950644294721	0
1	531	1257.872080408741	0
1	536	1269.448195677003	0
1	537	1270.848429390393	0
1	542	1316.893751880655	0
1	543	1318.979712837512	0
1	547	1326.742537226964	0
1	549	1332.917757968153	0
1	551	1345.848286259193	0
1	552	1346.119815296345	0
1	557	1348.648970850869	0
1	558	1348.752005946356	0
1	563	1356.52134966197	0
1	564	1357.80362669264	0
1	566	1358.668885500997	0
1	567	1359.548637443564	0
1	569	1366.071723712859	0
1	570	1368.27112782829	0
1	578	1412.303689929352	0
1	579	1412.738187929395	0
1	587	1429.733317691778	0
1	588	1430.19821266786	0
1	590	1434.323136498465	0
1	591	1434.509084643407	0
1	593	1434.964109108602	0
1	594	1435.611981014426	0
1	598	1436.961393363256	0
1	600	1438.014710699769	1
1	602	1440.91670006931	2
1	604	1445.629574889951	2
1	605	1447.613579267516	1
1	606	1448.959275684452	0
1	608	1452.643273660911	0
1	609	1454.323825191238	0
1	614	1471.204834866045	0
1	615	1474.52961195811	0
1	617	1477.679218653875	0
1	618	1478.205335181954	0
1	620	1483.295070252198	0
1	621	1483.507684883453	0
1	626	1491.594781451896	0
1	627	1492.008386733429	0
1	629	1505.030160024024	0
1	630	1506.206132098264	0
1	632	1516.450343239982	0
1	633	1516.527968371303	0
1	635	1517.991208355858	0
1	636	1518.945482721482	0
1	638	1523.870921068251	0
1	639	1523.897369026723	0
1	649	1538.057668432891	0
1	651	1541.47435975413	0
1	653	1546.248679213656	0
1	654	1549.352922270466	0
1	656	1563.091021173002	0
1	657	1563.607046772607	0
1	659	1564.606893435329	0
1	660	1565.022349167564	0
1	662	1568.309056649513	0
1	663	1568.547294708188	0
1	665	1578.568099306452	0
1	667	1579.021682457924	1
1	668	1579.185273238112	1
1	669	1580.009690086905	0
1	671	1582.461246981718	0
1	673	1582.712989310234	1
1	674	1583.505953109171	1
1	675	1585.050052990749	0
1	677	1603.358994729019	0
1	681	1607.30633429195	0
1	683	1607.744862763942	0
1	684	1608.228477057793	0
1	686	1612.46891407111	0
1	687	1613.46008900078	0
1	689	1636.770725581656	0
1	690	1640.546449284415	0
1	692	1643.752179947993	0
1	694	1644.931583917353	1
1	696	1645.208321763132	2
1	697	1647.49965884135	2
1	698	1649.341631638519	1
1	699	1650.081080104482	0
1	701	1659.176969637964	0
1	702	1663.877610865649	0
1	704	1674.345312371334	0
1	705	1675.703577740516	0
1	712	1685.420559474964	0
1	714	1689.950900213952	1
1	716	1697.931056839573	2
1	718	1700.339637797413	2
1	719	1700.460673642395	1
1	720	1700.873773894908	0
1	722	1705.363008194692	0
1	724	1708.149830541008	1
1	725	1708.165405592474	1
1	727	1710.341140059046	1
1	728	1710.967593666694	1
1	729	1711.207620033355	0
1	731	1713.362897446005	0
1	732	1713.659126653377	0
1	734	1716.826918214573	0
1	735	1723.524756310974	0
1	742	1746.520972385423	0
1	746	1750.012828917756	1
1	748	1750.7522501866	2
1	751	1753.096054788412	2
1	752	1756.88440513805	1
1	753	1761.765690346357	0
1	761	1780.545645202351	0
1	762	1781.291520728994	0
1	764	1783.624836174733	0
1	765	1784.791212584413	0
1	767	1785.515637779284	0
1	769	1786.608102528738	1
1	771	1788.100980481798	2
1	772	1788.874561698655	2
1	773	1789.436656064642	1
1	775	1792.129076952849	1
1	776	1793.981686593139	1
1	777	1794.532550080283	0
1	781	1809.173374539332	0
1	783	1813.686348165498	1
1	788	1823.69034838589	1
1	789	1824.467074367361	0
1	791	1834.396774731413	0
1	792	1834.414713543775	0
1	794	1837.476149774725	0
1	795	1839.932489864878	0
1	797	1870.033855423056	0
1	798	1874.450837948293	0
1	800	1890.545216059208	0
1	801	1892.052031223798	0
1	809	1916.765702130355	0
1	810	1917.186009484958	0
1	815	1934.493965339324	0
1	816	1934.541058441327	0
1	818	1937.97189039777	0
1	819	1940.17107301593	0
1	835	1976.855919890475	0
1	842	1988.823419157974	1
1	848	1996.727013769419	2
1	850	1998.85047389208	3
1	855	2006.840808922118	4
1	859	2024.745438396731	5
1	862	2025.944021961315	6
1	865	2028.289970011253	7
1	866	2030.509498764677	7
1	867	2032.371214154428	6
1	868	2032.803418525436	5
1	869	2033.202165012854	4
1	870	2038.083107711837	3
1	872	2040.45613515477	3
1	873	2043.564550621999	3
1	874	2045.868362543176	2
1	875	2046.611280321212	1
1	877	2047.342792869357	1
1	878	2047.567205829849	1
1	879	2051.853354381721	0
1	881	2067.117905936518	0
1	882	2067.637228726361	0
1	884	2079.932128378416	0
1	886	2080.182697143549	1
1	887	2080.38647317282	1
1	889	2080.499574889648	1
1	890	2089.147221384959	1
1	891	2090.188509902474	0
1	893	2107.610656614475	0
1	894	2109.593755168422	0
1	896	2112.345383053022	0
1	897	2113.639975961261	0
1	899	2130.249105147754	0
1	900	2131.000800104754	0
1	902	2138.55333155246	0
1	906	2143.419866067781	1
1	919	2171.416923986947	2
1	921	2174.188701438503	3
1	924	2187.093761591359	4
1	926	2192.155402618666	5
1	929	2204.841647655703	6
1	931	2206.245984870921	7
1	935	2212.572487363924	7
1	936	2213.33988578435	6
1	937	2213.375309143528	5
1	938	2216.030630121499	4
1	939	2218.641237785762	3
1	940	2224.368799764882	2
1	941	2225.730868288854	1
1	942	2228.078907277071	0
1	944	2244.13923776168	0
1	945	2249.407450167936	0
1	950	2277.537847225243	0
1	951	2277.591097389531	0
1	955	2289.141865512103	0
1	957	2291.318595943235	1
1	959	2292.30290324276	1
1	961	2295.59156571577	1
1	962	2296.385516928979	1
1	964	2297.947119131108	1
1	965	2298.164257735255	1
1	966	2298.791556349066	0
1	968	2316.278446438018	0
1	969	2316.956173221351	0
1	971	2327.98601757414	0
1	972	2329.060469726915	0
1	977	2345.680151314537	0
1	978	2346.000727685205	0
1	980	2351.582526638814	0
1	984	2356.063984272149	0
1	986	2361.054874266508	0
1	987	2362.575275308443	0
1	989	2366.210491028203	0
1	991	2370.222330685964	1
1	992	2379.110568523531	1
1	994	2379.145448243972	1
1	995	2379.664705936785	1
1	996	2380.788519184675	0
1	998	2389.248330480956	0
1	999	2389.761453464111	0
1	1001	2389.842691429586	0
1	1002	2391.639256902274	0
1	1004	2393.095394791491	0
1	1006	2396.301173612793	1
1	1007	2398.611876421735	1
1	1008	2399.389264244809	0
1	1010	2402.826514123312	0
1	1012	2405.848596340953	1
1	1013	2405.942319080826	1
1	1014	2406.05034201555	0
1	1016	2413.005412113603	0
1	1017	2414.343763770631	0
1	1021	2418.180451570403	0
1	1023	2421.844320260469	0
1	1028	2443.112190058738	0
1	1029	2444.652019146035	0
1	1033	2457.571520976012	0
1	1040	2492.925146764597	1
1	1042	2498.096628724313	2
1	1044	2499.167734483319	3
2	179	356.789216703952	0
2	182	366.407720533371	0
2	188	377.040571376589	0
2	197	407.187138617204	0
2	200	441.086758584803	0
2	203	444.494047951664	0
2	209	455.703724691256	0.891108481035
2	212	465.641600051131	0
2	221	480.993161975888	1.715341880597
2	227	494.852513830573	0
2	230	512.690580686026	0
2	235	514.888496131588	1.596915349842
2	236	517.717062458663	4.365722953288
2	249	549.44057354522	13.06936900969
2	250	549.488721588589	5.49559489785
2	251	550.529472391321	5.795009852385
2	254	570.095733877643	0
2	257	581.896687504052	0
2	260	583.921324485665	0
2	263	585.279116190361	0
2	269	629.665273045887	0.997877613599
2	272	639.69467870296	0
2	275	646.035768047026	0
2	278	648.064688722093	1.364194841855
2	284	654.825600306625	0
2	289	660.484209883052	4.153272714417
2	290	661.322844485565	2.100008470975
2	304	688.108278330664	26.331255278242
2	305	688.278474679111	25.347896275009
2	308	691.212554039451	22.552088216946
2	309	691.390330636957	22.176625207719
2	310	692.547815801137	5.896352038628
2	315	703.776378293863	14.220296754519
2	316	704.340887626023	4.651626380395
2	317	704.35476809711	3.657536636013
2	323	718.013659795175	0
2	326	723.52849734259	0.544529462592
2	329	727.755411125116	1.439541018462
2	332	748.09093089818	0
2	337	755.08942285849	6.417671693817
2	338	755.621012783433	1.538442726068
2	343	759.063101564836	3.217567057458
2	344	759.452346363053	1.684884074056
2	347	763.296326840998	0
2	350	763.756724342622	0
2	353	783.013662615862	0
2	356	793.983471542549	0
2	359	798.026774169896	0
2	362	801.977773532648	0
2	368	833.465877522527	0
2	371	836.465091621941	0
2	374	841.389145078265	0
2	380	855.164496103926	0
2	393	872.074555685653	13.015815585404
2	394	875.521152600229	4.560623902339
2	395	875.887988485468	3.87246967033
2	401	905.7906501075	0
2	404	917.454414024692	0
2	407	921.532650731636	0
2	410	927.925128540496	0
2	419	949.937502961437	0
2	422	955.67258158671	0
2	427	965.959254875344	8.611086151736
2	428	967.545770049211	6.291125161053
2	431	971.821120607783	4.270116252639
2	434	994.532880761544	0
2	437	995.30254166152	0
2	440	1009.931705878689	0
2	443	1021.737113462098	0
2	446	1024.17178272167	0
2	449	1024.471307065166	0
2	458	1045.842995555213	1.669984905693
2	461	1058.134734592907	0
2	473	1089.875982916476	12.284534314716
2	476	1099.7668425196	0
2	488	1180.017688646885	2.047286014841
2	491	1186.830256527946	6.728617809858
2	496	1200.594587796695	3.95870105434
2	497	1201.152449953541	0.926013418793
2	500	1207.108581711572	1.803563600163
2	503	1208.547369053641	0
2	509	1219.138213178843	4.012472478063
2	512	1219.88402057972	0.616086139727
2	515	1237.053733865379	0
2	518	1239.590833280954	0
2	521	1243.366400938419	0
2	524	1247.006478551144	0
2	527	1256.950644294721	0
2	530	1257.667734130568	0.650136804963
2	536	1269.448195677003	0
2	542	1316.893751880655	0
2	548	1332.71875120197	5.976213975006
2	551	1345.848286259193	0
2	557	1348.648970850869	0
2	563	1356.52134966197	0
2	566	1358.668885500997	0
2	569	1366.071723712859	0
2	578	1412.303689929352	0
2	587	1429.733317691778	0
2	590	1434.323136498465	0
2	593	1434.964109108602	0
2	603	1440.931188336818	3.969794973562
2	604	1445.629574889951	7.614864190182
2	605	1447.613579267516	6.696879198206
2	608	1452.643273660911	0
2	614	1471.204834866045	0
2	617	1477.679218653875	0
2	620	1483.295070252198	0
2	626	1491.594781451896	0
2	629	1505.030160024024	0
2	632	1516.450343239982	0
2	635	1517.991208355858	0
2	638	1523.870921068251	0
2	650	1539.507470857465	1.449802424574
2	653	1546.248679213656	0
2	656	1563.091021173002	0
2	659	1564.606893435329	0
2	662	1568.309056649513	0
2	665	1578.568099306452	0
2	668	1579.185273238112	0.163590780188
2	671	1582.461246981718	0
2	674	1583.505953109171	0.792963798937
2	677	1603.358994729019	0
2	680	1605.261592856806	0.042734698432
2	683	1607.744862763942	0
2	686	1612.46891407111	0
2	689	1636.770725581656	0
2	692	1643.752179947993	0
2	697	1647.49965884135	2.568074923997
2	698	1649.341631638519	4.133309875387
2	701	1659.176969637964	0
2	704	1674.345312371334	0
2	717	1700.284232015059	14.863672540095
2	718	1700.339637797413	10.388737583461
2	719	1700.460673642395	2.529616802822
2	722	1705.363008194692	0
2	725	1708.165405592474	0.015575051466
2	728	1710.967593666694	0.626453607648
2	731	1713.362897446005	0
2	734	1716.826918214573	0
2	750	1751.685557572683	5.16458518726
2	751	1753.096054788412	3.083225870656
2	752	1756.88440513805	6.13215495145
2	761	1780.545645202351	0
2	764	1783.624836174733	0
2	767	1785.515637779284	0
2	772	1788.874561698655	2.266459169917
2	773	1789.436656064642	1.335675582844
2	776	1793.981686593139	1.85260964029
2	787	1823.532112842408	14.358738303076
2	788	1823.69034838589	10.004000220392
2	791	1834.396774731413	0
2	794	1837.476149774725	0
2	797	1870.033855423056	0
2	800	1890.545216059208	0
2	809	1916.765702130355	0
2	815	1934.493965339324	0
2	818	1937.97189039777	0
2	863	2027.741671543864	50.885751653389
2	866	2030.509498764677	41.686079606703
2	867	2032.371214154428	35.644200385009
2	868	2032.803418525436	33.952944633356
2	869	2033.202165012854	26.361356090736
2	870	2038.083107711837	13.337669315106
2	873	2043.564550621999	17.620528660684
2	874	2045.868362543176	17.578392531923
2	875	2046.611280321212	6.155145166442
2	878	2047.567205829849	0.224412960492
2	881	2067.117905936518	0
2	884	2079.932128378416	0
2	887	2080.38647317282	0.203776029271
2	890	2089.147221384959	8.647646495311
2	893	2107.610656614475	0
2	896	2112.345383053022	0
2	899	2130.249105147754	0
2	902	2138.55333155246	0
2	934	2211.578680257756	71.323942146416
2	935	2212.572487363924	69.152621296143
2	936	2213.33988578435	41.922961797403
2	937	2213.375309143528	39.186607705025
2	938	2216.030630121499	28.93686853014
2	939	2218.641237785762	26.485835167096
2	940	2224.368799764882	19.527152109179
2	941	2225.730868288854	19.484883417933
2	944	2244.13923776168	0
2	950	2277.537847225243	0
2	958	2292.21485476186	3.072989249757
2	959	2292.30290324276	0.984307299525
2	962	2296.385516928979	0.793951213209
2	965	2298.164257735255	0.217138604147
2	968	2316.278446438018	0
2	971	2327.98601757414	0
2	977	2345.680151314537	0
2	980	2351.582526638814	0
2	983	2354.791230544298	3.079340420815
2	986	2361.054874266508	0
2	989	2366.210491028203	0
2	992	2379.110568523531	8.888237837567
2	995	2379.664705936785	0.519257692813
2	998	2389.248330480956	0
2	1001	2389.842691429586	0
2	1004	2393.095394791491	0
2	1007	2398.611876421735	2.310702808942
2	1010	2402.826514123312	0
2	1013	2405.942319080826	0.093722739873
2	1016	2413.005412113603	0
2	1022	2420.935542805967	2.755091235564
2	1028	2443.112190058738	0
3	180	357.506548475373	39
3	183	366.786164552941	40
3	189	377.334348612685	41
3	198	409.885538564124	42
3	201	443.986463692014	43
3	204	445.158770512417	44
3	210	457.549038954562	45
3	213	465.864449255359	46
3	222	482.911865236364	47
3	228	495.364426225079	48
3	235	514.888496131588	49
3	236	517.717062458663	50
3	237	520.417784893794	51
3	250	549.488721588589	52
3	251	550.529472391321	53
3	252	551.812878376687	54
3	255	570.479837068214	55
3	258	582.236006872218	56
3	261	584.299991897096	57
3	264	586.394116457949	58
3	270	630.465117203945	59
3	273	640.052420247948	60
3	278	648.064688722093	61
3	279	648.380130672843	62
3	289	660.484209883052	63
3	290	661.322844485565	64
3	305	688.278474679111	65
3	308	691.212554039451	66
3	309	691.390330636957	67
3	310	692.547815801137	68
3	315	703.776378293863	69
3	316	704.340887626023	70
3	317	704.35476809711	71
3	318	705.316197047589	72
3	326	723.52849734259	73
3	329	727.755411125116	74
3	330	728.6573320143	75
3	338	755.621012783433	76
3	343	759.063101564836	77
3	344	759.452346363053	78
3	345	759.723771320826	79
3	348	763.599050677822	80
3	351	764.833931504549	81
3	354	784.287069405664	82
3	357	798.006795449835	83
3	360	799.009593823143	84
3	363	802.389967421632	85
3	369	833.707977784798	86
3	372	838.648918561567	87
3	375	846.013686797704	88
3	381	856.539559014121	89
3	394	875.521152600229	90
3	395	875.887988485468	91
3	396	876.091620934612	92
3	402	910.785718173183	93
3	405	917.812197740113	94
3	408	922.144330377124	95
3	411	928.34235477095	96
3	420	952.771685318324	97
3	428	967.545770049211	98
3	431	971.821120607783	99
3	432	972.998050005114	100
3	435	995.114762160868	101
3	438	996.520876037804	102
3	441	1013.80914064968	103
3	444	1022.623547547621	104
3	447	1024.357440642336	105
3	450	1028.766816106148	106
3	459	1046.999329427113	107
3	462	1058.217704439916	108
3	474	1094.743221519463	109
3	477	1105.499397912642	110
3	496	1200.594587796695	111
3	497	1201.152449953541	112
3	500	1207.108581711572	113
3	501	1207.649201194285	114
3	504	1210.036981712427	115
3	512	1219.88402057972	116
3	513	1221.872071820677	117
3	516	1237.374997257499	118
3	519	1240.214054178526	119
3	522	1244.59340183394	120
3	525	1247.787307417889	121
3	531	1257.872080408741	122
3	537	1270.848429390393	123
3	543	1318.979712837512	124
3	549	1332.917757968153	125
3	552	1346.119815296345	126
3	558	1348.752005946356	127
3	564	1357.80362669264	128
3	567	1359.548637443564	129
3	570	1368.27112782829	130
3	579	1412.738187929395	131
3	588	1430.19821266786	132
3	591	1434.509084643407	133
3	594	1435.611981014426	134
3	604	1445.629574889951	135
3	605	1447.613579267516	136
3	606	1448.959275684452	137
3	609	1454.323825191238	138
3	615	1474.52961195811	139
3	618	1478.205335181954	140
3	621	1483.507684883453	141
3	627	1492.008386733429	142
3	630	1506.206132098264	143
3	633	1516.527968371303	144
3	636	1518.945482721482	145
3	639	1523.897369026723	146
3	651	1541.47435975413	147
3	654	1549.352922270466	148
3	657	1563.607046772607	149
3	660	1565.022349167564	150
3	663	1568.547294708188	151
3	668	1579.185273238112	152
3	669	1580.009690086905	153
3	674	1583.505953109171	154
3	675	1585.050052990749	155
3	681	1607.30633429195	156
3	684	1608.228477057793	157
3	687	1613.46008900078	158
3	690	1640.546449284415	159
3	697	1647.49965884135	160
3	698	1649.341631638519	161
3	699	1650.081080104482	162
3	702	1663.877610865649	163
3	705	1675.703577740516	164
3	718	1700.339637797413	165
3	719	1700.460673642395	166
3	720	1700.873773894908	167
3	725	1708.165405592474	168
3	728	1710.967593666694	169
3	729	1711.207620033355	170
3	732	1713.659126653377	171
3	735	1723.524756310974	172
3	751	1753.096054788412	173
3	752	1756.88440513805	174
3	753	1761.765690346357	175
3	762	1781.291520728994	176
3	765	1784.791212584413	177
3	772	1788.874561698655	178
3	773	1789.436656064642	179
3	776	1793.981686593139	180
3	777	1794.532550080283	181
3	788	1823.69034838589	182
3	789	1824.467074367361	183
3	792	1834.414713543775	184
3	795	1839.932489864878	185
3	798	1874.450837948293	186
3	801	1892.052031223798	187
3	810	1917.186009484958	188
3	816	1934.541058441327	189
3	819	1940.17107301593	190
3	866	2030.509498764677	191
3	867	2032.371214154428	192
3	868	2032.803418525436	193
3	869	2033.202165012854	194
3	870	2038.083107711837	195
3	873	2043.564550621999	196
3	874	2045.868362543176	197
3	875	2046.611280321212	198
3	878	2047.567205829849	199
3	879	2051.853354381721	200
3	882	2067.637228726361	201
3	887	2080.38647317282	202
3	890	2089.147221384959	203
3	891	2090.188509902474	204
3	894	2109.593755168422	205
3	897	2113.639975961261	206
3	900	2131.000800104754	207
3	935	2212.572487363924	208
3	936	2213.33988578435	209
3	937	2213.375309143528	210
3	938	2216.030630121499	211
3	939	2218.641237785762	212
3	940	2224.368799764882	213
3	941	2225.730868288854	214
3	942	2228.078907277071	215
3	945	2249.407450167936	216
3	951	2277.591097389531	217
3	959	2292.30290324276	218
3	962	2296.385516928979	219
3	965	2298.164257735255	220
3	966	2298.791556349066	221
3	969	2316.956173221351	222
3	972	2329.060469726915	223
3	978	2346.000727685205	224
3	984	2356.063984272149	225
3	987	2362.575275308443	226
3	992	2379.110568523531	227
3	995	2379.664705936785	228
3	996	2380.788519184675	229
3	999	2389.761453464111	230
3	1002	2391.639256902274	231
3	1007	2398.611876421735	232
3	1008	2399.389264244809	233
3	1013	2405.942319080826	234
3	1014	2406.05034201555	235
3	1017	2414.343763770631	236
3	1023	2421.844320260469	237
3	1029	2444.652019146035	238
4	180	357.506548475373	0.717331771421
4	183	366.786164552941	0.37844401957
4	189	377.334348612685	0.293777236096
4	198	409.885538564124	2.69839994692
4	201	443.986463692014	2.899705107211
4	204	445.158770512417	0.664722560753
4	210	457.549038954562	2.736422744341
4	213	465.864449255359	0.222849204228
4	222	482.911865236364	3.634045141073
4	228	495.364426225079	0.511912394506
4	235	514.888496131588	2.197915445562
4	236	517.717062458663	4.425481676917
4	237	520.417784893794	7.066445388419
4	250	549.488721588589	13.117517053059
4	251	550.529472391321	6.536345700582
4	252	551.812878376687	7.078415837751
4	255	570.479837068214	0.384103190571
4	258	582.236006872218	0.339319368166
4	261	584.299991897096	0.378667411431
4	264	586.394116457949	1.115000267588
4	270	630.465117203945	1.797721771657
4	273	640.052420247948	0.357741544988
4	278	648.064688722093	2.028920675067
4	279	648.380130672843	1.679636792605
4	289	660.484209883052	5.658609576427
4	290	661.322844485565	4.99190731693
4	305	688.278474679111	26.501451626689
4	308	691.212554039451	28.281975635349
4	309	691.390330636957	22.729864814452
4	310	692.547815801137	23.334110371899
4	315	703.776378293863	17.124914531354
4	316	704.340887626023	14.784806086679
4	317	704.35476809711	4.665506851482
4	318	705.316197047589	4.618965586492
4	326	723.52849734259	5.514837547415
4	329	727.755411125116	4.771443245118
4	330	728.6573320143	2.341461907646
4	338	755.621012783433	6.94926161876
4	343	759.063101564836	4.980531507471
4	344	759.452346363053	3.606811855675
4	345	759.723771320826	1.956309031829
4	348	763.599050677822	0.302723836824
4	351	764.833931504549	1.077207161927
4	354	784.287069405664	1.273406789802
4	357	798.006795449835	4.023323907286
4	360	799.009593823143	0.982819653247
4	363	802.389967421632	0.412193888984
4	369	833.707977784798	0.242100262271
4	372	838.648918561567	2.183826939626
4	375	846.013686797704	4.624541719439
4	381	856.539559014121	1.375062910195
4	394	875.521152600229	16.46241249998
4	395	875.887988485468	4.927459787578
4	396	876.091620934612	4.076102119474
4	402	910.785718173183	4.995068065683
4	405	917.812197740113	0.357783715421
4	408	922.144330377124	0.611679645488
4	411	928.34235477095	0.417226230454
4	420	952.771685318324	2.834182356887
4	428	967.545770049211	10.197601325603
4	431	971.821120607783	10.566475719625
4	432	972.998050005114	5.44704564997
4	435	995.114762160868	0.581881399324
4	438	996.520876037804	1.218334376284
4	441	1013.80914064968	3.877434770991
4	444	1022.623547547621	0.886434085523
4	447	1024.357440642336	0.185657920666
4	450	1028.766816106148	4.295509040982
4	459	1046.999329427113	2.826318777593
4	462	1058.217704439916	0.082969847009
4	474	1094.743221519463	17.151772917703
4	477	1105.499397912642	5.732555393042
4	496	1200.594587796695	20.492949078607
4	497	1201.152449953541	4.516563211186
4	500	1207.108581711572	6.882145176824
4	501	1207.649201194285	2.344183082876
4	504	1210.036981712427	1.489612658786
4	512	1219.88402057972	4.75827987894
4	513	1221.872071820677	2.604137380684
4	516	1237.374997257499	0.32126339212
4	519	1240.214054178526	0.623220897572
4	522	1244.59340183394	1.227000895521
4	525	1247.787307417889	0.780828866745
4	531	1257.872080408741	0.854483083136
4	537	1270.848429390393	1.40023371339
4	543	1318.979712837512	2.085960956857
4	549	1332.917757968153	6.175220741189
4	552	1346.119815296345	0.271529037152
4	558	1348.752005946356	0.103035095487
4	564	1357.80362669264	1.28227703067
4	567	1359.548637443564	0.879751942567
4	570	1368.27112782829	2.199404115431
4	579	1412.738187929395	0.434498000043
4	588	1430.19821266786	0.464894976082
4	591	1434.509084643407	0.185948144942
4	594	1435.611981014426	0.647871905824
4	604	1445.629574889951	8.668181526695
4	605	1447.613579267516	9.598868567747
4	606	1448.959275684452	8.042575615142
4	609	1454.323825191238	1.680551530327
4	615	1474.52961195811	3.324777092065
4	618	1478.205335181954	0.526116528079
4	621	1483.507684883453	0.212614631255
4	627	1492.008386733429	0.413605281533
4	630	1506.206132098264	1.17597207424
4	633	1516.527968371303	0.077625131321
4	636	1518.945482721482	0.954274365624
4	639	1523.897369026723	0.026447958472
4	651	1541.47435975413	3.416691321239
4	654	1549.352922270466	3.10424305681
4	657	1563.607046772607	0.516025599605
4	660	1565.022349167564	0.415455732235
4	663	1568.547294708188	0.238238058675
4	668	1579.185273238112	0.61717393166
4	669	1580.009690086905	0.988007628981
4	674	1583.505953109171	1.044706127453
4	675	1585.050052990749	2.337063680515
4	681	1607.30633429195	2.087476133576
4	684	1608.228477057793	0.483614293851
4	687	1613.46008900078	0.99117492967
4	690	1640.546449284415	3.775723702759
4	697	1647.49965884135	3.747478893357
4	698	1649.341631638519	4.410047721166
4	699	1650.081080104482	4.87275834135
4	702	1663.877610865649	4.700641227685
4	705	1675.703577740516	1.358265369182
4	718	1700.339637797413	14.919078322449
4	719	1700.460673642395	10.509773428443
4	720	1700.873773894908	2.942717055335
4	725	1708.165405592474	2.802397397782
4	728	1710.967593666694	2.817763125686
4	729	1711.207620033355	0.866479974309
4	732	1713.659126653377	0.296229207372
4	735	1723.524756310974	6.697838096401
4	751	1753.096054788412	6.575082402989
4	752	1756.88440513805	6.871576220294
4	753	1761.765690346357	11.013440159757
4	762	1781.291520728994	0.745875526643
4	765	1784.791212584413	1.16637640968
4	772	1788.874561698655	3.358923919371
4	773	1789.436656064642	2.828553535904
4	776	1793.981686593139	5.880706111341
4	777	1794.532550080283	2.403473127434
4	788	1823.69034838589	14.516973846558
4	789	1824.467074367361	10.780726201863
4	792	1834.414713543775	0.017938812362
4	795	1839.932489864878	2.456340090153
4	798	1874.450837948293	4.416982525237
4	801	1892.052031223798	1.50681516459
4	810	1917.186009484958	0.420307354603
4	816	1934.541058441327	0.047093102003
4	819	1940.17107301593	2.19918261816
4	866	2030.509498764677	53.653578874202
4	867	2032.371214154428	43.547794996454
4	868	2032.803418525436	36.076404756017
4	869	2033.202165012854	34.351691120774
4	870	2038.083107711837	31.242298789719
4	873	2043.564550621999	18.819112225268
4	874	2045.868362543176	19.924340581861
4	875	2046.611280321212	18.321310309959
4	878	2047.567205829849	7.111070675079
4	879	2051.853354381721	4.510561512364
4	882	2067.637228726361	0.519322789843
4	887	2080.38647317282	0.454344794404
4	890	2089.147221384959	8.96452424141
4	891	2090.188509902474	9.688935012826
4	894	2109.593755168422	1.983098553947
4	897	2113.639975961261	1.294592908239
4	900	2131.000800104754	0.751694957
4	935	2212.572487363924	72.317749252584
4	936	2213.33988578435	69.920019716569
4	937	2213.375309143528	41.958385156581
4	938	2216.030630121499	41.841928682996
4	939	2218.641237785762	31.547476194403
4	940	2224.368799764882	32.213397146216
4	941	2225.730868288854	20.889220633151
4	942	2228.078907277071	21.83292240615
4	945	2249.407450167936	5.268212406256
4	951	2277.591097389531	0.053250164288
4	959	2292.30290324276	3.161037730657
4	962	2296.385516928979	5.066920985744
4	965	2298.164257735255	2.572692019485
4	966	2298.791556349066	0.844437217958
4	969	2316.956173221351	0.677726783333
4	972	2329.060469726915	1.074452152775
4	978	2346.000727685205	0.320576370668
4	984	2356.063984272149	4.352094148666
4	987	2362.575275308443	1.520401041935
4	992	2379.110568523531	12.900077495328
4	995	2379.664705936785	9.442375250821
4	996	2380.788519184675	1.643070940703
4	999	2389.761453464111	0.513122983155
4	1002	2391.639256902274	1.796565472688
4	1007	2398.611876421735	5.516481630244
4	1008	2399.389264244809	3.088090632016
4	1013	2405.942319080826	3.115804957514
4	1014	2406.05034201555	0.201745674597
4	1017	2414.343763770631	1.338351657028
4	1023	2421.844320260469	3.663868690066
4	1029	2444.652019146035	1.539829087297
5	185	372.134798287112	1
5	191	382.649908763891	1
5	194	398.482874314802	1
5	206	452.623286576907	1
5	215	469.657341332736	1
5	218	476.563346583834	1
5	224	489.543105686646	1
5	239	526.025624377519	1
5	241	535.796427067984	2
5	266	626.393968682192	1
5	281	651.044778106652	1
5	292	661.777023052422	1
5	300	684.308078529856	2
5	320	708.194431253089	1
5	334	748.671751164673	1
5	365	813.013988148062	1
5	377	847.032280305105	1
5	383	858.592490456884	1
5	387	861.19589677694	2
5	398	884.394007217616	1
5	413	930.267922505825	1
5	416	937.320210880813	1
5	424	957.348168723608	1
5	452	1033.611678875363	1
5	455	1037.827955137379	1
5	464	1061.467071764612	1
5	467	1076.278973229815	1
5	469	1076.925032669892	2
5	479	1158.248829838364	1
5	481	1161.058857976693	2
5	483	1173.962877596753	3
5	490	1180.101638718088	1
5	506	1213.425459178936	1
5	529	1257.017597325605	1
5	533	1260.850513339229	1
5	539	1299.938347884687	1
5	545	1326.453008205057	1
5	554	1347.463605427665	1
5	560	1351.210648716751	1
5	572	1385.198060931911	1
5	575	1403.276454880886	1
5	581	1419.17759583594	1
5	584	1422.002012796862	1
5	596	1436.722330527041	1
5	611	1468.255254431895	1
5	623	1486.728705151374	1
5	641	1524.308443310314	1
5	643	1528.188529657151	2
5	646	1535.346246111982	2
5	679	1605.218858158374	1
5	707	1681.748549773511	1
5	710	1685.404964690379	1
5	737	1733.116417053337	1
5	740	1745.785983199229	1
5	744	1747.360294083479	2
5	755	1762.057885282339	1
5	758	1771.03123094636	1
5	779	1803.268513345241	1
5	785	1815.842102082336	2
5	803	1899.469683830687	1
5	805	1903.469048659292	2
5	812	1928.78649794723	1
5	821	1941.033560170089	1
5	824	1952.135829052273	1
5	827	1966.495807747824	1
5	829	1967.8742062205	2
5	831	1973.023659719139	3
5	833	1974.650065026567	4
5	837	1984.510906702646	5
5	840	1984.867767945828	5
5	844	1991.139207354218	6
5	852	2002.681817417297	5
5	904	2140.25473811134	1
5	908	2143.875117242388	2
5	910	2149.009102541388	3
5	912	2153.547249966718	4
5	915	2162.084817532982	4
5	917	2162.193617147174	5
5	947	2250.829136781739	1
5	953	2287.03352692923	1
5	974	2332.989143500774	1
5	982	2351.711890123483	1
5	1019	2414.616886915989	1
5	1025	2428.112985906692	1
5	1031	2455.475700995089	1
5	1035	2463.575780159213	2
5	1038	2491.203118857694	2
6	185	372.134798287112	0
6	186	374.215180666372	0
6	191	382.649908763891	0
6	192	391.577305578667	0
6	194	398.482874314802	0
6	195	405.134475958087	0
6	206	452.623286576907	0
6	209	455.703724691256	0
6	215	469.657341332736	0
6	216	474.080327149877	0
6	218	476.563346583834	0
6	221	480.993161975888	0
6	224	489.543105686646	0
6	225	492.212245615356	0
6	239	526.025624377519	0
6	241	535.796427067984	1
6	244	543.213891289426	1
6	249	549.44057354522	0
6	266	626.393968682192	0
6	269	629.665273045887	0
6	281	651.044778106652	0
6	282	653.950798212135	0
6	292	661.777023052422	0
6	300	684.308078529856	1
6	301	685.488888038174	1
6	304	688.108278330664	0
6	320	708.194431253089	0
6	321	713.025290131375	0
6	334	748.671751164673	0
6	337	755.08942285849	0
6	365	813.013988148062	0
6	366	813.652866752022	0
6	377	847.032280305105	0
6	378	854.718273597465	0
6	383	858.592490456884	0
6	387	861.19589677694	1
6	388	869.501422796828	1
6	393	872.074555685653	0
6	398	884.394007217616	0
6	399	885.940095821376	0
6	413	930.267922505825	0
6	414	933.691231392694	0
6	416	937.320210880813	0
6	417	942.573588427271	0
6	424	957.348168723608	0
6	427	965.959254875344	0
6	452	1033.611678875363	0
6	453	1035.858672734651	0
6	455	1037.827955137379	0
6	458	1045.842995555213	0
6	464	1061.467071764612	0
6	465	1072.475429547004	0
6	467	1076.278973229815	0
6	469	1076.925032669892	1
6	472	1078.432679024738	1
6	473	1089.875982916476	0
6	479	1158.248829838364	0
6	481	1161.058857976693	1
6	483	1173.962877596753	2
6	484	1174.962613632559	2
6	485	1176.590770521839	1
6	488	1180.017688646885	0
6	490	1180.101638718088	0
6	491	1186.830256527946	0
6	506	1213.425459178936	0
6	509	1219.138213178843	0
6	529	1257.017597325605	0
6	530	1257.667734130568	0
6	533	1260.850513339229	0
6	534	1261.138058045647	0
6	539	1299.938347884687	0
6	540	1303.386310364436	0
6	545	1326.453008205057	0
6	548	1332.71875120197	0
6	554	1347.463605427665	0
6	555	1348.125848320535	0
6	560	1351.210648716751	0
6	561	1353.425873793203	0
6	572	1385.198060931911	0
6	573	1386.208796353233	0
6	575	1403.276454880886	0
6	576	1403.821261488192	0
6	581	1419.17759583594	0
6	582	1420.727885932764	0
6	584	1422.002012796862	0
6	585	1427.065631815966	0
6	596	1436.722330527041	0
6	603	1440.931188336818	0
6	611	1468.255254431895	0
6	612	1468.856018349976	0
6	623	1486.728705151374	0
6	624	1487.253848647041	0
6	641	1524.308443310314	0
6	643	1528.188529657151	1
6	644	1535.096947062513	1
6	646	1535.346246111982	1
6	647	1536.838535506563	1
6	650	1539.507470857465	0
6	679	1605.218858158374	0
6	680	1605.261592856806	0
6	707	1681.748549773511	0
6	708	1682.664548940674	0
6	710	1685.404964690379	0
6	717	1700.284232015059	0
6	737	1733.116417053337	0
6	738	1733.582987817731	0
6	740	1745.785983199229	0
6	744	1747.360294083479	1
6	749	1751.008638708193	1
6	750	1751.685557572683	0
6	755	1762.057885282339	0
6	756	1763.249842688485	0
6	758	1771.03123094636	0
6	759	1778.985623243149	0
6	779	1803.268513345241	0
6	785	1815.842102082336	1
6	786	1820.450360711956	1
6	787	1823.532112842408	0
6	803	1899.469683830687	0
6	805	1903.469048659292	1
6	806	1904.546688226869	1
6	807	1906.978318542708	0
6	812	1928.78649794723	0
6	813	1929.063758555423	0
6	821	1941.033560170089	0
6	822	1942.442927720372	0
6	824	1952.135829052273	0
6	825	1956.973006914234	0
6	827	1966.495807747824	0
6	829	1967.8742062205	1
6	831	1973.023659719139	2
6	833	1974.650065026567	3
6	837	1984.510906702646	4
6	838	1984.731290729861	4
6	840	1984.867767945828	4
6	844	1991.139207354218	5
6	845	1991.374598066927	5
6	846	1994.523697775638	4
6	852	2002.681817417297	4
6	853	2005.006469668098	4
6	856	2011.456358088874	3
6	857	2023.1649259036	2
6	860	2025.848885288453	1
6	863	2027.741671543864	0
6	904	2140.25473811134	0
6	908	2143.875117242388	1
6	910	2149.009102541388	2
6	912	2153.547249966718	3
6	913	2159.808877498609	3
6	915	2162.084817532982	3
6	917	2162.193617147174	4
6	922	2182.237798138506	4
6	927	2204.46581840964	3
6	932	2208.546554074716	2
6	933	2209.585461513494	1
6	934	2211.578680257756	0
6	947	2250.829136781739	0
6	948	2261.38156676914	0
6	953	2287.03352692923	0
6	958	2292.21485476186	0
6	974	2332.989143500774	0
6	975	2333.332875297647	0
6	982	2351.711890123483	0
6	983	2354.791230544298	0
6	1019	2414.616886915989	0
6	1022	2420.935542805967	0
6	1025	2428.112985906692	0
6	1026	2429.593782590722	0
6	1031	2455.475700995089	0
6	1035	2463.575780159213	1
6	1036	2490.596351825845	1
6	1038	2491.203118857694	1
7	185	372.134798287112	0
7	191	382.649908763891	0
7	194	398.482874314802	0
7	206	452.623286576907	0
7	215	469.657341332736	0
7	218	476.563346583834	0
7	224	489.543105686646	0
7	239	526.025624377519	0
7	244	543.213891289426	7.417464221442
7	266	626.393968682192	0
7	281	651.044778106652	0
7	292	661.777023052422	0
7	301	685.488888038174	1.180809508318
7	320	708.194431253089	0
7	334	748.671751164673	0
7	365	813.013988148062	0
7	377	847.032280305105	0
7	383	858.592490456884	0
7	388	869.501422796828	8.305526019888
7	398	884.394007217616	0
7	413	930.267922505825	0
7	416	937.320210880813	0
7	424	957.348168723608	0
7	452	1033.611678875363	0
7	455	1037.827955137379	0
7	464	1061.467071764612	0
7	467	1076.278973229815	0
7	472	1078.432679024738	1.507646354846
7	479	1158.248829838364	0
7	484	1174.962613632559	13.903755655866
7	485	1176.590770521839	2.627892925086
7	490	1180.101638718088	0
7	506	1213.425459178936	0
7	529	1257.017597325605	0
7	533	1260.850513339229	0
7	539	1299.938347884687	0
7	545	1326.453008205057	0
7	554	1347.463605427665	0
7	560	1351.210648716751	0
7	572	1385.198060931911	0
7	575	1403.276454880886	0
7	581	1419.17759583594	0
7	584	1422.002012796862	0
7	596	1436.722330527041	0
7	611	1468.255254431895	0
7	623	1486.728705151374	0
7	641	1524.308443310314	0
7	644	1535.096947062513	6.908417405362
7	647	1536.838535506563	1.492289394581
7	679	1605.218858158374	0
7	707	1681.748549773511	0
7	710	1685.404964690379	0
7	737	1733.116417053337	0
7	740	1745.785983199229	0
7	749	1751.008638708193	3.648344624714
7	755	1762.057885282339	0
7	758	1771.03123094636	0
7	779	1803.268513345241	0
7	786	1820.450360711956	4.60825862962
7	803	1899.469683830687	0
7	806	1904.546688226869	1.077639567577
7	812	1928.78649794723	0
7	821	1941.033560170089	0
7	824	1952.135829052273	0
7	827	1966.495807747824	0
7	838	1984.731290729861	16.857084509361
7	845	1991.374598066927	18.350938347788
7	846	1994.523697775638	19.873632749071
7	853	2005.006469668098	20.495562965452
7	856	2011.456358088874	26.588590143046
7	857	2023.1649259036	32.025718549382
7	860	2025.848885288453	23.167067871156
7	904	2140.25473811134	0
7	913	2159.808877498609	15.933760256221
7	922	2182.237798138506	33.228695597118
7	927	2204.46581840964	50.918568442922
7	932	2208.546554074716	46.461736541734
7	933	2209.585461513494	47.39184436632
7	947	2250.829136781739	0
7	953	2287.03352692923	0
7	974	2332.989143500774	0
7	982	2351.711890123483	0
7	1019	2414.616886915989	0
7	1025	2428.112985906692	0
7	1031	2455.475700995089	0
7	1036	2490.596351825845	27.020571666632
8	186	374.215180666372	22
8	192	391.577305578667	23
8	195	405.134475958087	24
8	209	455.703724691256	25
8	216	474.080327149877	26
8	221	480.993161975888	27
8	225	492.212245615356	28
8	244	543.213891289426	29
8	249	549.44057354522	30
8	269	629.665273045887	31
8	282	653.950798212135	32
8	301	685.488888038174	33
8	304	688.108278330664	34
8	321	713.025290131375	35
8	337	755.08942285849	36
8	366	813.652866752022	37
8	378	854.718273597465	38
8	388	869.501422796828	39
8	393	872.074555685653	40
8	399	885.940095821376	41
8	414	933.691231392694	42
8	417	942.573588427271	43
8	427	965.959254875344	44
8	453	1035.858672734651	45
8	458	1045.842995555213	46
8	465	1072.475429547004	47
8	472	1078.432679024738	48
8	473	1089.875982916476	49
8	484	1174.962613632559	50
8	485	1176.590770521839	51
8	488	1180.017688646885	52
8	491	1186.830256527946	53
8	509	1219.138213178843	54
8	530	1257.667734130568	55
8	534	1261.138058045647	56
8	540	1303.386310364436	57
8	548	1332.71875120197	58
8	555	1348.125848320535	59
8	561	1353.425873793203	60
8	573	1386.208796353233	61
8	576	1403.821261488192	62
8	582	1420.727885932764	63
8	585	1427.065631815966	64
8	603	1440.931188336818	65
8	612	1468.856018349976	66
8	624	1487.253848647041	67
8	644	1535.096947062513	68
8	647	1536.838535506563	69
8	650	1539.507470857465	70
8	680	1605.261592856806	71
8	708	1682.664548940674	72
8	717	1700.284232015059	73
8	738	1733.582987817731	74
8	749	1751.008638708193	75
8	750	1751.685557572683	76
8	756	1763.249842688485	77
8	759	1778.985623243149	78
8	786	1820.450360711956	79
8	787	1823.532112842408	80
8	806	1904.546688226869	81
8	807	1906.978318542708	82
8	813	1929.063758555423	83
8	822	1942.442927720372	84
8	825	1956.973006914234	85
8	838	1984.731290729861	86
8	845	1991.374598066927	87
8	846	1994.523697775638	88
8	853	2005.006469668098	89
8	856	2011.456358088874	90
8	857	2023.1649259036	91
8	860	2025.848885288453	92
8	863	2027.741671543864	93
8	913	2159.808877498609	94
8	922	2182.237798138506	95
8	927	2204.46581840964	96
8	932	2208.546554074716	97
8	933	2209.585461513494	98
8	934	2211.578680257756	99
8	948	2261.38156676914	100
8	958	2292.21485476186	101
8	975	2333.332875297647	102
8	983	2354.791230544298	103
8	1022	2420.935542805967	104
8	1026	2429.593782590722	105
8	1036	2490.596351825845	106
9	186	374.215180666372	2.08038237926
9	192	391.577305578667	8.927396814776
9	195	405.134475958087	6.651601643285
9	209	455.703724691256	3.080438114349
9	216	474.080327149877	4.422985817141
9	221	480.993161975888	4.429815392054
9	225	492.212245615356	2.66913992871
9	244	543.213891289426	17.188266911907
9	249	549.44057354522	13.644146477236
9	269	629.665273045887	3.271304363695
9	282	653.950798212135	2.906020105483
9	301	685.488888038174	23.711864985752
9	304	688.108278330664	3.800199800808
9	321	713.025290131375	4.830858878286
9	337	755.08942285849	6.417671693817
9	366	813.652866752022	0.63887860396
9	378	854.718273597465	7.68599329236
9	388	869.501422796828	10.908932339944
9	393	872.074555685653	10.878658908713
9	399	885.940095821376	1.54608860376
9	414	933.691231392694	3.423308886869
9	417	942.573588427271	5.253377546458
9	427	965.959254875344	8.611086151736
9	453	1035.858672734651	2.246993859288
9	458	1045.842995555213	8.015040417834
9	465	1072.475429547004	11.008357782392
9	472	1078.432679024738	2.153705794923
9	473	1089.875982916476	12.950950246584
9	484	1174.962613632559	16.713783794195
9	485	1176.590770521839	15.531912545146
9	488	1180.017688646885	6.054811050132
9	491	1186.830256527946	6.728617809858
9	509	1219.138213178843	5.712753999907
9	530	1257.667734130568	0.650136804963
9	534	1261.138058045647	0.287544706418
9	540	1303.386310364436	3.447962479749
9	548	1332.71875120197	6.265742996913
9	555	1348.125848320535	0.66224289287
9	561	1353.425873793203	2.215225076452
9	573	1386.208796353233	1.010735421322
9	576	1403.821261488192	0.544806607306
9	582	1420.727885932764	1.550290096824
9	585	1427.065631815966	5.063619019104
9	603	1440.931188336818	4.208857809777
9	612	1468.856018349976	0.600763918081
9	624	1487.253848647041	0.525143495667
9	644	1535.096947062513	10.788503752199
9	647	1536.838535506563	8.650005849412
9	650	1539.507470857465	4.161224745483
9	680	1605.261592856806	0.042734698432
9	708	1682.664548940674	0.915999167163
9	717	1700.284232015059	14.87926732468
9	738	1733.582987817731	0.466570764394
9	749	1751.008638708193	5.222655508964
9	750	1751.685557572683	4.325263489204
9	756	1763.249842688485	1.191957406146
9	759	1778.985623243149	7.954392296789
9	786	1820.450360711956	17.181847366715
9	787	1823.532112842408	7.690010760072
9	806	1904.546688226869	5.077004396182
9	807	1906.978318542708	3.509269883416
9	813	1929.063758555423	0.277260608193
9	822	1942.442927720372	1.409367550283
9	825	1956.973006914234	4.837177861961
9	838	1984.731290729861	18.235482982037
9	845	1991.374598066927	23.500391846427
9	846	1994.523697775638	21.500038056499
9	853	2005.006469668098	30.356404641531
9	856	2011.456358088874	26.945451386228
9	857	2023.1649259036	38.297157957772
9	860	2025.848885288453	34.709677934235
9	863	2027.741671543864	25.059854126567
9	913	2159.808877498609	19.554139387269
9	922	2182.237798138506	38.362680896118
9	927	2204.46581840964	55.456715868252
9	932	2208.546554074716	54.999304107998
9	933	2209.585461513494	47.500643980512
9	934	2211.578680257756	49.385063110582
9	948	2261.38156676914	10.552429987401
9	958	2292.21485476186	5.18132783263
9	975	2333.332875297647	0.343731796873
9	983	2354.791230544298	3.079340420815
9	1022	2420.935542805967	6.318655889978
9	1026	2429.593782590722	1.48079668403
9	1036	2490.596351825845	35.120650830756
10	292	661.777023052422	6
10	334	748.671751164673	7
10	424	957.348168723608	8
10	490	1180.101638718088	9
10	529	1257.017597325605	10
10	679	1605.218858158374	11
10	904	2140.25473811134	12
10	982	2351.711890123483	13
11	1045	2500	0.0952
12	1045	2500	0.0424

