version 2
run experiments_easy_game_mode1-1527-20230308-12:07:28-26423
attr configname experiments_easy_game_mode1
attr datetime 20230308-12:07:28
attr experiment experiments_easy_game_mode1
attr inifile omnetpp.ini
attr iterationvars "$0=7, $1=1.5, $2=0"
attr iterationvarsf 7,1.5,0-
attr measurement "$0=7, $1=1.5, $2=0"
attr network Network
attr processid 26423
attr repetition 27
attr replication #27
attr resultdir results
attr runnumber 1527
attr seedset 27
param *.boss.arrival_mean 20
param *.boss.service_mean 7
param *.minion.arrival_mean 10
param *.minion.service_mean 1.5
param *.player.recover_rate_x 0
param **.minion.arrival_distribution 0
param **.minion.service_distribution 0
param **.boss.arrival_distribution 0
param **.boss.service_distribution 0

vector 0 Network.player boss_jobs_number_stat:vector ETV
attr source signal_boss_jobs_number
vector 1 Network.player boss_jobs_queue_number_stat:vector ETV
attr source signal_boss_jobs_queue_number
vector 2 Network.player boss_waiting_time_stat:vector ETV
attr source signal_boss_waiting_time
vector 3 Network.player boss_defeated_stat:vector ETV
attr source signal_boss_defeated
vector 4 Network.player boss_response_time_stat:vector ETV
attr source signal_boss_response_time
vector 5 Network.player minion_jobs_number_stat:vector ETV
attr source signal_minion_jobs_number
vector 6 Network.player minion_jobs_queue_number_stat:vector ETV
attr source signal_minion_jobs_queue_number
vector 7 Network.player minion_waiting_time_stat:vector ETV
attr source signal_minion_waiting_time
vector 8 Network.player minion_defeated_stat:vector ETV
attr source signal_minion_defeated
vector 9 Network.player minion_response_time_stat:vector ETV
attr source signal_minion_response_time
vector 10 Network.player minion_recovered_stat:vector ETV
attr source signal_minion_recovered
vector 11 Network.player minion_throughput:vector ETV
attr source signal_minion_throughput
vector 12 Network.player boss_throughput:vector ETV
attr source signal_boss_throughput
0	152	368.831334544424	1
0	155	389.110670426301	1
0	157	392.470448185346	2
0	164	406.857955342912	1
0	175	426.413797271532	1
0	177	428.216150320548	2
0	179	429.56556717974	3
0	189	439.368663954059	2
0	193	453.418493226684	3
0	196	460.280800586182	3
0	202	465.421436393306	4
0	204	468.331227174635	5
0	239	532.267433263168	1
0	241	532.47057314743	2
0	255	551.950976185058	1
0	261	562.599858163725	1
0	271	566.167079330092	2
0	282	579.735833390176	1
0	290	587.83685848517	1
0	292	588.269454985046	2
0	294	589.0392234944	3
0	300	605.436577269174	1
0	308	613.330361908421	1
0	310	614.946250003507	2
0	317	625.020069418922	1
0	325	635.493773863116	1
0	328	651.93908874367	1
0	332	659.479702327961	2
0	334	660.616830717591	3
0	340	690.058304817686	2
0	356	724.440579512485	1
0	365	742.817448148488	1
0	369	750.436630718249	2
0	372	761.240283547267	2
0	375	768.129381117159	2
0	379	776.291255989424	3
0	404	836.22542674111	1
0	406	836.732694464763	2
0	430	886.875913427531	1
0	432	888.751654418823	2
0	439	906.16981819263	1
0	449	944.66435003739	1
0	468	972.102428593869	1
0	478	985.612944754038	1
0	481	992.436786322198	1
0	487	998.179883676915	1
0	492	1002.472414686305	1
0	512	1031.121101478372	1
0	524	1059.823730250331	1
0	530	1075.364437874632	2
0	557	1170.367082354032	1
0	560	1180.109766243292	1
0	573	1212.664506770435	1
0	587	1233.325160215043	1
0	602	1269.88515367764	1
0	604	1273.651998237192	2
0	607	1278.05293541854	2
0	615	1302.754338639653	3
0	617	1305.574118968634	4
0	621	1306.39506238908	5
0	625	1314.661552737215	6
0	638	1332.983630237907	4
0	658	1359.150555686224	1
0	661	1363.697256601952	1
0	692	1444.719652389594	1
0	697	1450.44504109149	1
0	699	1450.821689742854	2
0	705	1461.008519765219	1
0	725	1486.539293398296	1
0	731	1511.564798431682	1
0	737	1522.912315959582	1
0	761	1554.359213467081	1
0	769	1573.55463600345	1
0	785	1618.60610114374	1
0	797	1647.732977010864	1
0	799	1652.716300240126	2
0	815	1699.903565993872	1
0	817	1700.164731177748	2
0	820	1704.09610134274	2
0	839	1732.70694833244	1
0	842	1739.431147144398	1
0	846	1743.465202265492	2
0	850	1749.865499275879	3
0	866	1781.419902188234	1
0	872	1794.03587162119	2
0	914	1854.253817291772	1
0	935	1890.882005542659	1
0	937	1890.959832848247	2
0	944	1906.259346134547	1
0	953	1951.970516732074	1
0	959	1972.812470886184	2
0	980	2016.313752534131	1
0	989	2026.634220104932	1
0	1013	2113.398607569763	1
0	1016	2122.859661153812	1
0	1037	2162.021322230943	1
0	1040	2165.890783281384	1
0	1043	2172.746428742143	1
0	1052	2189.245132141111	1
0	1067	2233.879336630663	1
0	1073	2239.267804364735	1
0	1085	2252.616090301519	1
0	1113	2345.378507754397	1
0	1121	2358.900332232856	1
0	1127	2370.717925181556	1
0	1139	2418.046391651931	1
0	1142	2423.759721043991	1
0	1148	2453.422693129747	1
0	1150	2458.491186840242	2
0	1160	2480.169364514395	1
1	152	368.831334544424	0
1	153	376.171375430312	0
1	155	389.110670426301	0
1	157	392.470448185346	1
1	158	392.926470547877	1
1	161	399.370363246008	0
1	164	406.857955342912	0
1	165	408.766885555236	0
1	175	426.413797271532	0
1	177	428.216150320548	1
1	179	429.56556717974	2
1	184	435.134001552188	2
1	187	438.017795110583	1
1	189	439.368663954059	1
1	193	453.418493226684	2
1	194	455.737007524676	2
1	196	460.280800586182	2
1	202	465.421436393306	3
1	204	468.331227174635	4
1	209	488.490583822104	4
1	210	489.259576213039	3
1	211	491.159724845139	2
1	212	496.414533222139	1
1	213	497.007284952779	0
1	239	532.267433263168	0
1	241	532.47057314743	1
1	242	534.584672263795	1
1	247	542.336835930008	0
1	255	551.950976185058	0
1	258	559.21467727818	0
1	261	562.599858163725	0
1	271	566.167079330092	1
1	274	569.395879844859	1
1	275	570.768398535612	0
1	282	579.735833390176	0
1	283	581.979715149761	0
1	290	587.83685848517	0
1	292	588.269454985046	1
1	294	589.0392234944	2
1	295	596.7550791034	2
1	296	601.149498167834	1
1	297	604.507726888054	0
1	300	605.436577269174	0
1	301	606.318439105789	0
1	308	613.330361908421	0
1	310	614.946250003507	1
1	311	620.181930476217	1
1	312	620.71977701456	0
1	317	625.020069418922	0
1	320	626.828882127343	0
1	325	635.493773863116	0
1	326	651.666272695015	0
1	328	651.93908874367	0
1	332	659.479702327961	1
1	334	660.616830717591	2
1	335	662.166573693688	2
1	336	673.22445514632	1
1	340	690.058304817686	1
1	343	702.455612415169	1
1	346	715.308649404114	0
1	356	724.440579512485	0
1	359	728.984908633648	0
1	365	742.817448148488	0
1	369	750.436630718249	1
1	370	754.63709832887	1
1	372	761.240283547267	1
1	373	765.494963435208	1
1	375	768.129381117159	1
1	379	776.291255989424	2
1	386	798.433649910069	2
1	389	806.772092653234	1
1	392	812.799307198399	0
1	404	836.22542674111	0
1	406	836.732694464763	1
1	411	849.221836825514	1
1	412	860.987130621196	0
1	430	886.875913427531	0
1	432	888.751654418823	1
1	433	895.943463198366	1
1	434	899.772476927832	0
1	439	906.16981819263	0
1	440	908.375725362577	0
1	449	944.66435003739	0
1	450	944.859171863141	0
1	468	972.102428593869	0
1	475	983.522667707573	0
1	478	985.612944754038	0
1	479	989.850650921513	0
1	481	992.436786322198	0
1	482	996.574416118771	0
1	487	998.179883676915	0
1	488	998.958955416552	0
1	492	1002.472414686305	0
1	497	1016.760746767573	0
1	512	1031.121101478372	0
1	517	1043.017408054862	0
1	524	1059.823730250331	0
1	530	1075.364437874632	1
1	531	1079.28030060266	1
1	532	1087.65529047538	0
1	557	1170.367082354032	0
1	558	1172.863935178422	0
1	560	1180.109766243292	0
1	561	1185.941225174823	0
1	573	1212.664506770435	0
1	574	1214.579914030742	0
1	587	1233.325160215043	0
1	588	1235.568788935094	0
1	602	1269.88515367764	0
1	604	1273.651998237192	1
1	605	1275.485356064976	1
1	607	1278.05293541854	1
1	615	1302.754338639653	2
1	617	1305.574118968634	3
1	621	1306.39506238908	4
1	625	1314.661552737215	5
1	630	1320.879919920774	5
1	631	1323.849021420787	4
1	634	1324.888862998058	3
1	638	1332.983630237907	3
1	639	1334.04443390966	3
1	646	1340.733579643861	2
1	649	1343.722504652748	1
1	650	1348.36811678329	0
1	658	1359.150555686224	0
1	659	1361.607979904498	0
1	661	1363.697256601952	0
1	662	1367.331931748307	0
1	692	1444.719652389594	0
1	695	1450.097374339718	0
1	697	1450.44504109149	0
1	699	1450.821689742854	1
1	700	1459.554831171761	1
1	701	1459.982653080023	0
1	705	1461.008519765219	0
1	706	1463.737184070974	0
1	725	1486.539293398296	0
1	726	1493.794202364181	0
1	731	1511.564798431682	0
1	732	1515.146945397675	0
1	737	1522.912315959582	0
1	744	1530.680201553452	0
1	761	1554.359213467081	0
1	764	1557.048218959985	0
1	769	1573.55463600345	0
1	770	1573.608537432276	0
1	785	1618.60610114374	0
1	792	1639.197703596197	0
1	797	1647.732977010864	0
1	799	1652.716300240126	1
1	800	1661.157596303766	1
1	807	1678.725581126092	0
1	815	1699.903565993872	0
1	817	1700.164731177748	1
1	818	1700.470011911012	1
1	820	1704.09610134274	1
1	823	1712.238217771141	1
1	826	1715.254064466349	0
1	839	1732.70694833244	0
1	840	1732.949647077652	0
1	842	1739.431147144398	0
1	846	1743.465202265492	1
1	850	1749.865499275879	2
1	851	1750.723274400981	2
1	858	1770.82214397291	1
1	859	1771.988481643071	0
1	866	1781.419902188234	0
1	872	1794.03587162119	1
1	875	1802.451783053149	1
1	878	1805.122408794017	0
1	914	1854.253817291772	0
1	919	1865.754456281579	0
1	935	1890.882005542659	0
1	937	1890.959832848247	1
1	938	1892.800998090985	1
1	939	1897.395708949231	0
1	944	1906.259346134547	0
1	945	1909.391850666868	0
1	953	1951.970516732074	0
1	959	1972.812470886184	1
1	962	1975.798362911515	1
1	967	1989.065167225268	0
1	980	2016.313752534131	0
1	985	2020.090478054637	0
1	989	2026.634220104932	0
1	996	2029.450990512158	0
1	1013	2113.398607569763	0
1	1014	2116.086315232589	0
1	1016	2122.859661153812	0
1	1017	2125.320218674471	0
1	1037	2162.021322230943	0
1	1038	2162.137378733958	0
1	1040	2165.890783281384	0
1	1041	2172.678321720575	0
1	1043	2172.746428742143	0
1	1044	2173.018938470949	0
1	1052	2189.245132141111	0
1	1053	2191.902697508494	0
1	1067	2233.879336630663	0
1	1068	2234.261192645376	0
1	1073	2239.267804364735	0
1	1074	2241.404363220663	0
1	1085	2252.616090301519	0
1	1086	2253.574536719549	0
1	1113	2345.378507754397	0
1	1116	2357.140483531529	0
1	1121	2358.900332232856	0
1	1122	2359.138003884905	0
1	1127	2370.717925181556	0
1	1130	2382.560606656384	0
1	1139	2418.046391651931	0
1	1140	2419.843484825749	0
1	1142	2423.759721043991	0
1	1143	2430.054787019735	0
1	1148	2453.422693129747	0
1	1150	2458.491186840242	1
1	1151	2458.918132217629	1
1	1152	2463.917033562193	0
1	1160	2480.169364514395	0
1	1163	2481.546800045214	0
2	152	368.831334544424	0
2	155	389.110670426301	0
2	158	392.926470547877	0.456022362531
2	164	406.857955342912	0
2	175	426.413797271532	0
2	184	435.134001552188	6.91785123164
2	187	438.017795110583	8.452227930843
2	194	455.737007524676	16.368343570617
2	209	488.490583822104	35.07209059542
2	210	489.259576213039	28.978775626857
2	211	491.159724845139	25.738288451833
2	212	496.414533222139	28.083306047504
2	239	532.267433263168	0
2	242	534.584672263795	2.114099116365
2	255	551.950976185058	0
2	261	562.599858163725	0
2	274	569.395879844859	3.228800514767
2	282	579.735833390176	0
2	290	587.83685848517	0
2	295	596.7550791034	8.485624118354
2	296	601.149498167834	12.110274673434
2	300	605.436577269174	0
2	308	613.330361908421	0
2	311	620.181930476217	5.23568047271
2	317	625.020069418922	0
2	325	635.493773863116	0
2	328	651.93908874367	0
2	335	662.166573693688	2.686871365727
2	336	673.22445514632	12.607624428729
2	343	702.455612415169	12.397307597483
2	356	724.440579512485	0
2	365	742.817448148488	0
2	370	754.63709832887	4.200467610621
2	373	765.494963435208	4.254679887941
2	386	798.433649910069	30.30426879291
2	389	806.772092653234	30.48083666381
2	404	836.22542674111	0
2	411	849.221836825514	12.489142360751
2	430	886.875913427531	0
2	433	895.943463198366	7.191808779543
2	439	906.16981819263	0
2	449	944.66435003739	0
2	468	972.102428593869	0
2	478	985.612944754038	0
2	481	992.436786322198	0
2	487	998.179883676915	0
2	492	1002.472414686305	0
2	512	1031.121101478372	0
2	524	1059.823730250331	0
2	531	1079.28030060266	3.915862728028
2	557	1170.367082354032	0
2	560	1180.109766243292	0
2	573	1212.664506770435	0
2	587	1233.325160215043	0
2	602	1269.88515367764	0
2	605	1275.485356064976	1.833357827784
2	630	1320.879919920774	42.826984502234
2	631	1323.849021420787	21.094682781134
2	634	1324.888862998058	19.314744029424
2	639	1334.04443390966	27.64937152058
2	646	1340.733579643861	26.072026906646
2	649	1343.722504652748	10.738874414841
2	658	1359.150555686224	0
2	661	1363.697256601952	0
2	692	1444.719652389594	0
2	697	1450.44504109149	0
2	700	1459.554831171761	8.733141428907
2	705	1461.008519765219	0
2	725	1486.539293398296	0
2	731	1511.564798431682	0
2	737	1522.912315959582	0
2	761	1554.359213467081	0
2	769	1573.55463600345	0
2	785	1618.60610114374	0
2	797	1647.732977010864	0
2	800	1661.157596303766	8.44129606364
2	815	1699.903565993872	0
2	818	1700.470011911012	0.305280733264
2	823	1712.238217771141	8.142116428401
2	839	1732.70694833244	0
2	842	1739.431147144398	0
2	851	1750.723274400981	7.258072135489
2	858	1770.82214397291	20.956644697031
2	866	1781.419902188234	0
2	875	1802.451783053149	8.415911431959
2	914	1854.253817291772	0
2	935	1890.882005542659	0
2	938	1892.800998090985	1.841165242738
2	944	1906.259346134547	0
2	953	1951.970516732074	0
2	962	1975.798362911515	2.985892025331
2	980	2016.313752534131	0
2	989	2026.634220104932	0
2	1013	2113.398607569763	0
2	1016	2122.859661153812	0
2	1037	2162.021322230943	0
2	1040	2165.890783281384	0
2	1043	2172.746428742143	0
2	1052	2189.245132141111	0
2	1067	2233.879336630663	0
2	1073	2239.267804364735	0
2	1085	2252.616090301519	0
2	1113	2345.378507754397	0
2	1121	2358.900332232856	0
2	1127	2370.717925181556	0
2	1139	2418.046391651931	0
2	1142	2423.759721043991	0
2	1148	2453.422693129747	0
2	1151	2458.918132217629	0.426945377387
2	1160	2480.169364514395	0
3	153	376.171375430312	14
3	158	392.926470547877	15
3	161	399.370363246008	16
3	165	408.766885555236	17
3	184	435.134001552188	18
3	187	438.017795110583	19
3	194	455.737007524676	20
3	209	488.490583822104	21
3	210	489.259576213039	22
3	211	491.159724845139	23
3	212	496.414533222139	24
3	213	497.007284952779	25
3	242	534.584672263795	26
3	247	542.336835930008	27
3	258	559.21467727818	28
3	274	569.395879844859	29
3	275	570.768398535612	30
3	283	581.979715149761	31
3	295	596.7550791034	32
3	296	601.149498167834	33
3	297	604.507726888054	34
3	301	606.318439105789	35
3	311	620.181930476217	36
3	312	620.71977701456	37
3	320	626.828882127343	38
3	326	651.666272695015	39
3	335	662.166573693688	40
3	336	673.22445514632	41
3	343	702.455612415169	42
3	346	715.308649404114	43
3	359	728.984908633648	44
3	370	754.63709832887	45
3	373	765.494963435208	46
3	386	798.433649910069	47
3	389	806.772092653234	48
3	392	812.799307198399	49
3	411	849.221836825514	50
3	412	860.987130621196	51
3	433	895.943463198366	52
3	434	899.772476927832	53
3	440	908.375725362577	54
3	450	944.859171863141	55
3	475	983.522667707573	56
3	479	989.850650921513	57
3	482	996.574416118771	58
3	488	998.958955416552	59
3	497	1016.760746767573	60
3	517	1043.017408054862	61
3	531	1079.28030060266	62
3	532	1087.65529047538	63
3	558	1172.863935178422	64
3	561	1185.941225174823	65
3	574	1214.579914030742	66
3	588	1235.568788935094	67
3	605	1275.485356064976	68
3	630	1320.879919920774	69
3	631	1323.849021420787	70
3	634	1324.888862998058	71
3	639	1334.04443390966	72
3	646	1340.733579643861	73
3	649	1343.722504652748	74
3	650	1348.36811678329	75
3	659	1361.607979904498	76
3	662	1367.331931748307	77
3	695	1450.097374339718	78
3	700	1459.554831171761	79
3	701	1459.982653080023	80
3	706	1463.737184070974	81
3	726	1493.794202364181	82
3	732	1515.146945397675	83
3	744	1530.680201553452	84
3	764	1557.048218959985	85
3	770	1573.608537432276	86
3	792	1639.197703596197	87
3	800	1661.157596303766	88
3	807	1678.725581126092	89
3	818	1700.470011911012	90
3	823	1712.238217771141	91
3	826	1715.254064466349	92
3	840	1732.949647077652	93
3	851	1750.723274400981	94
3	858	1770.82214397291	95
3	859	1771.988481643071	96
3	875	1802.451783053149	97
3	878	1805.122408794017	98
3	919	1865.754456281579	99
3	938	1892.800998090985	100
3	939	1897.395708949231	101
3	945	1909.391850666868	102
3	962	1975.798362911515	103
3	967	1989.065167225268	104
3	985	2020.090478054637	105
3	996	2029.450990512158	106
3	1014	2116.086315232589	107
3	1017	2125.320218674471	108
3	1038	2162.137378733958	109
3	1041	2172.678321720575	110
3	1044	2173.018938470949	111
3	1053	2191.902697508494	112
3	1068	2234.261192645376	113
3	1074	2241.404363220663	114
3	1086	2253.574536719549	115
3	1116	2357.140483531529	116
3	1122	2359.138003884905	117
3	1130	2382.560606656384	118
3	1140	2419.843484825749	119
3	1143	2430.054787019735	120
3	1151	2458.918132217629	121
3	1152	2463.917033562193	122
3	1163	2481.546800045214	123
4	153	376.171375430312	7.340040885888
4	158	392.926470547877	3.815800121576
4	161	399.370363246008	6.899915060662
4	165	408.766885555236	1.908930212324
4	184	435.134001552188	8.720204280656
4	187	438.017795110583	9.801644790035
4	194	455.737007524676	26.171440344936
4	209	488.490583822104	49.121919868045
4	210	489.259576213039	35.841082986355
4	211	491.159724845139	30.878924258957
4	212	496.414533222139	30.993096828833
4	213	497.007284952779	28.676057778144
4	242	534.584672263795	2.317239000627
4	247	542.336835930008	9.866262782578
4	258	559.21467727818	7.263701093122
4	274	569.395879844859	6.796021681134
4	275	570.768398535612	4.60131920552
4	283	581.979715149761	2.243881759585
4	295	596.7550791034	8.91822061823
4	296	601.149498167834	12.880043182788
4	297	604.507726888054	15.468503393654
4	301	606.318439105789	0.881861836615
4	311	620.181930476217	6.851568567796
4	312	620.71977701456	5.773527011053
4	320	626.828882127343	1.808812708421
4	326	651.666272695015	16.172498831899
4	335	662.166573693688	10.227484950018
4	336	673.22445514632	13.744752818359
4	343	702.455612415169	41.838781697578
4	346	715.308649404114	25.250344586428
4	359	728.984908633648	4.544329121163
4	370	754.63709832887	11.819650180382
4	373	765.494963435208	15.058332716959
4	386	798.433649910069	37.193366362802
4	389	806.772092653234	38.642711536075
4	392	812.799307198399	36.508051208975
4	411	849.221836825514	12.996410084404
4	412	860.987130621196	24.254436156433
4	433	895.943463198366	9.067549770835
4	434	899.772476927832	11.020822509009
4	440	908.375725362577	2.205907169947
4	450	944.859171863141	0.194821825751
4	475	983.522667707573	11.420239113704
4	479	989.850650921513	4.237706167475
4	482	996.574416118771	4.137629796573
4	488	998.958955416552	0.779071739637
4	497	1016.760746767573	14.288332081268
4	517	1043.017408054862	11.89630657649
4	531	1079.28030060266	19.456570352329
4	532	1087.65529047538	12.290852600748
4	558	1172.863935178422	2.49685282439
4	561	1185.941225174823	5.831458931531
4	574	1214.579914030742	1.915407260307
4	588	1235.568788935094	2.243628720051
4	605	1275.485356064976	5.600202387336
4	630	1320.879919920774	47.227921683582
4	631	1323.849021420787	45.796086002247
4	634	1324.888862998058	22.134524358405
4	639	1334.04443390966	28.470314941026
4	646	1340.733579643861	34.338517254781
4	649	1343.722504652748	29.060951915533
4	650	1348.36811678329	15.384486545383
4	659	1361.607979904498	2.457424218274
4	662	1367.331931748307	3.634675146355
4	695	1450.097374339718	5.377721950124
4	700	1459.554831171761	9.109790080271
4	701	1459.982653080023	9.160963337169
4	706	1463.737184070974	2.728664305755
4	726	1493.794202364181	7.254908965885
4	732	1515.146945397675	3.582146965993
4	744	1530.680201553452	7.76788559387
4	764	1557.048218959985	2.689005492904
4	770	1573.608537432276	0.053901428826
4	792	1639.197703596197	20.591602452457
4	800	1661.157596303766	13.424619292902
4	807	1678.725581126092	26.009280885966
4	818	1700.470011911012	0.56644591714
4	823	1712.238217771141	12.073486593393
4	826	1715.254064466349	11.157963123609
4	840	1732.949647077652	0.242698745212
4	851	1750.723274400981	11.292127256583
4	858	1770.82214397291	27.356941707418
4	859	1771.988481643071	22.122982367192
4	875	1802.451783053149	21.031880864915
4	878	1805.122408794017	11.086537172827
4	919	1865.754456281579	11.500638989807
4	938	1892.800998090985	1.918992548326
4	939	1897.395708949231	6.435876100984
4	945	1909.391850666868	3.132504532321
4	962	1975.798362911515	23.827846179441
4	967	1989.065167225268	16.252696339084
4	985	2020.090478054637	3.776725520506
4	996	2029.450990512158	2.816770407226
4	1014	2116.086315232589	2.687707662826
4	1017	2125.320218674471	2.460557520659
4	1038	2162.137378733958	0.116056503015
4	1041	2172.678321720575	6.787538439191
4	1044	2173.018938470949	0.272509728806
4	1053	2191.902697508494	2.657565367383
4	1068	2234.261192645376	0.381856014713
4	1074	2241.404363220663	2.136558855928
4	1086	2253.574536719549	0.95844641803
4	1116	2357.140483531529	11.761975777132
4	1122	2359.138003884905	0.237671652049
4	1130	2382.560606656384	11.842681474828
4	1140	2419.843484825749	1.797093173818
4	1143	2430.054787019735	6.295065975744
4	1151	2458.918132217629	5.495439087882
4	1152	2463.917033562193	5.425846721951
4	1163	2481.546800045214	1.377435530819
5	160	397.949897162909	1
5	167	411.471568794108	1
5	170	420.230523895315	1
5	173	423.626370630007	1
5	181	433.979021401061	2
5	183	434.997459550596	3
5	186	436.463358371075	4
5	191	447.3390123704	5
5	198	460.684561441791	6
5	200	462.209260645508	7
5	206	471.80022684556	8
5	208	482.12454206374	9
5	219	501.94602011595	6
5	224	504.152873383937	4
5	227	506.764314853358	4
5	233	516.720497587459	1
5	236	525.084643806652	1
5	244	535.727868267657	1
5	246	537.018404049543	2
5	251	549.634151508763	1
5	253	551.56278072711	2
5	257	559.039735221251	3
5	263	562.877230825547	3
5	265	562.954784115561	4
5	267	565.008561718757	5
5	269	565.430729754966	6
5	273	568.095931702788	7
5	277	571.345060115002	8
5	285	582.639845148548	6
5	303	608.459123519515	3
5	314	622.936509287057	1
5	319	626.569211957683	1
5	323	631.689727490417	1
5	330	659.407904956321	2
5	338	679.657796540349	3
5	342	701.327193298871	4
5	345	713.90688556752	5
5	350	720.086850441601	4
5	358	727.457895586696	1
5	361	733.313309239065	2
5	367	749.354740548087	1
5	377	776.276508363408	2
5	381	777.28756776415	3
5	383	787.378396625648	4
5	385	790.643643360153	5
5	388	800.042271453348	6
5	391	810.570050040013	7
5	399	817.725022293353	3
5	408	839.515907787457	1
5	410	841.688057020289	2
5	414	862.791215186079	3
5	419	869.66179205242	1
5	422	876.497427822597	1
5	425	877.513300832293	1
5	428	886.270071100297	1
5	437	902.631208475954	1
5	443	920.651580677701	1
5	446	936.116745149452	1
5	452	945.211657223258	1
5	455	958.429144938276	1
5	458	965.565444506313	1
5	461	965.738090244711	1
5	463	966.252998812531	2
5	465	969.063236927235	3
5	470	973.705196395811	3
5	472	975.394861851765	4
5	474	981.092227947627	5
5	485	997.320396551664	4
5	494	1004.131180005746	3
5	496	1009.808859567802	4
5	500	1017.930388621933	4
5	504	1022.419777073105	3
5	507	1025.300882535409	3
5	514	1037.939473070161	1
5	516	1039.229428256462	2
5	521	1049.658067412039	1
5	526	1061.06979822698	1
5	528	1071.919528734719	2
5	536	1095.56391038071	1
5	539	1103.766454948256	1
5	542	1110.542400832551	1
5	545	1123.489569023027	1
5	548	1124.218693505945	1
5	551	1152.481030913731	1
5	554	1158.036682929179	1
5	563	1197.501637819124	1
5	566	1200.101138425325	1
5	569	1211.222097662782	1
5	571	1211.487149992353	2
5	578	1222.187040243271	1
5	581	1229.137359880271	1
5	584	1230.742420810067	1
5	590	1241.579059115042	1
5	593	1243.485386794217	1
5	596	1259.835760388708	1
5	599	1261.215077139916	1
5	609	1281.144771545962	1
5	611	1286.813517328929	2
5	613	1290.596789691155	3
5	619	1305.962453132044	4
5	623	1312.995428447974	5
5	627	1317.376687031108	6
5	629	1320.216093915217	7
5	633	1324.53062450491	8
5	636	1325.881155680585	9
5	641	1335.272079502913	10
5	643	1335.806599765196	11
5	645	1336.515749204007	12
5	648	1342.118909752105	13
5	671	1384.84673323077	1
5	673	1386.893093362784	2
5	677	1391.798389368981	1
5	680	1403.202839834223	1
5	682	1403.920456823309	2
5	686	1420.273671390911	1
5	689	1440.173971765543	1
5	694	1449.518260083194	1
5	703	1460.539974187747	2
5	709	1467.848024405061	2
5	712	1469.095230486552	2
5	714	1469.985964243131	3
5	719	1480.056475120775	1
5	721	1481.268096005576	2
5	728	1497.204046517625	1
5	734	1518.875082245208	1
5	739	1525.623965836859	1
5	741	1527.782095723479	2
5	743	1529.596622400465	3
5	747	1531.339929549102	3
5	751	1539.152779654656	2
5	754	1540.895297695028	2
5	758	1552.853280549139	1
5	763	1554.383510647309	1
5	767	1572.961662525789	1
5	772	1575.714470806213	2
5	776	1583.828528454689	1
5	779	1598.809142560443	1
5	782	1613.696400737282	1
5	787	1621.907817106086	1
5	789	1622.31002925285	2
5	791	1624.358444580792	3
5	802	1663.757812045068	1
5	804	1666.416554936188	2
5	806	1672.64424859245	3
5	810	1680.526224448561	3
5	822	1710.318132843612	1
5	825	1714.293339977835	2
5	828	1718.084805929546	3
5	833	1725.484517705623	1
5	835	1726.975676381114	2
5	844	1743.294389927774	1
5	848	1744.421660029402	2
5	853	1755.941372109301	3
5	855	1763.668176453331	4
5	857	1770.221910112845	5
5	868	1790.113433138279	1
5	870	1791.583001313832	2
5	874	1801.182068619676	3
5	877	1804.051889999432	4
5	884	1816.993400954675	1
5	887	1819.834835112653	1
5	890	1821.339737626092	1
5	893	1825.14610524439	1
5	896	1828.541154669257	1
5	898	1828.717307722878	2
5	901	1829.424264379244	2
5	904	1834.169884143891	2
5	908	1839.70340363286	1
5	911	1843.468980196812	1
5	916	1855.716236927823	1
5	918	1861.806249823189	2
5	923	1869.715884528952	1
5	926	1871.377560180694	1
5	929	1873.028429102896	1
5	932	1877.997101666317	1
5	941	1903.84832920382	1
5	947	1910.23864665529	1
5	950	1923.432083544034	1
5	955	1960.039365907734	1
5	957	1968.288958189991	2
5	961	1975.326106130925	3
5	964	1980.980090044125	4
5	966	1982.684070999175	5
5	974	1999.747928399395	1
5	977	2010.133410106158	1
5	982	2016.520771429637	1
5	984	2016.753743487101	2
5	991	2027.642227590007	1
5	993	2027.966526499892	2
5	995	2028.769498076468	3
5	1001	2033.860208532856	1
5	1004	2049.487973869718	1
5	1007	2060.097357441063	1
5	1010	2069.15897862647	1
5	1019	2134.481129799226	1
5	1022	2142.074008915878	1
5	1025	2146.781749050434	1
5	1027	2146.784535038275	2
5	1030	2148.086814447921	2
5	1034	2158.500431566153	1
5	1046	2177.132411439339	1
5	1048	2177.799656478916	2
5	1055	2193.954006118779	1
5	1058	2206.945878337797	1
5	1061	2208.441259711246	1
5	1064	2209.854623402569	1
5	1070	2237.548623821418	1
5	1076	2241.407922421277	1
5	1078	2241.759293760181	2
5	1081	2244.136904210264	2
5	1088	2258.445932998195	1
5	1090	2258.665064005915	2
5	1094	2297.678040884525	1
5	1096	2298.970300673345	2
5	1098	2302.107353899143	3
5	1103	2309.250515592818	1
5	1106	2319.217539614216	1
5	1109	2341.010863998471	1
5	1111	2343.787560148528	2
5	1115	2356.269138156631	3
5	1118	2357.424688540216	4
5	1129	2371.83423005954	1
5	1133	2405.260191258795	1
5	1136	2409.872830752608	1
5	1145	2435.258806490311	1
5	1154	2465.030252498576	1
5	1157	2475.340337087485	1
5	1162	2480.296612191078	1
5	1166	2486.589377076387	1
5	1169	2495.328009140238	1
6	160	397.949897162909	0
6	162	400.221773260402	0
6	167	411.471568794108	0
6	168	411.49912876239	0
6	170	420.230523895315	0
6	171	420.933587140537	0
6	173	423.626370630007	0
6	181	433.979021401061	1
6	183	434.997459550596	2
6	186	436.463358371075	3
6	191	447.3390123704	4
6	198	460.684561441791	5
6	200	462.209260645508	6
6	206	471.80022684556	7
6	208	482.12454206374	8
6	214	498.676074326558	8
6	215	499.649248144767	7
6	216	500.207578616431	6
6	217	500.535195606497	5
6	219	501.94602011595	5
6	220	503.299139903151	5
6	221	503.845630792443	4
6	222	503.87960875694	3
6	224	504.152873383937	3
6	225	506.682266413961	3
6	227	506.764314853358	3
6	228	507.987156580034	3
6	229	510.77013462453	2
6	230	512.160271787469	1
6	231	514.563945020335	0
6	233	516.720497587459	0
6	234	519.548629520452	0
6	236	525.084643806652	0
6	237	529.236411102613	0
6	244	535.727868267657	0
6	246	537.018404049543	1
6	248	542.904043948343	1
6	249	543.27120451476	0
6	251	549.634151508763	0
6	253	551.56278072711	1
6	257	559.039735221251	2
6	259	561.392268651968	2
6	263	562.877230825547	2
6	265	562.954784115561	3
6	267	565.008561718757	4
6	269	565.430729754966	5
6	273	568.095931702788	6
6	277	571.345060115002	7
6	278	572.794356672685	7
6	279	573.586507827619	6
6	280	576.965597732429	5
6	285	582.639845148548	5
6	286	582.6659855907	5
6	287	585.689359364361	4
6	288	587.10272413868	3
6	298	605.225070802157	2
6	303	608.459123519515	2
6	304	609.0524858243	2
6	305	609.852776938882	1
6	306	611.781284340661	0
6	314	622.936509287057	0
6	315	624.226705519484	0
6	319	626.569211957683	0
6	321	627.952175339356	0
6	323	631.689727490417	0
6	330	659.407904956321	1
6	338	679.657796540349	2
6	342	701.327193298871	3
6	345	713.90688556752	4
6	347	717.370762748196	4
6	348	719.543734806083	3
6	350	720.086850441601	3
6	351	720.509398386852	3
6	352	720.884115059806	2
6	353	722.118554638191	1
6	354	724.189389104486	0
6	358	727.457895586696	0
6	361	733.313309239065	1
6	362	737.787099807968	1
6	363	739.98407600964	0
6	367	749.354740548087	0
6	377	776.276508363408	1
6	381	777.28756776415	2
6	383	787.378396625648	3
6	385	790.643643360153	4
6	388	800.042271453348	5
6	391	810.570050040013	6
6	393	813.004770521691	6
6	394	813.718255018874	5
6	395	814.483154615689	4
6	396	815.165504916934	3
6	397	816.725250394635	2
6	399	817.725022293353	2
6	400	819.242323108362	2
6	401	819.267492983476	1
6	402	819.492398843523	0
6	408	839.515907787457	0
6	410	841.688057020289	1
6	414	862.791215186079	2
6	415	863.175609472969	2
6	416	864.664307482682	1
6	417	864.74787454786	0
6	419	869.66179205242	0
6	420	873.500907126537	0
6	422	876.497427822597	0
6	423	876.93152559975	0
6	425	877.513300832293	0
6	426	878.023269984304	0
6	428	886.270071100297	0
6	435	900.388451362433	0
6	437	902.631208475954	0
6	441	911.463578298024	0
6	443	920.651580677701	0
6	444	921.352270303474	0
6	446	936.116745149452	0
6	447	936.262926281534	0
6	452	945.211657223258	0
6	453	946.098553409941	0
6	455	958.429144938276	0
6	456	960.33707641872	0
6	458	965.565444506313	0
6	459	965.650869080414	0
6	461	965.738090244711	0
6	463	966.252998812531	1
6	465	969.063236927235	2
6	466	970.152228243297	2
6	470	973.705196395811	2
6	472	975.394861851765	3
6	474	981.092227947627	4
6	476	985.16086302456	4
6	483	996.72163680201	3
6	485	997.320396551664	3
6	489	999.837463962911	3
6	490	1000.011974980089	2
6	494	1004.131180005746	2
6	496	1009.808859567802	3
6	498	1017.233078365664	3
6	500	1017.930388621933	3
6	501	1021.255194235657	3
6	502	1022.126330523591	2
6	504	1022.419777073105	2
6	505	1023.197737434371	2
6	507	1025.300882535409	2
6	508	1025.742154525043	2
6	509	1025.985988598183	1
6	510	1027.656381248105	0
6	514	1037.939473070161	0
6	516	1039.229428256462	1
6	518	1044.089305711548	1
6	519	1044.368288242562	0
6	521	1049.658067412039	0
6	522	1050.829451189124	0
6	526	1061.06979822698	0
6	528	1071.919528734719	1
6	533	1088.118918883084	1
6	534	1088.126312386519	0
6	536	1095.56391038071	0
6	537	1098.617404669342	0
6	539	1103.766454948256	0
6	540	1104.326092841426	0
6	542	1110.542400832551	0
6	543	1110.793557126114	0
6	545	1123.489569023027	0
6	546	1123.601530395867	0
6	548	1124.218693505945	0
6	549	1128.090323270545	0
6	551	1152.481030913731	0
6	552	1153.217475681244	0
6	554	1158.036682929179	0
6	555	1161.910887068128	0
6	563	1197.501637819124	0
6	564	1198.863551167627	0
6	566	1200.101138425325	0
6	567	1200.30652356486	0
6	569	1211.222097662782	0
6	571	1211.487149992353	1
6	575	1216.048589746311	1
6	576	1216.921432420954	0
6	578	1222.187040243271	0
6	579	1223.652837026114	0
6	581	1229.137359880271	0
6	582	1230.180992738323	0
6	584	1230.742420810067	0
6	585	1231.487425068431	0
6	590	1241.579059115042	0
6	591	1243.096047130171	0
6	593	1243.485386794217	0
6	594	1246.585665414797	0
6	596	1259.835760388708	0
6	597	1260.858805941452	0
6	599	1261.215077139916	0
6	600	1264.961093429861	0
6	609	1281.144771545962	0
6	611	1286.813517328929	1
6	613	1290.596789691155	2
6	619	1305.962453132044	3
6	623	1312.995428447974	4
6	627	1317.376687031108	5
6	629	1320.216093915217	6
6	633	1324.53062450491	7
6	636	1325.881155680585	8
6	641	1335.272079502913	9
6	643	1335.806599765196	10
6	645	1336.515749204007	11
6	648	1342.118909752105	12
6	651	1351.235778763907	12
6	652	1351.743409764343	11
6	653	1356.109064097123	10
6	654	1358.732638851459	9
6	655	1358.83107546982	8
6	656	1359.093434011362	7
6	663	1368.232728597193	6
6	664	1370.336104003242	5
6	665	1371.365721770428	4
6	666	1372.222537443512	3
6	667	1372.330732519046	2
6	668	1376.66520563753	1
6	669	1376.98556031535	0
6	671	1384.84673323077	0
6	673	1386.893093362784	1
6	674	1387.287289763773	1
6	675	1387.393337458079	0
6	677	1391.798389368981	0
6	678	1398.894457787332	0
6	680	1403.202839834223	0
6	682	1403.920456823309	1
6	683	1404.629926944869	1
6	684	1405.192204362923	0
6	686	1420.273671390911	0
6	687	1420.871151074248	0
6	689	1440.173971765543	0
6	690	1440.223273463598	0
6	694	1449.518260083194	0
6	703	1460.539974187747	1
6	707	1465.547003387887	1
6	709	1467.848024405061	1
6	710	1468.123664505451	1
6	712	1469.095230486552	1
6	714	1469.985964243131	2
6	715	1474.472500580908	2
6	716	1474.722942179517	1
6	717	1475.060678802769	0
6	719	1480.056475120775	0
6	721	1481.268096005576	1
6	722	1482.986345606936	1
6	723	1485.229113519354	0
6	728	1497.204046517625	0
6	729	1498.366283478487	0
6	734	1518.875082245208	0
6	735	1519.603931230423	0
6	739	1525.623965836859	0
6	741	1527.782095723479	1
6	743	1529.596622400465	2
6	745	1530.860734778802	2
6	747	1531.339929549102	2
6	748	1534.878329252459	2
6	749	1537.52294622966	1
6	751	1539.152779654656	1
6	752	1539.665030584953	1
6	754	1540.895297695028	1
6	755	1542.504868362215	1
6	756	1542.642840655682	0
6	758	1552.853280549139	0
6	759	1553.17898093596	0
6	763	1554.383510647309	0
6	765	1557.809412434719	0
6	767	1572.961662525789	0
6	772	1575.714470806213	1
6	773	1576.784140764137	1
6	774	1579.392466946078	0
6	776	1583.828528454689	0
6	777	1584.790449312448	0
6	779	1598.809142560443	0
6	780	1600.669728789739	0
6	782	1613.696400737282	0
6	783	1613.984102086267	0
6	787	1621.907817106086	0
6	789	1622.31002925285	1
6	791	1624.358444580792	2
6	793	1642.284859108126	2
6	794	1642.731225060515	1
6	795	1643.004437320037	0
6	802	1663.757812045068	0
6	804	1666.416554936188	1
6	806	1672.64424859245	2
6	808	1678.97643597174	2
6	810	1680.526224448561	2
6	811	1683.310192197359	2
6	812	1684.577790947409	1
6	813	1685.057254976602	0
6	822	1710.318132843612	0
6	825	1714.293339977835	1
6	828	1718.084805929546	2
6	829	1718.277499701412	2
6	830	1722.723560477991	1
6	831	1724.769611543606	0
6	833	1725.484517705623	0
6	835	1726.975676381114	1
6	836	1727.083612679372	1
6	837	1728.329348469841	0
6	844	1743.294389927774	0
6	848	1744.421660029402	1
6	853	1755.941372109301	2
6	855	1763.668176453331	3
6	857	1770.221910112845	4
6	860	1772.266811232867	4
6	861	1774.11908153209	3
6	862	1774.660202360836	2
6	863	1775.774969133328	1
6	864	1776.165615457363	0
6	868	1790.113433138279	0
6	870	1791.583001313832	1
6	874	1801.182068619676	2
6	877	1804.051889999432	3
6	879	1806.055114160707	3
6	880	1806.389822321517	2
6	881	1806.891306708397	1
6	882	1807.230017674271	0
6	884	1816.993400954675	0
6	885	1818.657487605528	0
6	887	1819.834835112653	0
6	888	1820.602728265223	0
6	890	1821.339737626092	0
6	891	1821.774386310246	0
6	893	1825.14610524439	0
6	894	1825.351559360665	0
6	896	1828.541154669257	0
6	898	1828.717307722878	1
6	899	1829.202387132726	1
6	901	1829.424264379244	1
6	902	1831.423005164935	1
6	904	1834.169884143891	1
6	905	1834.356170940404	1
6	906	1834.378632081691	0
6	908	1839.70340363286	0
6	909	1840.403457807128	0
6	911	1843.468980196812	0
6	912	1846.361377308028	0
6	916	1855.716236927823	0
6	918	1861.806249823189	1
6	920	1867.296618789002	1
6	921	1868.198053899941	0
6	923	1869.715884528952	0
6	924	1870.054302004311	0
6	926	1871.377560180694	0
6	927	1872.079497503295	0
6	929	1873.028429102896	0
6	930	1873.241477329075	0
6	932	1877.997101666317	0
6	933	1878.292242907152	0
6	941	1903.84832920382	0
6	942	1903.995989760846	0
6	947	1910.23864665529	0
6	948	1911.173347227525	0
6	950	1923.432083544034	0
6	951	1923.535872168554	0
6	955	1960.039365907734	0
6	957	1968.288958189991	1
6	961	1975.326106130925	2
6	964	1980.980090044125	3
6	966	1982.684070999175	4
6	968	1993.389317390414	4
6	969	1994.036286366844	3
6	970	1996.030766124078	2
6	971	1996.448607089502	1
6	972	1999.34328815084	0
6	974	1999.747928399395	0
6	975	2000.022823184008	0
6	977	2010.133410106158	0
6	978	2011.132104878264	0
6	982	2016.520771429637	0
6	984	2016.753743487101	1
6	986	2024.093242963572	1
6	987	2025.175153809942	0
6	991	2027.642227590007	0
6	993	2027.966526499892	1
6	995	2028.769498076468	2
6	997	2030.627209262148	2
6	998	2031.622335851761	1
6	999	2032.090170343717	0
6	1001	2033.860208532856	0
6	1002	2035.151438067931	0
6	1004	2049.487973869718	0
6	1005	2049.691474618331	0
6	1007	2060.097357441063	0
6	1008	2060.999115135798	0
6	1010	2069.15897862647	0
6	1011	2071.577207415569	0
6	1019	2134.481129799226	0
6	1020	2140.392584853472	0
6	1022	2142.074008915878	0
6	1023	2144.28534637871	0
6	1025	2146.781749050434	0
6	1027	2146.784535038275	1
6	1028	2147.258082619682	1
6	1030	2148.086814447921	1
6	1031	2148.461803327078	1
6	1032	2150.55729343301	0
6	1034	2158.500431566153	0
6	1035	2158.542672309265	0
6	1046	2177.132411439339	0
6	1048	2177.799656478916	1
6	1049	2177.932821135859	1
6	1050	2178.325618203479	0
6	1055	2193.954006118779	0
6	1056	2196.009481972103	0
6	1058	2206.945878337797	0
6	1059	2208.25167244219	0
6	1061	2208.441259711246	0
6	1062	2209.039239095839	0
6	1064	2209.854623402569	0
6	1065	2211.356744187572	0
6	1070	2237.548623821418	0
6	1071	2238.78917250125	0
6	1076	2241.407922421277	0
6	1078	2241.759293760181	1
6	1079	2243.657410935581	1
6	1081	2244.136904210264	1
6	1082	2246.235444648767	1
6	1083	2247.914007653472	0
6	1088	2258.445932998195	0
6	1090	2258.665064005915	1
6	1091	2259.027230672889	1
6	1092	2259.628223657519	0
6	1094	2297.678040884525	0
6	1096	2298.970300673345	1
6	1098	2302.107353899143	2
6	1099	2303.304264519797	2
6	1100	2303.426321318388	1
6	1101	2304.897755948622	0
6	1103	2309.250515592818	0
6	1104	2309.64321635141	0
6	1106	2319.217539614216	0
6	1107	2321.729630714165	0
6	1109	2341.010863998471	0
6	1111	2343.787560148528	1
6	1115	2356.269138156631	2
6	1118	2357.424688540216	3
6	1119	2358.857410637147	3
6	1123	2360.099631123469	2
6	1124	2363.759629470701	1
6	1125	2365.558237853887	0
6	1129	2371.83423005954	0
6	1131	2384.467325691966	0
6	1133	2405.260191258795	0
6	1134	2405.467180422866	0
6	1136	2409.872830752608	0
6	1137	2411.657697132427	0
6	1145	2435.258806490311	0
6	1146	2435.535977963931	0
6	1154	2465.030252498576	0
6	1155	2465.560540848836	0
6	1157	2475.340337087485	0
6	1158	2477.547890636336	0
6	1162	2480.296612191078	0
6	1164	2484.129486843672	0
6	1166	2486.589377076387	0
6	1167	2487.150445908487	0
6	1169	2495.328009140238	0
6	1170	2497.033115883881	0
7	161	399.370363246008	1.420466083099
7	167	411.471568794108	0
7	170	420.230523895315	0
7	173	423.626370630007	0
7	213	497.007284952779	70.593487681247
7	214	498.676074326558	64.697052925497
7	215	499.649248144767	64.651788594171
7	216	500.207578616431	63.744220245356
7	217	500.535195606497	53.196183236097
7	220	503.299139903151	42.61457846136
7	221	503.845630792443	41.636370146935
7	222	503.87960875694	32.07938191138
7	225	506.682266413961	24.557724350221
7	228	507.987156580034	6.041136464084
7	229	510.77013462453	6.617261240593
7	230	512.160271787469	5.395956934111
7	233	516.720497587459	0
7	236	525.084643806652	0
7	247	542.336835930008	6.608967662351
7	248	542.904043948343	5.8856398988
7	251	549.634151508763	0
7	258	559.21467727818	7.65189655107
7	259	561.392268651968	9.44129246691
7	275	570.768398535612	11.728663314361
7	278	572.794356672685	10.19449850896
7	279	573.586507827619	10.709277002072
7	280	576.965597732429	14.010813616868
7	283	581.979715149761	16.971153431004
7	286	582.6659855907	17.235255835734
7	287	585.689359364361	17.593427661573
7	288	587.10272413868	15.757664023678
7	297	604.507726888054	24.771893497878
7	298	605.225070802157	22.585225653609
7	301	606.318439105789	18.481580620619
7	304	609.0524858243	3.615908555126
7	305	609.852776938882	1.393653419367
7	314	622.936509287057	0
7	320	626.828882127343	0.25967016966
7	323	631.689727490417	0
7	326	651.666272695015	16.172498831899
7	346	715.308649404114	63.369560660444
7	347	717.370762748196	57.962857791875
7	348	719.543734806083	39.885938265734
7	351	720.509398386852	19.182205087981
7	352	720.884115059806	6.977229492286
7	353	722.118554638191	2.03170419659
7	359	728.984908633648	1.527013046952
7	362	737.787099807968	4.473790568903
7	392	812.799307198399	63.444566650312
7	393	813.004770521691	36.728262158283
7	394	813.718255018874	36.430687254724
7	395	814.483154615689	27.104757990041
7	396	815.165504916934	24.521861556781
7	397	816.725250394635	16.682978941287
7	400	819.242323108362	8.672273068349
7	401	819.267492983476	1.542470690123
7	412	860.987130621196	21.471222833739
7	415	863.175609472969	21.48755245268
7	416	864.664307482682	1.873092296603
7	419	869.66179205242	0
7	422	876.497427822597	0
7	425	877.513300832293	0
7	428	886.270071100297	0
7	434	899.772476927832	12.896563500301
7	437	902.631208475954	0
7	440	908.375725362577	2.205907169947
7	443	920.651580677701	0
7	446	936.116745149452	0
7	452	945.211657223258	0
7	455	958.429144938276	0
7	458	965.565444506313	0
7	461	965.738090244711	0
7	466	970.152228243297	3.899229430766
7	475	983.522667707573	14.459430780338
7	476	985.16086302456	13.058434430691
7	479	989.850650921513	16.145454525702
7	482	996.574416118771	21.179554267006
7	483	996.72163680201	15.629408854383
7	488	998.958955416552	13.346010662514
7	489	999.837463962911	7.400677640713
7	490	1000.011974980089	2.691578428425
7	497	1016.760746767573	18.580863090658
7	498	1017.233078365664	14.760663679359
7	501	1021.255194235657	17.124014229911
7	502	1022.126330523591	12.317470955789
7	505	1023.197737434371	5.267348812438
7	508	1025.742154525043	3.322377451938
7	509	1025.985988598183	0.685106062774
7	517	1043.017408054862	5.077934984701
7	518	1044.089305711548	4.859877455086
7	521	1049.658067412039	0
7	532	1087.65529047538	26.5854922484
7	533	1088.118918883084	16.199390148365
7	536	1095.56391038071	0
7	539	1103.766454948256	0
7	542	1110.542400832551	0
7	545	1123.489569023027	0
7	548	1124.218693505945	0
7	551	1152.481030913731	0
7	554	1158.036682929179	0
7	563	1197.501637819124	0
7	566	1200.101138425325	0
7	569	1211.222097662782	0
7	574	1214.579914030742	3.092764038389
7	575	1216.048589746311	3.384082975876
7	578	1222.187040243271	0
7	581	1229.137359880271	0
7	584	1230.742420810067	0
7	590	1241.579059115042	0
7	593	1243.485386794217	0
7	596	1259.835760388708	0
7	599	1261.215077139916	0
7	650	1348.36811678329	67.223345237328
7	651	1351.235778763907	64.422261434978
7	652	1351.743409764343	61.146620073188
7	653	1356.109064097123	50.146610965079
7	654	1358.732638851459	45.737210403485
7	655	1358.83107546982	41.454388438712
7	656	1359.093434011362	38.877340096145
7	659	1361.607979904498	37.077355399588
7	662	1367.331931748307	41.450776067722
7	663	1368.232728597193	32.96064909428
7	664	1370.336104003242	34.529504238046
7	665	1371.365721770428	34.849972566421
7	666	1372.222537443512	30.103627691407
7	667	1372.330732519046	13.180176832822
7	668	1376.66520563753	12.967949035578
7	671	1384.84673323077	0
7	674	1387.287289763773	0.394196400989
7	677	1391.798389368981	0
7	680	1403.202839834223	0
7	683	1404.629926944869	0.70947012156
7	686	1420.273671390911	0
7	689	1440.173971765543	0
7	695	1450.097374339718	0.579114256524
7	701	1459.982653080023	9.537611988533
7	706	1463.737184070974	3.197209883227
7	707	1465.547003387887	4.538483622668
7	710	1468.123664505451	0.27564010039
7	715	1474.472500580908	5.377270094356
7	716	1474.722942179517	4.736977936386
7	719	1480.056475120775	0
7	722	1482.986345606936	1.71824960136
7	728	1497.204046517625	0
7	734	1518.875082245208	0
7	744	1530.680201553452	5.056235716593
7	745	1530.860734778802	3.078639055323
7	748	1534.878329252459	5.281706851994
7	749	1537.52294622966	6.183016680558
7	752	1539.665030584953	0.512250930297
7	755	1542.504868362215	1.609570667187
7	758	1552.853280549139	0
7	764	1557.048218959985	2.664708312676
7	767	1572.961662525789	0
7	770	1573.608537432276	0.053901428826
7	773	1576.784140764137	1.069669957924
7	776	1583.828528454689	0
7	779	1598.809142560443	0
7	782	1613.696400737282	0
7	792	1639.197703596197	17.289886490111
7	793	1642.284859108126	19.974829855276
7	794	1642.731225060515	18.372780479723
7	807	1678.725581126092	14.967769081024
7	808	1678.97643597174	12.559881035552
7	811	1683.310192197359	10.665943604909
7	812	1684.577790947409	4.051566498848
7	826	1715.254064466349	4.935931622737
7	829	1718.277499701412	3.984159723577
7	830	1722.723560477991	4.638754548445
7	833	1725.484517705623	0
7	836	1727.083612679372	0.107936298258
7	859	1771.988481643071	28.694091715297
7	860	1772.266811232867	27.845151203465
7	861	1774.11908153209	18.177709422789
7	862	1774.660202360836	10.992025907505
7	863	1775.774969133328	5.553059020483
7	878	1805.122408794017	15.008975655738
7	879	1806.055114160707	14.472112846875
7	880	1806.389822321517	5.207753701841
7	881	1806.891306708397	2.839416708965
7	884	1816.993400954675	0
7	887	1819.834835112653	0
7	890	1821.339737626092	0
7	893	1825.14610524439	0
7	896	1828.541154669257	0
7	899	1829.202387132726	0.485079409848
7	902	1831.423005164935	1.998740785691
7	905	1834.356170940404	0.186286796513
7	908	1839.70340363286	0
7	911	1843.468980196812	0
7	919	1865.754456281579	10.038219353756
7	920	1867.296618789002	5.490368965813
7	923	1869.715884528952	0
7	926	1871.377560180694	0
7	929	1873.028429102896	0
7	932	1877.997101666317	0
7	941	1903.84832920382	0
7	947	1910.23864665529	0
7	950	1923.432083544034	0
7	967	1989.065167225268	29.025801317534
7	968	1993.389317390414	25.100359200423
7	969	1994.036286366844	18.710180235919
7	970	1996.030766124078	15.050676079953
7	971	1996.448607089502	13.764536090327
7	974	1999.747928399395	0
7	977	2010.133410106158	0
7	985	2020.090478054637	3.569706625
7	986	2024.093242963572	7.339499476471
7	996	2029.450990512158	1.808762922151
7	997	2030.627209262148	2.660682762256
7	998	2031.622335851761	2.852837775293
7	1001	2033.860208532856	0
7	1004	2049.487973869718	0
7	1007	2060.097357441063	0
7	1010	2069.15897862647	0
7	1019	2134.481129799226	0
7	1022	2142.074008915878	0
7	1025	2146.781749050434	0
7	1028	2147.258082619682	0.473547581407
7	1031	2148.461803327078	0.374988879157
7	1034	2158.500431566153	0
7	1046	2177.132411439339	0
7	1049	2177.932821135859	0.133164656943
7	1055	2193.954006118779	0
7	1058	2206.945878337797	0
7	1061	2208.441259711246	0
7	1064	2209.854623402569	0
7	1070	2237.548623821418	0
7	1076	2241.407922421277	0
7	1079	2243.657410935581	1.8981171754
7	1082	2246.235444648767	2.098540438503
7	1088	2258.445932998195	0
7	1091	2259.027230672889	0.362166666974
7	1094	2297.678040884525	0
7	1099	2303.304264519797	4.333963846452
7	1100	2303.426321318388	1.318967419245
7	1103	2309.250515592818	0
7	1106	2319.217539614216	0
7	1109	2341.010863998471	0
7	1116	2357.140483531529	13.352923383001
7	1119	2358.857410637147	13.47890288275
7	1122	2359.138003884905	2.868865728274
7	1123	2360.099631123469	2.674942583253
7	1124	2363.759629470701	4.859297237845
7	1130	2382.560606656384	10.726376596844
7	1133	2405.260191258795	0
7	1136	2409.872830752608	0
7	1145	2435.258806490311	0
7	1154	2465.030252498576	0
7	1157	2475.340337087485	0
7	1163	2481.546800045214	1.250187854136
7	1166	2486.589377076387	0
7	1169	2495.328009140238	0
8	162	400.221773260402	38
8	168	411.49912876239	39
8	171	420.933587140537	40
8	214	498.676074326558	41
8	215	499.649248144767	42
8	216	500.207578616431	43
8	217	500.535195606497	44
8	220	503.299139903151	45
8	221	503.845630792443	46
8	222	503.87960875694	47
8	225	506.682266413961	48
8	228	507.987156580034	49
8	229	510.77013462453	50
8	230	512.160271787469	51
8	231	514.563945020335	52
8	234	519.548629520452	53
8	237	529.236411102613	54
8	248	542.904043948343	55
8	249	543.27120451476	56
8	259	561.392268651968	57
8	278	572.794356672685	58
8	279	573.586507827619	59
8	280	576.965597732429	60
8	286	582.6659855907	61
8	287	585.689359364361	62
8	288	587.10272413868	63
8	298	605.225070802157	64
8	304	609.0524858243	65
8	305	609.852776938882	66
8	306	611.781284340661	67
8	315	624.226705519484	68
8	321	627.952175339356	69
8	347	717.370762748196	70
8	348	719.543734806083	71
8	351	720.509398386852	72
8	352	720.884115059806	73
8	353	722.118554638191	74
8	354	724.189389104486	75
8	362	737.787099807968	76
8	363	739.98407600964	77
8	393	813.004770521691	78
8	394	813.718255018874	79
8	395	814.483154615689	80
8	396	815.165504916934	81
8	397	816.725250394635	82
8	400	819.242323108362	83
8	401	819.267492983476	84
8	402	819.492398843523	85
8	415	863.175609472969	86
8	416	864.664307482682	87
8	417	864.74787454786	88
8	420	873.500907126537	89
8	423	876.93152559975	90
8	426	878.023269984304	91
8	435	900.388451362433	92
8	441	911.463578298024	93
8	444	921.352270303474	94
8	447	936.262926281534	95
8	453	946.098553409941	96
8	456	960.33707641872	97
8	459	965.650869080414	98
8	466	970.152228243297	99
8	476	985.16086302456	100
8	483	996.72163680201	101
8	489	999.837463962911	102
8	490	1000.011974980089	103
8	498	1017.233078365664	104
8	501	1021.255194235657	105
8	502	1022.126330523591	106
8	505	1023.197737434371	107
8	508	1025.742154525043	108
8	509	1025.985988598183	109
8	510	1027.656381248105	110
8	518	1044.089305711548	111
8	519	1044.368288242562	112
8	522	1050.829451189124	113
8	533	1088.118918883084	114
8	534	1088.126312386519	115
8	537	1098.617404669342	116
8	540	1104.326092841426	117
8	543	1110.793557126114	118
8	546	1123.601530395867	119
8	549	1128.090323270545	120
8	552	1153.217475681244	121
8	555	1161.910887068128	122
8	564	1198.863551167627	123
8	567	1200.30652356486	124
8	575	1216.048589746311	125
8	576	1216.921432420954	126
8	579	1223.652837026114	127
8	582	1230.180992738323	128
8	585	1231.487425068431	129
8	591	1243.096047130171	130
8	594	1246.585665414797	131
8	597	1260.858805941452	132
8	600	1264.961093429861	133
8	651	1351.235778763907	134
8	652	1351.743409764343	135
8	653	1356.109064097123	136
8	654	1358.732638851459	137
8	655	1358.83107546982	138
8	656	1359.093434011362	139
8	663	1368.232728597193	140
8	664	1370.336104003242	141
8	665	1371.365721770428	142
8	666	1372.222537443512	143
8	667	1372.330732519046	144
8	668	1376.66520563753	145
8	669	1376.98556031535	146
8	674	1387.287289763773	147
8	675	1387.393337458079	148
8	678	1398.894457787332	149
8	683	1404.629926944869	150
8	684	1405.192204362923	151
8	687	1420.871151074248	152
8	690	1440.223273463598	153
8	707	1465.547003387887	154
8	710	1468.123664505451	155
8	715	1474.472500580908	156
8	716	1474.722942179517	157
8	717	1475.060678802769	158
8	722	1482.986345606936	159
8	723	1485.229113519354	160
8	729	1498.366283478487	161
8	735	1519.603931230423	162
8	745	1530.860734778802	163
8	748	1534.878329252459	164
8	749	1537.52294622966	165
8	752	1539.665030584953	166
8	755	1542.504868362215	167
8	756	1542.642840655682	168
8	759	1553.17898093596	169
8	765	1557.809412434719	170
8	773	1576.784140764137	171
8	774	1579.392466946078	172
8	777	1584.790449312448	173
8	780	1600.669728789739	174
8	783	1613.984102086267	175
8	793	1642.284859108126	176
8	794	1642.731225060515	177
8	795	1643.004437320037	178
8	808	1678.97643597174	179
8	811	1683.310192197359	180
8	812	1684.577790947409	181
8	813	1685.057254976602	182
8	829	1718.277499701412	183
8	830	1722.723560477991	184
8	831	1724.769611543606	185
8	836	1727.083612679372	186
8	837	1728.329348469841	187
8	860	1772.266811232867	188
8	861	1774.11908153209	189
8	862	1774.660202360836	190
8	863	1775.774969133328	191
8	864	1776.165615457363	192
8	879	1806.055114160707	193
8	880	1806.389822321517	194
8	881	1806.891306708397	195
8	882	1807.230017674271	196
8	885	1818.657487605528	197
8	888	1820.602728265223	198
8	891	1821.774386310246	199
8	894	1825.351559360665	200
8	899	1829.202387132726	201
8	902	1831.423005164935	202
8	905	1834.356170940404	203
8	906	1834.378632081691	204
8	909	1840.403457807128	205
8	912	1846.361377308028	206
8	920	1867.296618789002	207
8	921	1868.198053899941	208
8	924	1870.054302004311	209
8	927	1872.079497503295	210
8	930	1873.241477329075	211
8	933	1878.292242907152	212
8	942	1903.995989760846	213
8	948	1911.173347227525	214
8	951	1923.535872168554	215
8	968	1993.389317390414	216
8	969	1994.036286366844	217
8	970	1996.030766124078	218
8	971	1996.448607089502	219
8	972	1999.34328815084	220
8	975	2000.022823184008	221
8	978	2011.132104878264	222
8	986	2024.093242963572	223
8	987	2025.175153809942	224
8	997	2030.627209262148	225
8	998	2031.622335851761	226
8	999	2032.090170343717	227
8	1002	2035.151438067931	228
8	1005	2049.691474618331	229
8	1008	2060.999115135798	230
8	1011	2071.577207415569	231
8	1020	2140.392584853472	232
8	1023	2144.28534637871	233
8	1028	2147.258082619682	234
8	1031	2148.461803327078	235
8	1032	2150.55729343301	236
8	1035	2158.542672309265	237
8	1049	2177.932821135859	238
8	1050	2178.325618203479	239
8	1056	2196.009481972103	240
8	1059	2208.25167244219	241
8	1062	2209.039239095839	242
8	1065	2211.356744187572	243
8	1071	2238.78917250125	244
8	1079	2243.657410935581	245
8	1082	2246.235444648767	246
8	1083	2247.914007653472	247
8	1091	2259.027230672889	248
8	1092	2259.628223657519	249
8	1099	2303.304264519797	250
8	1100	2303.426321318388	251
8	1101	2304.897755948622	252
8	1104	2309.64321635141	253
8	1107	2321.729630714165	254
8	1119	2358.857410637147	255
8	1123	2360.099631123469	256
8	1124	2363.759629470701	257
8	1125	2365.558237853887	258
8	1131	2384.467325691966	259
8	1134	2405.467180422866	260
8	1137	2411.657697132427	261
8	1146	2435.535977963931	262
8	1155	2465.560540848836	263
8	1158	2477.547890636336	264
8	1164	2484.129486843672	265
8	1167	2487.150445908487	266
8	1170	2497.033115883881	267
9	162	400.221773260402	2.271876097493
9	168	411.49912876239	0.027559968282
9	171	420.933587140537	0.703063245222
9	214	498.676074326558	72.262277055026
9	215	499.649248144767	65.670226743706
9	216	500.207578616431	65.210119065835
9	217	500.535195606497	64.071837235422
9	220	503.299139903151	55.960127532751
9	221	503.845630792443	43.161069350652
9	222	503.87960875694	41.670348111432
9	225	506.682266413961	34.882039568401
9	228	507.987156580034	25.862614516294
9	229	510.77013462453	8.82411450858
9	230	512.160271787469	8.007398403532
9	231	514.563945020335	7.799630166977
9	234	519.548629520452	2.828131932993
9	237	529.236411102613	4.151767295961
9	248	542.904043948343	7.176175680686
9	249	543.27120451476	6.252800465217
9	259	561.392268651968	9.829487924858
9	278	572.794356672685	13.754621451434
9	279	573.586507827619	10.986649663894
9	280	576.965597732429	14.088366906882
9	286	582.6659855907	17.657423871943
9	287	585.689359364361	20.258629609395
9	288	587.10272413868	19.006792435892
9	298	605.225070802157	25.489237411981
9	304	609.0524858243	21.21562733913
9	305	609.852776938882	4.416199669708
9	306	611.781284340661	3.322160821146
9	315	624.226705519484	1.290196232427
9	321	627.952175339356	1.382963381673
9	347	717.370762748196	65.431674004526
9	348	719.543734806083	60.135829849762
9	351	720.509398386852	40.851601846503
9	352	720.884115059806	19.556921760935
9	353	722.118554638191	8.211669070671
9	354	724.189389104486	4.102538662885
9	362	737.787099807968	10.329204221272
9	363	739.98407600964	6.670766770575
9	393	813.004770521691	63.650029973604
9	394	813.718255018874	37.441746655466
9	395	814.483154615689	37.195586851539
9	396	815.165504916934	27.787108291286
9	397	816.725250394635	26.081607034482
9	400	819.242323108362	19.200051655014
9	401	819.267492983476	8.697442943463
9	402	819.492398843523	1.76737655017
9	415	863.175609472969	23.659701685512
9	416	864.664307482682	22.976250462393
9	417	864.74787454786	1.956659361781
9	420	873.500907126537	3.839115074117
9	423	876.93152559975	0.434097777153
9	426	878.023269984304	0.509969152011
9	435	900.388451362433	13.512537934902
9	441	911.463578298024	5.293760105394
9	444	921.352270303474	0.700689625773
9	447	936.262926281534	0.146181132082
9	453	946.098553409941	0.886896186683
9	456	960.33707641872	1.907931480444
9	459	965.650869080414	0.085424574101
9	466	970.152228243297	4.414137998586
9	476	985.16086302456	16.097626097325
9	483	996.72163680201	21.326774950245
9	489	999.837463962911	14.224519208873
9	490	1000.011974980089	7.575188657891
9	498	1017.233078365664	19.053194688749
9	501	1021.255194235657	18.782779549352
9	502	1022.126330523591	17.995150517845
9	505	1023.197737434371	13.388877866569
9	508	1025.742154525043	7.81176590311
9	509	1025.985988598183	3.566211525078
9	510	1027.656381248105	2.355498712696
9	518	1044.089305711548	6.149832641387
9	519	1044.368288242562	5.1388599861
9	522	1050.829451189124	1.171383777085
9	533	1088.118918883084	27.049120656104
9	534	1088.126312386519	16.2067836518
9	537	1098.617404669342	3.053494288632
9	540	1104.326092841426	0.55963789317
9	543	1110.793557126114	0.251156293563
9	546	1123.601530395867	0.11196137284
9	549	1128.090323270545	3.8716297646
9	552	1153.217475681244	0.736444767513
9	555	1161.910887068128	3.874204138949
9	564	1198.863551167627	1.361913348503
9	567	1200.30652356486	0.205385139535
9	575	1216.048589746311	4.561439753958
9	576	1216.921432420954	4.256925650519
9	579	1223.652837026114	1.465796782843
9	582	1230.180992738323	1.043632858052
9	585	1231.487425068431	0.745004258364
9	591	1243.096047130171	1.516988015129
9	594	1246.585665414797	3.10027862058
9	597	1260.858805941452	1.023045552744
9	600	1264.961093429861	3.746016289945
9	651	1351.235778763907	70.091007217945
9	652	1351.743409764343	64.929892435414
9	653	1356.109064097123	65.512274405968
9	654	1358.732638851459	52.770185719415
9	655	1358.83107546982	45.835647021846
9	656	1359.093434011362	41.716746980254
9	663	1368.232728597193	42.351572916608
9	664	1370.336104003242	35.064024500329
9	665	1371.365721770428	35.559122005232
9	666	1372.222537443512	35.706788239505
9	667	1372.330732519046	30.211822766941
9	668	1376.66520563753	17.514649951306
9	669	1376.98556031535	13.288303713398
9	674	1387.287289763773	2.440556533003
9	675	1387.393337458079	0.500244095295
9	678	1398.894457787332	7.096068418351
9	683	1404.629926944869	1.427087110646
9	684	1405.192204362923	1.271747539614
9	687	1420.871151074248	0.597479683337
9	690	1440.223273463598	0.049301698055
9	707	1465.547003387887	5.00702920014
9	710	1468.123664505451	7.115144740232
9	715	1474.472500580908	6.624476175847
9	716	1474.722942179517	5.627711692965
9	717	1475.060678802769	5.074714559638
9	722	1482.986345606936	2.929870486161
9	723	1485.229113519354	3.961017513778
9	729	1498.366283478487	1.162236960862
9	735	1519.603931230423	0.728848985215
9	745	1530.860734778802	5.236768941943
9	748	1534.878329252459	7.09623352898
9	749	1537.52294622966	7.926323829195
9	752	1539.665030584953	8.325101035851
9	755	1542.504868362215	3.352088707559
9	756	1542.642840655682	1.747542960654
9	759	1553.17898093596	0.325700386821
9	765	1557.809412434719	3.42590178741
9	773	1576.784140764137	3.229504760687
9	774	1579.392466946078	3.677996139865
9	777	1584.790449312448	0.961920857759
9	780	1600.669728789739	1.860586229296
9	783	1613.984102086267	0.287701348985
9	793	1642.284859108126	20.37704200204
9	794	1642.731225060515	20.421195807665
9	795	1643.004437320037	18.645992739245
9	808	1678.97643597174	15.218623926672
9	811	1683.310192197359	16.893637261171
9	812	1684.577790947409	11.933542354959
9	813	1685.057254976602	4.531030528041
9	829	1718.277499701412	7.9593668578
9	830	1722.723560477991	8.430220500156
9	831	1724.769611543606	6.68480561406
9	836	1727.083612679372	1.599094973749
9	837	1728.329348469841	1.353672088727
9	860	1772.266811232867	28.972421305093
9	861	1774.11908153209	29.697421502688
9	862	1774.660202360836	18.718830251535
9	863	1775.774969133328	12.106792679997
9	864	1776.165615457363	5.943705344518
9	879	1806.055114160707	15.941681022428
9	880	1806.389822321517	14.806821007685
9	881	1806.891306708397	5.709238088721
9	882	1807.230017674271	3.178127674839
9	885	1818.657487605528	1.664086650853
9	888	1820.602728265223	0.76789315257
9	891	1821.774386310246	0.434648684154
9	894	1825.351559360665	0.205454116275
9	899	1829.202387132726	0.661232463469
9	902	1831.423005164935	2.705697442057
9	905	1834.356170940404	4.93190656116
9	906	1834.378632081691	0.2087479378
9	909	1840.403457807128	0.700054174268
9	912	1846.361377308028	2.892397111216
9	920	1867.296618789002	11.580381861179
9	921	1868.198053899941	6.391804076752
9	924	1870.054302004311	0.338417475359
9	927	1872.079497503295	0.701937322601
9	930	1873.241477329075	0.213048226179
9	933	1878.292242907152	0.295141240835
9	942	1903.995989760846	0.147660557026
9	948	1911.173347227525	0.934700572235
9	951	1923.535872168554	0.10378862452
9	968	1993.389317390414	33.34995148268
9	969	1994.036286366844	25.747328176853
9	970	1996.030766124078	20.704659993153
9	971	1996.448607089502	15.468517045377
9	972	1999.34328815084	16.659217151665
9	975	2000.022823184008	0.274894784613
9	978	2011.132104878264	0.998694772106
9	986	2024.093242963572	7.572471533935
9	987	2025.175153809942	8.421410322841
9	997	2030.627209262148	2.984981672141
9	998	2031.622335851761	3.655809351869
9	999	2032.090170343717	3.320672267249
9	1002	2035.151438067931	1.291229535075
9	1005	2049.691474618331	0.203500748613
9	1008	2060.999115135798	0.901757694735
9	1011	2071.577207415569	2.418228789099
9	1020	2140.392584853472	5.911455054246
9	1023	2144.28534637871	2.211337462832
9	1028	2147.258082619682	0.476333569248
9	1031	2148.461803327078	1.677268288803
9	1032	2150.55729343301	2.470478985089
9	1035	2158.542672309265	0.042240743112
9	1049	2177.932821135859	0.80040969652
9	1050	2178.325618203479	0.525961724563
9	1056	2196.009481972103	2.055475853324
9	1059	2208.25167244219	1.305794104393
9	1062	2209.039239095839	0.597979384593
9	1065	2211.356744187572	1.502120785003
9	1071	2238.78917250125	1.240548679832
9	1079	2243.657410935581	2.249488514304
9	1082	2246.235444648767	4.476150888586
9	1083	2247.914007653472	3.777103443208
9	1091	2259.027230672889	0.581297674694
9	1092	2259.628223657519	0.963159651604
9	1099	2303.304264519797	5.626223635272
9	1100	2303.426321318388	4.456020645043
9	1101	2304.897755948622	2.790402049479
9	1104	2309.64321635141	0.392700758592
9	1107	2321.729630714165	2.512091099949
9	1119	2358.857410637147	15.069850488619
9	1123	2360.099631123469	3.830492966838
9	1124	2363.759629470701	6.334940930485
9	1125	2365.558237853887	6.657905621031
9	1131	2384.467325691966	12.633095632426
9	1134	2405.467180422866	0.206989164071
9	1137	2411.657697132427	1.784866379819
9	1146	2435.535977963931	0.27717147362
9	1155	2465.560540848836	0.53028835026
9	1158	2477.547890636336	2.207553548851
9	1164	2484.129486843672	3.832874652594
9	1167	2487.150445908487	0.5610688321
9	1170	2497.033115883881	1.705106743643
10	175	426.413797271532	3
10	255	551.950976185058	4
10	261	562.599858163725	5
10	282	579.735833390176	6
10	290	587.83685848517	7
10	300	605.436577269174	8
10	325	635.493773863116	9
10	328	651.93908874367	10
10	430	886.875913427531	11
10	439	906.16981819263	12
10	468	972.102428593869	13
10	478	985.612944754038	14
10	481	992.436786322198	15
10	487	998.179883676915	16
10	492	1002.472414686305	17
10	573	1212.664506770435	18
10	658	1359.150555686224	19
10	661	1363.697256601952	20
10	697	1450.44504109149	21
10	705	1461.008519765219	22
10	769	1573.55463600345	23
10	1113	2345.378507754397	24
10	1121	2358.900332232856	25
11	1171	2500	0.1068
12	1171	2500	0.0492

