file 61863 1678273453                                           
version 2
run experiments_easy_game_mode1-668-20230308-12:04:13-21757
attr configname experiments_easy_game_mode1
attr datetime 20230308-12:04:13
attr experiment experiments_easy_game_mode1
attr inifile omnetpp.ini
attr iterationvars "$0=5.5, $1=3.5, $2=0"
attr iterationvarsf 5.5,3.5,0-
attr measurement "$0=5.5, $1=3.5, $2=0"
attr network Network
attr processid 21757
attr repetition 8
attr replication #8
attr resultdir results
attr runnumber 668
attr seedset 8
param *.boss.arrival_mean 20
param *.boss.service_mean 5.5
param *.minion.arrival_mean 10
param *.minion.service_mean 3.5
param *.player.recover_rate_x 0
param **.minion.arrival_distribution 0
param **.minion.service_distribution 0
param **.boss.arrival_distribution 0
param **.boss.service_distribution 0

vector 0 Network.player minion_defeated_stat:vector ETV
attr source signal_minion_defeated
vector 1 Network.player minion_jobs_queue_number_stat:vector ETV
attr source signal_minion_jobs_queue_number
vector 2 Network.player minion_response_time_stat:vector ETV
attr source signal_minion_response_time
vector 3 Network.player minion_waiting_time_stat:vector ETV
attr source signal_minion_waiting_time
vector 4 Network.player minion_jobs_number_stat:vector ETV
attr source signal_minion_jobs_number
vector 5 Network.player boss_jobs_number_stat:vector ETV
attr source signal_boss_jobs_number
vector 6 Network.player boss_jobs_queue_number_stat:vector ETV
attr source signal_boss_jobs_queue_number
vector 7 Network.player minion_recovered_stat:vector ETV
attr source signal_minion_recovered
vector 8 Network.player boss_waiting_time_stat:vector ETV
attr source signal_boss_waiting_time
vector 9 Network.player boss_defeated_stat:vector ETV
attr source signal_boss_defeated
vector 10 Network.player boss_response_time_stat:vector ETV
attr source signal_boss_response_time
vector 11 Network.player minion_throughput:vector ETV
attr source signal_minion_throughput
vector 12 Network.player boss_throughput:vector ETV
attr source signal_boss_throughput
0	2018 6157 169 1116 352.161352780578 2461.237718867341 225 30 254 31950 5486100
1	8175 11446 169 1132 352.161352780578 2499.949391704458 445 0 10 989 5145
2	19621 8800 169 1116 352.161352780578 2461.237718867341 225 0.267160767116 82.559678149309 4085.4089099938 143829.66994932
3	28421 9353 169 1115 352.161352780578 2460.233682276979 261 0 79.3567140017 3955.961762367 141361.00869423
4	37774 5671 171 1132 355.039202252463 2499.949391704458 220 1 11 707 3739
5	43445 2580 181 1130 375.391315048882 2498.862924785266 100 1 6 159 355
6	46025 5134 181 1130 375.391315048882 2498.862924785266 199 0 5 118 274
7	51159 989 181 1107 375.391315048882 2432.751736103515 37 9 45 999 31191
8	52148 3031 181 1130 375.391315048882 2498.862924785266 100 0 22.866330721958 288.14522402452 3976.9745526607
9	55179 2676 182 1128 376.559033286256 2486.188753491773 99 24 122 7227 608421
10	57855 3967 182 1128 376.559033286256 2486.188753491773 99 0.180953254876 39.948855421655 893.93510071446 15005.267013061
11	61822 20 1133 1133 2500 2500 1 0.1016 0.1016 0.1016 0.01032256
12	61842 20 1133 1133 2500 2500 1 0.0488 0.0488 0.0488 0.00238144

