file 67287 1678273707                                           
version 2
run experiments_easy_game_mode1-1772-20230308-12:08:27-27649
attr configname experiments_easy_game_mode1
attr datetime 20230308-12:08:27
attr experiment experiments_easy_game_mode1
attr inifile omnetpp.ini
attr iterationvars "$0=7, $1=3.5, $2=100"
attr iterationvarsf 7,3.5,100-
attr measurement "$0=7, $1=3.5, $2=100"
attr network Network
attr processid 27649
attr repetition 2
attr replication #2
attr resultdir results
attr runnumber 1772
attr seedset 2
param *.boss.arrival_mean 20
param *.boss.service_mean 7
param *.minion.arrival_mean 10
param *.minion.service_mean 3.5
param *.player.recover_rate_x 100
param **.minion.arrival_distribution 0
param **.minion.service_distribution 0
param **.boss.arrival_distribution 0
param **.boss.service_distribution 0

vector 0 Network.player minion_defeated_stat:vector ETV
attr source signal_minion_defeated
vector 1 Network.player minion_jobs_queue_number_stat:vector ETV
attr source signal_minion_jobs_queue_number
vector 2 Network.player minion_response_time_stat:vector ETV
attr source signal_minion_response_time
vector 3 Network.player minion_waiting_time_stat:vector ETV
attr source signal_minion_waiting_time
vector 4 Network.player minion_jobs_number_stat:vector ETV
attr source signal_minion_jobs_number
vector 5 Network.player boss_jobs_number_stat:vector ETV
attr source signal_boss_jobs_number
vector 6 Network.player boss_jobs_queue_number_stat:vector ETV
attr source signal_boss_jobs_queue_number
vector 7 Network.player minion_recovered_stat:vector ETV
attr source signal_minion_recovered
vector 8 Network.player boss_waiting_time_stat:vector ETV
attr source signal_boss_waiting_time
vector 9 Network.player boss_defeated_stat:vector ETV
attr source signal_boss_defeated
vector 10 Network.player boss_response_time_stat:vector ETV
attr source signal_boss_response_time
vector 11 Network.player minion_throughput:vector ETV
attr source signal_minion_throughput
vector 12 Network.player boss_throughput:vector ETV
attr source signal_boss_throughput
0	2020 5878 162 1144 355.652166317388 2411.173833511843 215 28 242 29025 4746555
1	7898 11359 162 1204 355.652166317388 2491.854625862879 439 0 17 2057 18167
2	19257 8452 162 1144 355.652166317388 2411.173833511843 215 0.028624385844 92.333657519767 7114.1246709533 385569.95591451
3	27709 9960 162 1205 355.652166317388 2495.119444905325 267 0 91.30494092907 8229.3773910865 435560.2144083
4	37669 5816 165 1204 361.253872248248 2491.854625862879 224 1 18 1302 12038
5	43485 3280 170 1198 368.958402505989 2486.574186514758 127 1 5 207 439
6	46765 6562 170 1205 368.958402505989 2495.119444905325 254 0 4 160 304
7	53327 1376 170 1146 368.958402505989 2411.664070294826 52 4 55 1534 56966
8	54703 3976 170 1202 368.958402505989 2488.498831523037 127 0 40.836095564881 517.90483092083 8478.9855876818
9	58679 3459 171 1205 369.764205255802 2495.119444905325 127 23 149 10922 1109980
10	62138 5108 171 1205 369.764205255802 2495.119444905325 127 0.042124278359 48.788268805344 1439.3385588601 29346.275812631
11	67246 20 1206 1206 2500 2500 1 0.0968 0.0968 0.0968 0.00937024
12	67266 20 1206 1206 2500 2500 1 0.0596 0.0596 0.0596 0.00355216

