file 66739 1678273757                                           
version 2
run experiments_easy_game_mode1-2158-20230308-12:09:17-29580
attr configname experiments_easy_game_mode1
attr datetime 20230308-12:09:17
attr experiment experiments_easy_game_mode1
attr inifile omnetpp.ini
attr iterationvars "$0=7.5, $1=3.5, $2=100"
attr iterationvarsf 7.5,3.5,100-
attr measurement "$0=7.5, $1=3.5, $2=100"
attr network Network
attr processid 29580
attr repetition 28
attr replication #28
attr resultdir results
attr runnumber 2158
attr seedset 28
param *.boss.arrival_mean 20
param *.boss.service_mean 7.5
param *.minion.arrival_mean 10
param *.minion.service_mean 3.5
param *.player.recover_rate_x 100
param **.minion.arrival_distribution 0
param **.minion.service_distribution 0
param **.boss.arrival_distribution 0
param **.boss.service_distribution 0

vector 0 Network.player minion_jobs_number_stat:vector ETV
attr source signal_minion_jobs_number
vector 1 Network.player minion_jobs_queue_number_stat:vector ETV
attr source signal_minion_jobs_queue_number
vector 2 Network.player minion_defeated_stat:vector ETV
attr source signal_minion_defeated
vector 3 Network.player minion_response_time_stat:vector ETV
attr source signal_minion_response_time
vector 4 Network.player minion_waiting_time_stat:vector ETV
attr source signal_minion_waiting_time
vector 5 Network.player boss_jobs_number_stat:vector ETV
attr source signal_boss_jobs_number
vector 6 Network.player boss_jobs_queue_number_stat:vector ETV
attr source signal_boss_jobs_queue_number
vector 7 Network.player boss_waiting_time_stat:vector ETV
attr source signal_boss_waiting_time
vector 8 Network.player boss_defeated_stat:vector ETV
attr source signal_boss_defeated
vector 9 Network.player boss_response_time_stat:vector ETV
attr source signal_boss_response_time
vector 10 Network.player minion_recovered_stat:vector ETV
attr source signal_minion_recovered
vector 11 Network.player minion_throughput:vector ETV
attr source signal_minion_throughput
vector 12 Network.player boss_throughput:vector ETV
attr source signal_boss_throughput
0	2031 6399 164 1195 350.294513694894 2463.460184766505 247 1 19 1004 7434
1	8430 12942 164 1197 350.294513694894 2471.353165419318 500 0 18 1529 11401
2	21372 6963 165 1197 355.03427052922 2471.353165419318 253 26 278 38456 7194814
3	28335 9930 165 1197 355.03427052922 2471.353165419318 253 0.070701636778 94.19397816429 5572.1460035811 252607.83676735
4	38265 10488 165 1196 355.03427052922 2468.286005305125 287 0 92.941853323366 5287.0668132693 234478.57295588
5	48753 2517 176 1202 378.709152250134 2495.979355742821 98 1 4 144 266
6	51270 5031 176 1203 378.709152250134 2498.234133236355 196 0 3 92 152
7	56301 2969 176 1202 378.709152250134 2495.979355742821 98 0 32.851064709638 331.77320244408 5608.5414096239
8	59270 2636 179 1203 387.875199824405 2498.234133236355 98 26 123 7301 622349
9	61906 3821 179 1203 387.875199824405 2498.234133236355 98 0.002657864237 52.139486255815 1066.4510894679 22028.110133563
10	65727 971 207 1177 457.419023234562 2426.739274968978 35 16 50 1155 41685
11	66698 20 1204 1204 2500 2500 1 0.1112 0.1112 0.1112 0.01236544
12	66718 20 1204 1204 2500 2500 1 0.0492 0.0492 0.0492 0.00242064

