file 58934 1678273606                                           
version 2
run experiments_easy_game_mode1-1354-20230308-12:06:46-25557
attr configname experiments_easy_game_mode1
attr datetime 20230308-12:06:46
attr experiment experiments_easy_game_mode1
attr inifile omnetpp.ini
attr iterationvars "$0=6.5, $1=3, $2=100"
attr iterationvarsf 6.5,3,100-
attr measurement "$0=6.5, $1=3, $2=100"
attr network Network
attr processid 25557
attr repetition 4
attr replication #4
attr resultdir results
attr runnumber 1354
attr seedset 4
param *.boss.arrival_mean 20
param *.boss.service_mean 6.5
param *.minion.arrival_mean 10
param *.minion.service_mean 3
param *.player.recover_rate_x 100
param **.minion.arrival_distribution 0
param **.minion.service_distribution 0
param **.boss.arrival_distribution 0
param **.boss.service_distribution 0

vector 0 Network.player boss_defeated_stat:vector ETV
attr source signal_boss_defeated
vector 1 Network.player boss_jobs_queue_number_stat:vector ETV
attr source signal_boss_jobs_queue_number
vector 2 Network.player boss_response_time_stat:vector ETV
attr source signal_boss_response_time
vector 3 Network.player minion_jobs_number_stat:vector ETV
attr source signal_minion_jobs_number
vector 4 Network.player minion_jobs_queue_number_stat:vector ETV
attr source signal_minion_jobs_queue_number
vector 5 Network.player minion_waiting_time_stat:vector ETV
attr source signal_minion_waiting_time
vector 6 Network.player minion_defeated_stat:vector ETV
attr source signal_minion_defeated
vector 7 Network.player minion_response_time_stat:vector ETV
attr source signal_minion_response_time
vector 8 Network.player boss_jobs_number_stat:vector ETV
attr source signal_boss_jobs_number
vector 9 Network.player boss_waiting_time_stat:vector ETV
attr source signal_boss_waiting_time
vector 10 Network.player minion_recovered_stat:vector ETV
attr source signal_minion_recovered
vector 11 Network.player minion_throughput:vector ETV
attr source signal_minion_throughput
vector 12 Network.player boss_throughput:vector ETV
attr source signal_boss_throughput
0	2020 2846 192 1111 350.421086595242 2481.600353642437 106 15 120 7155 582205
1	4866 5439 192 1120 350.421086595242 2497.177872175454 212 0 4 92 204
2	10305 4115 192 1111 350.421086595242 2481.600353642437 106 0.053180619477 49.699859733088 1049.5255757112 19874.821379985
3	14420 5242 194 1117 352.978059280825 2495.254658704516 204 1 8 436 1328
4	19662 10469 194 1118 352.978059280825 2496.649101195649 407 0 7 464 1320
5	30131 8403 194 1118 352.978059280825 2496.649101195649 240 0 51.279273929975 1894.6240124313 37062.993670581
6	38534 5583 199 1118 354.533625291776 2496.649101195649 203 50 252 30653 5325705
7	44117 7931 199 1118 354.533625291776 2496.649101195649 203 0.047462046753 59.497771644653 2239.5832861409 46526.505795838
8	52048 2720 203 1120 356.5813254123 2497.177872175454 106 1 5 152 300
9	54768 3103 203 1120 356.5813254123 2497.177872175454 106 0 36.428402046625 341.19643133615 6872.8333472379
10	57871 1023 254 1120 478.265615825747 2497.177872175454 37 8 44 962 29230
11	58894 20 1121 1121 2500 2500 1 0.1008 0.1008 0.1008 0.01016064
12	58914 19 1121 1121 2500 2500 1 0.048 0.048 0.048 0.002304

