version 2
run experiments_easy_game_mode1-1741-20230308-12:08:20-27494
attr configname experiments_easy_game_mode1
attr datetime 20230308-12:08:20
attr experiment experiments_easy_game_mode1
attr inifile omnetpp.ini
attr iterationvars "$0=7, $1=3.5, $2=0"
attr iterationvarsf 7,3.5,0-
attr measurement "$0=7, $1=3.5, $2=0"
attr network Network
attr processid 27494
attr repetition 1
attr replication #1
attr resultdir results
attr runnumber 1741
attr seedset 1
param *.boss.arrival_mean 20
param *.boss.service_mean 7
param *.minion.arrival_mean 10
param *.minion.service_mean 3.5
param *.player.recover_rate_x 0
param **.minion.arrival_distribution 0
param **.minion.service_distribution 0
param **.boss.arrival_distribution 0
param **.boss.service_distribution 0

vector 0 Network.player boss_defeated_stat:vector ETV
attr source signal_boss_defeated
vector 1 Network.player boss_jobs_queue_number_stat:vector ETV
attr source signal_boss_jobs_queue_number
vector 2 Network.player boss_response_time_stat:vector ETV
attr source signal_boss_response_time
vector 3 Network.player minion_jobs_number_stat:vector ETV
attr source signal_minion_jobs_number
vector 4 Network.player minion_jobs_queue_number_stat:vector ETV
attr source signal_minion_jobs_queue_number
vector 5 Network.player minion_waiting_time_stat:vector ETV
attr source signal_minion_waiting_time
vector 6 Network.player minion_defeated_stat:vector ETV
attr source signal_minion_defeated
vector 7 Network.player minion_response_time_stat:vector ETV
attr source signal_minion_response_time
vector 8 Network.player boss_jobs_number_stat:vector ETV
attr source signal_boss_jobs_number
vector 9 Network.player minion_recovered_stat:vector ETV
attr source signal_minion_recovered
vector 10 Network.player boss_waiting_time_stat:vector ETV
attr source signal_boss_waiting_time
vector 11 Network.player minion_throughput:vector ETV
attr source signal_minion_throughput
vector 12 Network.player boss_throughput:vector ETV
attr source signal_boss_throughput
0	132	350.002799755532	18
0	145	374.225640753779	19
0	161	409.510520742028	20
0	172	423.747892351221	21
0	182	458.136980510792	22
0	194	481.945040675015	23
0	195	484.757157401552	24
0	201	498.386614483765	25
0	204	504.007487626986	26
0	213	518.286775249355	27
0	218	529.045341224347	28
0	222	544.304175413168	29
0	230	575.505891470915	30
0	270	677.077054009061	31
0	281	717.656543803752	32
0	288	745.326966561273	33
0	293	759.431181773781	34
0	305	771.332335928841	35
0	329	808.383587123839	36
0	352	850.34495376282	37
0	359	866.102292944282	38
0	382	898.86468148465	39
0	394	920.67022765819	40
0	399	927.093875511016	41
0	410	936.531686638481	42
0	429	980.822572935397	43
0	430	994.163089011225	44
0	433	997.273332025577	45
0	444	1005.614769985451	46
0	462	1036.509255612469	47
0	477	1061.060276808633	48
0	487	1091.596095291205	49
0	492	1111.018717199621	50
0	493	1112.019099512836	51
0	502	1123.393645848629	52
0	505	1128.581374596453	53
0	506	1131.980318069021	54
0	527	1196.613485408496	55
0	528	1199.70993489568	56
0	539	1210.01662914454	57
0	540	1211.520735784619	58
0	543	1216.497829673863	59
0	558	1247.751666167231	60
0	566	1273.880690070633	61
0	572	1289.22186422863	62
0	614	1392.356331268149	63
0	622	1410.070063663633	64
0	623	1413.330858697752	65
0	642	1461.449638356275	66
0	646	1467.097882672121	67
0	665	1492.488167261449	68
0	672	1510.950972845583	69
0	680	1535.494248258476	70
0	699	1571.235747272071	71
0	705	1594.611264390994	72
0	729	1656.121107644405	73
0	745	1710.774513022116	74
0	746	1713.412602307955	75
0	758	1733.130311459274	76
0	762	1743.546211712733	77
0	768	1745.977427788684	78
0	771	1757.459848791317	79
0	777	1783.16832089109	80
0	789	1814.227716713484	81
0	797	1825.380883522926	82
0	804	1848.634038488896	83
0	810	1860.871006632772	84
0	817	1876.190917591674	85
0	830	1895.779154413605	86
0	865	1987.591326625206	87
0	879	2011.20735050365	88
0	880	2015.508905619369	89
0	898	2061.805289607489	90
0	905	2076.085153990894	91
0	913	2097.338711996177	92
0	920	2122.001510935314	93
0	934	2153.855820704236	94
0	941	2170.43863504915	95
0	942	2181.483192366582	96
0	943	2182.876205321399	97
0	946	2185.819955584705	98
0	958	2198.672212282024	99
0	975	2230.51152847728	100
0	990	2260.795426897145	101
0	998	2275.375182385726	102
0	1004	2281.036549391291	103
0	1012	2299.189627242064	104
0	1017	2306.232749881005	105
0	1020	2313.722358763092	106
0	1021	2318.902653892167	107
0	1028	2347.345497516012	108
0	1032	2357.151104317957	109
0	1044	2376.064629464271	110
0	1052	2398.978447919998	111
0	1061	2412.404262413533	112
0	1062	2413.081861525256	113
0	1066	2423.02082553554	114
0	1073	2435.661380506148	115
0	1081	2454.088262512135	116
0	1093	2485.822666187349	117
1	132	350.002799755532	0
1	142	369.375255317272	0
1	145	374.225640753779	0
1	158	404.258574086135	0
1	161	409.510520742028	0
1	171	415.788676091801	0
1	172	423.747892351221	0
1	179	443.919676013075	0
1	182	458.136980510792	0
1	185	470.546870107225	0
1	193	480.431995840156	1
1	194	481.945040675015	1
1	195	484.757157401552	0
1	200	495.029730108993	0
1	201	498.386614483765	0
1	203	500.513567475372	0
1	204	504.007487626986	0
1	212	517.809300423735	0
1	213	518.286775249355	0
1	215	521.192237302952	0
1	218	529.045341224347	0
1	221	541.925002229654	0
1	222	544.304175413168	0
1	227	567.695925539455	0
1	230	575.505891470915	0
1	269	660.252978140038	0
1	270	677.077054009061	0
1	278	709.366630100926	0
1	281	717.656543803752	0
1	287	743.646848964604	0
1	288	745.326966561273	0
1	290	756.458935907148	0
1	293	759.431181773781	0
1	298	767.120392425216	0
1	305	771.332335928841	0
1	320	789.815789590426	0
1	329	808.383587123839	0
1	347	831.608480159845	0
1	352	850.34495376282	0
1	358	863.970073409175	0
1	359	866.102292944282	0
1	381	898.688180290939	0
1	382	898.86468148465	0
1	389	910.944778126664	0
1	391	912.065066633432	1
1	394	920.67022765819	1
1	399	927.093875511016	0
1	407	934.472084532428	0
1	410	936.531686638481	0
1	424	959.834294333765	0
1	426	963.034023953894	1
1	429	980.822572935397	1
1	430	994.163089011225	0
1	432	995.44102465029	0
1	433	997.273332025577	0
1	441	1004.276199296497	0
1	444	1005.614769985451	0
1	455	1030.943152599568	0
1	462	1036.509255612469	0
1	474	1050.110245986447	0
1	477	1061.060276808633	0
1	482	1074.807943387107	0
1	486	1086.494175780376	1
1	487	1091.596095291205	1
1	489	1102.06552599861	1
1	492	1111.018717199621	1
1	493	1112.019099512836	0
1	497	1119.223715317434	0
1	501	1121.890324746436	1
1	502	1123.393645848629	1
1	504	1123.663479696237	1
1	505	1128.581374596453	1
1	506	1131.980318069021	0
1	524	1186.897939430832	0
1	526	1191.951539220539	1
1	527	1196.613485408496	1
1	528	1199.70993489568	0
1	532	1202.276890746692	0
1	536	1207.192094069512	1
1	539	1210.01662914454	1
1	540	1211.520735784619	0
1	542	1212.083298246598	0
1	543	1216.497829673863	0
1	557	1247.010455122903	0
1	558	1247.751666167231	0
1	565	1272.276126545475	0
1	566	1273.880690070633	0
1	569	1284.608791838486	0
1	572	1289.22186422863	0
1	613	1387.632399260903	0
1	614	1392.356331268149	0
1	617	1403.412013724196	0
1	621	1409.315926484005	1
1	622	1410.070063663633	1
1	623	1413.330858697752	0
1	637	1440.302525160037	0
1	642	1461.449638356275	0
1	645	1462.555294735073	0
1	646	1467.097882672121	0
1	662	1489.486066902343	0
1	665	1492.488167261449	0
1	671	1507.762238717833	0
1	672	1510.950972845583	0
1	677	1533.228522866138	0
1	680	1535.494248258476	0
1	692	1558.498177338543	0
1	699	1571.235747272071	0
1	704	1590.470735222049	0
1	705	1594.611264390994	0
1	728	1645.874418155944	0
1	729	1656.121107644405	0
1	740	1688.598277283569	0
1	742	1697.269698461538	1
1	745	1710.774513022116	1
1	746	1713.412602307955	0
1	755	1731.744765826945	0
1	758	1733.130311459274	0
1	761	1737.595552176882	0
1	762	1743.546211712733	0
1	767	1744.899527686484	0
1	768	1745.977427788684	0
1	770	1755.198627303625	0
1	771	1757.459848791317	0
1	776	1782.557906561692	0
1	777	1783.16832089109	0
1	784	1810.00658113624	0
1	789	1814.227716713484	0
1	794	1819.834207241802	0
1	797	1825.380883522926	0
1	803	1845.586409673488	0
1	804	1848.634038488896	0
1	809	1858.271437782732	0
1	810	1860.871006632772	0
1	812	1868.692586631094	0
1	817	1876.190917591674	0
1	829	1893.453134115984	0
1	830	1895.779154413605	0
1	864	1984.3531764257	0
1	865	1987.591326625206	0
1	872	1993.439770634155	0
1	878	2005.414674315447	1
1	879	2011.20735050365	1
1	880	2015.508905619369	0
1	893	2057.829292268349	0
1	898	2061.805289607489	0
1	902	2067.19127090892	0
1	905	2076.085153990894	0
1	912	2093.540604683601	0
1	913	2097.338711996177	0
1	917	2118.272495163052	0
1	920	2122.001510935314	0
1	923	2123.862463980623	0
1	925	2125.583614538701	1
1	931	2148.351335550223	2
1	934	2153.855820704236	2
1	936	2158.513685384924	2
1	938	2159.742235841395	3
1	941	2170.43863504915	3
1	942	2181.483192366582	2
1	943	2182.876205321399	1
1	946	2185.819955584705	0
1	949	2189.21250810744	0
1	958	2198.672212282024	0
1	974	2228.011412246586	0
1	975	2230.51152847728	0
1	989	2256.953625658148	0
1	990	2260.795426897145	0
1	995	2270.467559923692	0
1	998	2275.375182385726	0
1	1001	2277.145134657383	0
1	1004	2281.036549391291	0
1	1009	2292.356304954715	0
1	1011	2296.559424856657	1
1	1012	2299.189627242064	1
1	1014	2299.848805152245	1
1	1017	2306.232749881005	1
1	1019	2312.593632662147	1
1	1020	2313.722358763092	1
1	1021	2318.902653892167	0
1	1027	2345.24593224152	0
1	1028	2347.345497516012	0
1	1031	2353.399464487008	0
1	1032	2357.151104317957	0
1	1043	2372.427930054302	0
1	1044	2376.064629464271	0
1	1051	2398.96845263205	0
1	1052	2398.978447919998	0
1	1056	2404.701489116181	0
1	1058	2408.893875339512	1
1	1061	2412.404262413533	1
1	1062	2413.081861525256	0
1	1065	2418.968326914021	0
1	1066	2423.02082553554	0
1	1072	2427.010862944216	0
1	1073	2435.661380506148	0
1	1080	2443.433928593672	0
1	1081	2454.088262512135	0
1	1092	2480.621220096792	0
1	1093	2485.822666187349	0
1	1096	2496.852317827315	0
2	132	350.002799755532	0.112268013221
2	145	374.225640753779	4.850385436507
2	161	409.510520742028	5.251946655893
2	172	423.747892351221	7.95921625942
2	182	458.136980510792	14.217304497717
2	194	481.945040675015	11.39817056779
2	195	484.757157401552	4.325161561396
2	201	498.386614483765	3.356884374772
2	204	504.007487626986	3.493920151614
2	213	518.286775249355	0.47747482562
2	218	529.045341224347	7.853103921395
2	222	544.304175413168	2.379173183514
2	230	575.505891470915	7.80996593146
2	270	677.077054009061	16.824075869023
2	281	717.656543803752	8.289913702826
2	288	745.326966561273	1.680117596669
2	293	759.431181773781	2.972245866633
2	305	771.332335928841	4.211943503625
2	329	808.383587123839	18.567797533413
2	352	850.34495376282	18.736473602975
2	359	866.102292944282	2.132219535107
2	382	898.86468148465	0.176501193711
2	394	920.67022765819	9.725449531526
2	399	927.093875511016	15.028808877584
2	410	936.531686638481	2.059602106053
2	429	980.822572935397	20.988278601632
2	430	994.163089011225	31.129065057331
2	433	997.273332025577	1.832307375287
2	444	1005.614769985451	1.338570688954
2	462	1036.509255612469	5.566103012901
2	477	1061.060276808633	10.950030822186
2	487	1091.596095291205	16.788151904098
2	492	1111.018717199621	24.524541419245
2	493	1112.019099512836	9.953573514226
2	502	1123.393645848629	4.169930531195
2	505	1128.581374596453	6.691049850017
2	506	1131.980318069021	8.316838372784
2	527	1196.613485408496	9.715545977664
2	528	1199.70993489568	7.758395675141
2	539	1210.01662914454	7.739738397848
2	540	1211.520735784619	4.328641715107
2	543	1216.497829673863	4.414531427265
2	558	1247.751666167231	0.741211044328
2	566	1273.880690070633	1.604563525158
2	572	1289.22186422863	4.613072390144
2	614	1392.356331268149	4.723932007246
2	622	1410.070063663633	6.658049939437
2	623	1413.330858697752	4.014932213747
2	642	1461.449638356275	21.147113196238
2	646	1467.097882672121	4.542587937048
2	665	1492.488167261449	3.002100359106
2	672	1510.950972845583	3.18873412775
2	680	1535.494248258476	2.265725392338
2	699	1571.235747272071	12.737569933528
2	705	1594.611264390994	4.140529168945
2	729	1656.121107644405	10.246689488461
2	745	1710.774513022116	22.176235738547
2	746	1713.412602307955	16.142903846417
2	758	1733.130311459274	1.385545632329
2	762	1743.546211712733	5.950659535851
2	768	1745.977427788684	1.0779001022
2	771	1757.459848791317	2.261221487692
2	777	1783.16832089109	0.610414329398
2	789	1814.227716713484	4.221135577244
2	797	1825.380883522926	5.546676281124
2	804	1848.634038488896	3.047628815408
2	810	1860.871006632772	2.59956885004
2	817	1876.190917591674	7.49833096058
2	830	1895.779154413605	2.326020297621
2	865	1987.591326625206	3.238150199506
2	879	2011.20735050365	17.767579869495
2	880	2015.508905619369	10.094231303922
2	898	2061.805289607489	3.97599733914
2	905	2076.085153990894	8.893883081974
2	913	2097.338711996177	3.798107312576
2	920	2122.001510935314	3.729015772262
2	934	2153.855820704236	29.993356723613
2	941	2170.43863504915	44.855020510449
2	942	2181.483192366582	33.131856816359
2	943	2182.876205321399	24.362519936475
2	946	2185.819955584705	26.07771974331
2	958	2198.672212282024	9.459704174584
2	975	2230.51152847728	2.500116230694
2	990	2260.795426897145	3.841801238997
2	998	2275.375182385726	4.907622462034
2	1004	2281.036549391291	3.891414733908
2	1012	2299.189627242064	6.833322287349
2	1017	2306.232749881005	9.673325024348
2	1020	2313.722358763092	13.873553610847
2	1021	2318.902653892167	6.30902123002
2	1028	2347.345497516012	2.099565274492
2	1032	2357.151104317957	3.751639830949
2	1044	2376.064629464271	3.636699409969
2	1052	2398.978447919998	0.009995287948
2	1061	2412.404262413533	7.702773297352
2	1062	2413.081861525256	4.187986185744
2	1066	2423.02082553554	4.052498621519
2	1073	2435.661380506148	8.650517561932
2	1081	2454.088262512135	10.654333918463
2	1093	2485.822666187349	5.201446090557
3	134	354.557151855681	1
3	137	363.823894831212	1
3	139	365.613274632813	2
3	144	370.585233872072	2
3	147	379.681710898725	3
3	152	396.392065199602	1
3	154	396.482332329256	2
3	160	405.963380670505	1
3	164	410.850292778012	1
3	167	413.949212177533	1
3	169	414.400860177836	2
3	174	424.726697612854	3
3	181	456.111867721576	1
3	187	472.775236854993	1
3	189	478.504847620427	2
3	191	478.696928021011	3
3	206	508.451775855767	1
3	208	508.857708167273	2
3	217	524.28980936815	1
3	224	553.294729384193	1
3	229	573.415496850299	1
3	233	579.327708019238	1
3	235	581.229214307217	2
3	239	587.051509254189	1
3	241	587.830568865482	2
3	243	588.51024789307	3
3	247	597.69174064835	2
3	249	599.625904239714	3
3	251	601.464798297421	4
3	256	621.555207288251	2
3	260	634.774522045433	1
3	263	653.323311617842	1
3	266	658.573298451177	1
3	272	684.49641219479	1
3	274	692.002243623595	2
3	280	712.428054766382	1
3	284	740.165402144317	1
3	292	758.199070333875	1
3	296	765.574160589746	1
3	300	768.598356354349	2
3	302	769.743416064392	3
3	304	770.107547801784	4
3	307	771.829954097869	5
3	310	774.42754541804	5
3	313	782.306578941402	5
3	315	784.678757195726	6
3	322	792.11062420985	4
3	324	794.103925195273	5
3	326	804.254275049714	6
3	328	808.053947914704	7
3	333	813.187159306011	6
3	337	815.945202965973	5
3	341	826.437857566554	4
3	344	831.143790537557	4
3	349	836.200513181557	4
3	351	846.215295774186	5
3	354	855.994726423543	6
3	356	858.518294259223	7
3	362	873.102858222541	7
3	364	874.596576772936	8
3	368	876.56858066659	7
3	371	885.172340007252	7
3	374	889.881592834636	7
3	378	894.21520461275	6
3	384	901.197466405341	6
3	386	907.503892790405	7
3	393	919.108782958971	7
3	396	923.552397120488	8
3	398	926.478400633381	9
3	402	927.346722870158	9
3	409	935.437711264658	7
3	413	938.35340222437	7
3	415	948.159850924412	8
3	417	948.645510515757	9
3	428	971.23130375891	5
3	435	997.739497752726	6
3	438	1002.247055797812	6
3	443	1004.940780636881	6
3	451	1015.089663101238	2
3	457	1031.744717209477	1
3	459	1033.869800367338	2
3	461	1035.218628114189	3
3	464	1042.10607936867	4
3	466	1042.89333419035	5
3	468	1044.907710098221	6
3	476	1056.478227078671	3
3	484	1081.535408919244	1
3	491	1110.924019657824	2
3	495	1116.577226252923	3
3	499	1120.370427437659	4
3	510	1138.101066537554	3
3	515	1158.997769375823	1
3	517	1164.389614103138	2
3	521	1176.368381827385	1
3	530	1199.872236254162	1
3	534	1204.278596782078	2
3	538	1209.467598345595	3
3	548	1232.961859612421	1
3	551	1236.984180589291	1
3	553	1241.706954241873	2
3	560	1250.196517913514	1
3	563	1268.951555771959	1
3	571	1287.623521008735	1
3	575	1300.845123160787	1
3	578	1320.578965987141	1
3	581	1332.584785782388	1
3	584	1341.640472899657	1
3	587	1352.712257866263	1
3	589	1353.596872460635	2
3	591	1354.430462899995	3
3	596	1363.525267817574	1
3	598	1363.98202022208	2
3	601	1366.79840673552	2
3	604	1367.798799028257	2
3	608	1380.988650301259	1
3	611	1383.440373029984	1
3	619	1405.945167179226	1
3	626	1422.396675441742	1
3	629	1429.627255756317	1
3	631	1430.685088772856	2
3	635	1439.937483048556	1
3	639	1440.601567088654	2
3	641	1441.274379830186	3
3	648	1470.089611214683	3
3	653	1477.856523929648	1
3	656	1479.634303538207	1
3	659	1481.017581247421	1
3	664	1489.97936585555	1
3	667	1499.513136980461	2
3	674	1529.541644465283	1
3	679	1534.061715485615	1
3	683	1538.630925993558	1
3	686	1553.230681240834	1
3	688	1553.449239273142	2
3	690	1553.946754001386	3
3	694	1561.300505661371	4
3	696	1562.463800429604	5
3	698	1566.131236080638	6
3	701	1577.652101419888	7
3	707	1595.558615324041	7
3	712	1602.787541439405	5
3	717	1629.290346216222	3
3	722	1637.768291493497	1
3	725	1639.148682106153	1
3	731	1657.708909622613	1
3	734	1675.495492245268	1
3	737	1682.1846757928	1
3	744	1697.637724245331	1
3	748	1714.252640392117	2
3	751	1725.952996459446	2
3	757	1733.091468649534	1
3	764	1743.602300963212	1
3	773	1769.737070293725	1
3	779	1797.429649869354	1
3	782	1808.423608925901	1
3	786	1811.117469180127	2
3	788	1812.727691339913	3
3	791	1819.29507133408	4
3	796	1823.829339928366	4
3	806	1850.05842958545	1
3	814	1870.140801328938	1
3	816	1872.093750590139	2
3	819	1876.405968623866	3
3	821	1878.066848027262	4
3	823	1880.162037838015	5
3	833	1914.482613606068	1
3	835	1920.880977758516	2
3	837	1924.746660298332	3
3	840	1929.7353207484	3
3	845	1951.433106009163	1
3	848	1961.080825932835	1
3	851	1968.963691792235	1
3	854	1974.704298001108	1
3	857	1979.34222648922	1
3	860	1982.36574677823	1
3	862	1983.838293113229	2
3	867	1989.156610482477	3
3	869	1990.350194517302	4
3	874	1995.780825651345	4
3	876	1996.531113902884	5
3	882	2019.802131646665	6
3	885	2021.949410744452	6
3	895	2060.879589853667	1
3	897	2060.908898717302	2
3	904	2070.679099586889	1
3	908	2091.617982071237	1
3	910	2092.486468161446	2
3	919	2120.154046587702	1
3	927	2133.359064701743	1
3	929	2140.34363870594	2
3	933	2151.696984518615	3
3	940	2165.460219418262	4
3	945	2182.948533678196	5
3	951	2189.646182425831	5
3	953	2193.914878067786	6
3	955	2193.954164107906	7
3	957	2194.561011312908	8
3	960	2200.766102351387	9
3	963	2210.22901050779	9
3	965	2211.800957408794	10
3	968	2213.125016198576	10
3	970	2216.818198176185	11
3	977	2231.069777978458	10
3	982	2245.062037414236	8
3	992	2260.881398963393	4
3	997	2274.961049532209	4
3	1003	2280.214129127697	4
3	1016	2305.165130442435	2
3	1025	2333.953071763477	1
3	1034	2360.789919575655	1
3	1037	2362.698859064813	1
3	1039	2363.643523370556	2
3	1046	2392.218169230268	1
3	1048	2394.39108518217	2
3	1054	2400.655127529596	2
3	1060	2408.898363050178	3
3	1068	2423.295046423066	3
3	1070	2423.399860528197	4
3	1075	2437.376253249859	5
3	1077	2439.988562019943	6
3	1088	2479.732826589049	1
3	1090	2480.108407740282	2
4	134	354.557151855681	0
4	135	355.160353554994	0
4	137	363.823894831212	0
4	139	365.613274632813	1
4	140	368.883157238984	1
4	144	370.585233872072	1
4	147	379.681710898725	2
4	148	381.152629021649	2
4	149	381.564041513236	1
4	150	382.685176805514	0
4	152	396.392065199602	0
4	154	396.482332329256	1
4	155	397.191292024564	1
4	156	399.063220251664	0
4	160	405.963380670505	0
4	162	409.954341388286	0
4	164	410.850292778012	0
4	165	412.079109425518	0
4	167	413.949212177533	0
4	169	414.400860177836	1
4	174	424.726697612854	2
4	175	427.216328303577	2
4	176	432.737154603274	1
4	177	435.332948812784	0
4	181	456.111867721576	0
4	183	461.171881163817	0
4	187	472.775236854993	0
4	189	478.504847620427	1
4	191	478.696928021011	2
4	196	487.128552918819	2
4	197	490.334951019075	1
4	198	494.941957053491	0
4	206	508.451775855767	0
4	208	508.857708167273	1
4	209	509.533275339211	1
4	210	509.584683669832	0
4	217	524.28980936815	0
4	219	530.217958506636	0
4	224	553.294729384193	0
4	225	553.637775472519	0
4	229	573.415496850299	0
4	231	576.529563845818	0
4	233	579.327708019238	0
4	235	581.229214307217	1
4	236	585.459324495776	1
4	237	586.848293378799	0
4	239	587.051509254189	0
4	241	587.830568865482	1
4	243	588.51024789307	2
4	244	593.326016637458	2
4	245	593.870885628551	1
4	247	597.69174064835	1
4	249	599.625904239714	2
4	251	601.464798297421	3
4	252	601.673915287114	3
4	253	602.307617523022	2
4	254	613.404042465333	1
4	256	621.555207288251	1
4	257	625.032122070715	1
4	258	627.916206376131	0
4	260	634.774522045433	0
4	261	646.060482027643	0
4	263	653.323311617842	0
4	264	653.655509996325	0
4	266	658.573298451177	0
4	267	659.303978474175	0
4	272	684.49641219479	0
4	274	692.002243623595	1
4	275	703.811838816702	1
4	276	703.897962758246	0
4	280	712.428054766382	0
4	282	719.927841583295	0
4	284	740.165402144317	0
4	285	740.966392049183	0
4	292	758.199070333875	0
4	294	763.473383433232	0
4	296	765.574160589746	0
4	300	768.598356354349	1
4	302	769.743416064392	2
4	304	770.107547801784	3
4	307	771.829954097869	4
4	308	773.998184854917	4
4	310	774.42754541804	4
4	311	780.486843763028	4
4	313	782.306578941402	4
4	315	784.678757195726	5
4	316	785.778576784775	5
4	317	789.129609304451	4
4	318	789.210809812606	3
4	322	792.11062420985	3
4	324	794.103925195273	4
4	326	804.254275049714	5
4	328	808.053947914704	6
4	330	811.400416952326	6
4	331	813.007345920647	5
4	333	813.187159306011	5
4	334	815.301245517812	5
4	335	815.306997837702	4
4	337	815.945202965973	4
4	338	819.416667599455	4
4	339	821.952702182934	3
4	341	826.437857566554	3
4	342	827.880761555312	3
4	344	831.143790537557	3
4	345	831.45455008003	3
4	349	836.200513181557	3
4	351	846.215295774186	4
4	354	855.994726423543	5
4	356	858.518294259223	6
4	360	866.122423437564	6
4	362	873.102858222541	6
4	364	874.596576772936	7
4	365	875.064587379701	7
4	366	876.114189669699	6
4	368	876.56858066659	6
4	369	880.576571202455	6
4	371	885.172340007252	6
4	372	886.253574467842	6
4	374	889.881592834636	6
4	375	890.102840783628	6
4	376	891.325502318799	5
4	378	894.21520461275	5
4	379	898.479305750104	5
4	384	901.197466405341	5
4	386	907.503892790405	6
4	387	907.827143103447	6
4	393	919.108782958971	6
4	396	923.552397120488	7
4	398	926.478400633381	8
4	400	927.101633856819	8
4	402	927.346722870158	8
4	403	930.099873901624	8
4	404	930.670975583293	7
4	405	932.889672500919	6
4	409	935.437711264658	6
4	411	937.589262001292	6
4	413	938.35340222437	6
4	415	948.159850924412	7
4	417	948.645510515757	8
4	418	951.548298705182	8
4	419	951.781683976451	7
4	420	953.563423767924	6
4	421	954.246267412356	5
4	422	955.697786457658	4
4	428	971.23130375891	4
4	435	997.739497752726	5
4	436	1000.040656325224	5
4	438	1002.247055797812	5
4	439	1003.324662061618	5
4	443	1004.940780636881	5
4	445	1010.771657113526	5
4	446	1010.956133076142	4
4	447	1011.717394214896	3
4	448	1014.039485176598	2
4	449	1014.833439750945	1
4	451	1015.089663101238	1
4	452	1015.287020659383	1
4	453	1015.390423636277	0
4	457	1031.744717209477	0
4	459	1033.869800367338	1
4	461	1035.218628114189	2
4	464	1042.10607936867	3
4	466	1042.89333419035	4
4	468	1044.907710098221	5
4	469	1046.058829186077	5
4	470	1046.375579262655	4
4	471	1047.67927629136	3
4	472	1048.092866559668	2
4	476	1056.478227078671	2
4	478	1062.072979425017	2
4	479	1062.306296307591	1
4	480	1062.531104433122	0
4	484	1081.535408919244	0
4	491	1110.924019657824	1
4	495	1116.577226252923	2
4	499	1120.370427437659	3
4	507	1133.107522285756	3
4	508	1136.604151127661	2
4	510	1138.101066537554	2
4	511	1141.124500563077	2
4	512	1142.021089947258	1
4	513	1147.958538954781	0
4	515	1158.997769375823	0
4	517	1164.389614103138	1
4	518	1169.027522121909	1
4	519	1171.949671078315	0
4	521	1176.368381827385	0
4	522	1178.026155728127	0
4	530	1199.872236254162	0
4	534	1204.278596782078	1
4	538	1209.467598345595	2
4	544	1218.193055476278	2
4	545	1224.040835439687	1
4	546	1224.604538534357	0
4	548	1232.961859612421	0
4	549	1234.22024607418	0
4	551	1236.984180589291	0
4	553	1241.706954241873	1
4	554	1246.129532192752	1
4	555	1246.889297234426	0
4	560	1250.196517913514	0
4	561	1258.727999897849	0
4	563	1268.951555771959	0
4	567	1275.221614790592	0
4	571	1287.623521008735	0
4	573	1295.318473136102	0
4	575	1300.845123160787	0
4	576	1310.020170830526	0
4	578	1320.578965987141	0
4	579	1320.92525516186	0
4	581	1332.584785782388	0
4	582	1336.619410429368	0
4	584	1341.640472899657	0
4	585	1343.208215987739	0
4	587	1352.712257866263	0
4	589	1353.596872460635	1
4	591	1354.430462899995	2
4	592	1354.644274725746	2
4	593	1354.770816572133	1
4	594	1357.695138998791	0
4	596	1363.525267817574	0
4	598	1363.98202022208	1
4	599	1366.291834830339	1
4	601	1366.79840673552	1
4	602	1367.138992655197	1
4	604	1367.798799028257	1
4	605	1372.705165728118	1
4	606	1373.303054024493	0
4	608	1380.988650301259	0
4	609	1381.172389694348	0
4	611	1383.440373029984	0
4	615	1394.487952304453	0
4	619	1405.945167179226	0
4	624	1414.062630318071	0
4	626	1422.396675441742	0
4	627	1428.923078375154	0
4	629	1429.627255756317	0
4	631	1430.685088772856	1
4	632	1431.219346087043	1
4	633	1434.831107657412	0
4	635	1439.937483048556	0
4	639	1440.601567088654	1
4	641	1441.274379830186	2
4	643	1462.064941783705	2
4	648	1470.089611214683	2
4	649	1472.645984989728	2
4	650	1472.660151463088	1
4	651	1473.340768066865	0
4	653	1477.856523929648	0
4	654	1479.375562786567	0
4	656	1479.634303538207	0
4	657	1480.978300208637	0
4	659	1481.017581247421	0
4	660	1484.582466156705	0
4	664	1489.97936585555	0
4	667	1499.513136980461	1
4	668	1503.424515595397	1
4	669	1505.80473699496	0
4	674	1529.541644465283	0
4	675	1530.44093356477	0
4	679	1534.061715485615	0
4	681	1538.559786949042	0
4	683	1538.630925993558	0
4	684	1546.378356149644	0
4	686	1553.230681240834	0
4	688	1553.449239273142	1
4	690	1553.946754001386	2
4	694	1561.300505661371	3
4	696	1562.463800429604	4
4	698	1566.131236080638	5
4	701	1577.652101419888	6
4	702	1580.675359534562	6
4	707	1595.558615324041	6
4	708	1599.150071355288	6
4	709	1599.461382376344	5
4	710	1599.875912668234	4
4	712	1602.787541439405	4
4	713	1605.714067383185	4
4	714	1612.206744247859	3
4	715	1612.471153876081	2
4	717	1629.290346216222	2
4	718	1630.638193204545	2
4	719	1632.124611604289	1
4	720	1633.647045677236	0
4	722	1637.768291493497	0
4	723	1638.14027195323	0
4	725	1639.148682106153	0
4	726	1641.464860910832	0
4	731	1657.708909622613	0
4	732	1659.401332737475	0
4	734	1675.495492245268	0
4	735	1680.239042615175	0
4	737	1682.1846757928	0
4	738	1684.683935565171	0
4	744	1697.637724245331	0
4	748	1714.252640392117	1
4	749	1715.045173260032	1
4	751	1725.952996459446	1
4	752	1726.409114793797	1
4	753	1726.53438122452	0
4	757	1733.091468649534	0
4	759	1734.755849120705	0
4	764	1743.602300963212	0
4	765	1744.182100205833	0
4	773	1769.737070293725	0
4	774	1769.780633213546	0
4	779	1797.429649869354	0
4	780	1798.788213252954	0
4	782	1808.423608925901	0
4	786	1811.117469180127	1
4	788	1812.727691339913	2
4	791	1819.29507133408	3
4	792	1819.518819493693	3
4	796	1823.829339928366	3
4	798	1825.793122726322	3
4	799	1827.353404643096	2
4	800	1827.475535693303	1
4	801	1829.753116639911	0
4	806	1850.05842958545	0
4	807	1854.244426725835	0
4	814	1870.140801328938	0
4	816	1872.093750590139	1
4	819	1876.405968623866	2
4	821	1878.066848027262	3
4	823	1880.162037838015	4
4	824	1882.830371624291	4
4	825	1888.330194852491	3
4	826	1890.860926750951	2
4	827	1892.929068774984	1
4	831	1897.325998315675	0
4	833	1914.482613606068	0
4	835	1920.880977758516	1
4	837	1924.746660298332	2
4	838	1926.843922115527	2
4	840	1929.7353207484	2
4	841	1932.485302080053	2
4	842	1934.987126976668	1
4	843	1935.059234515336	0
4	845	1951.433106009163	0
4	846	1953.763141965881	0
4	848	1961.080825932835	0
4	849	1964.056100940522	0
4	851	1968.963691792235	0
4	852	1969.15581415	0
4	854	1974.704298001108	0
4	855	1976.55923014744	0
4	857	1979.34222648922	0
4	858	1980.332042231244	0
4	860	1982.36574677823	0
4	862	1983.838293113229	1
4	867	1989.156610482477	2
4	869	1990.350194517302	3
4	870	1992.527327556968	3
4	874	1995.780825651345	3
4	876	1996.531113902884	4
4	882	2019.802131646665	5
4	883	2021.166551415418	5
4	885	2021.949410744452	5
4	886	2024.622834675462	5
4	887	2036.453994739432	4
4	888	2036.648148996634	3
4	889	2041.472645472074	2
4	890	2042.212234142357	1
4	891	2057.604723282309	0
4	895	2060.879589853667	0
4	897	2060.908898717302	1
4	899	2063.913145700867	1
4	900	2067.033199276705	0
4	904	2070.679099586889	0
4	906	2080.333552410738	0
4	908	2091.617982071237	0
4	910	2092.486468161446	1
4	914	2098.751099148787	1
4	915	2099.299409407736	0
4	919	2120.154046587702	0
4	921	2122.858954709032	0
4	927	2133.359064701743	0
4	929	2140.34363870594	1
4	933	2151.696984518615	2
4	940	2165.460219418262	3
4	945	2182.948533678196	4
4	947	2187.381868554692	4
4	951	2189.646182425831	4
4	953	2193.914878067786	5
4	955	2193.954164107906	6
4	957	2194.561011312908	7
4	960	2200.766102351387	8
4	961	2207.577198347162	8
4	963	2210.22901050779	8
4	965	2211.800957408794	9
4	966	2212.907242769341	9
4	968	2213.125016198576	9
4	970	2216.818198176185	10
4	971	2223.6561400517	10
4	972	2224.81271001468	9
4	977	2231.069777978458	9
4	978	2232.344541222634	9
4	979	2233.310004374301	8
4	980	2241.319396490148	7
4	982	2245.062037414236	7
4	983	2248.07709491815	7
4	984	2249.480089630547	6
4	985	2250.018634466424	5
4	986	2250.320904082632	4
4	987	2255.314163769156	3
4	992	2260.881398963393	3
4	993	2263.413647205441	3
4	997	2274.961049532209	3
4	999	2276.743307078145	3
4	1003	2280.214129127697	3
4	1005	2283.471859032019	3
4	1006	2287.877324270987	2
4	1007	2291.260033544521	1
4	1016	2305.165130442435	1
4	1022	2325.628111369168	1
4	1023	2326.107698077954	0
4	1025	2333.953071763477	0
4	1029	2347.801852638228	0
4	1034	2360.789919575655	0
4	1035	2361.246567849658	0
4	1037	2362.698859064813	0
4	1039	2363.643523370556	1
4	1040	2367.841700573398	1
4	1041	2371.095495125265	0
4	1046	2392.218169230268	0
4	1048	2394.39108518217	1
4	1049	2397.199963163848	1
4	1054	2400.655127529596	1
4	1060	2408.898363050178	2
4	1063	2417.415013702052	2
4	1068	2423.295046423066	2
4	1070	2423.399860528197	3
4	1075	2437.376253249859	4
4	1077	2439.988562019943	5
4	1078	2441.002466598258	5
4	1082	2455.147034612513	4
4	1083	2459.376361332702	3
4	1084	2464.479851543425	2
4	1085	2467.658381657654	1
4	1086	2469.458987886017	0
4	1088	2479.732826589049	0
4	1090	2480.108407740282	1
4	1094	2487.245375200451	1
5	134	354.557151855681	0
5	137	363.823894831212	0
5	140	368.883157238984	3.269882606171
5	145	374.225640753779	4.850385436507
5	148	381.152629021649	10.567395149577
5	149	381.564041513236	1.882330614511
5	152	396.392065199602	0
5	155	397.191292024564	0.708959695308
5	161	409.510520742028	3.547140071523
5	164	410.850292778012	0
5	167	413.949212177533	0
5	172	423.747892351221	9.347032173385
5	175	427.216328303577	11.427652211776
5	176	432.737154603274	8.01045699042
5	182	458.136980510792	2.025112789216
5	195	484.757157401552	11.981920546559
5	196	487.128552918819	8.623705298392
5	197	490.334951019075	11.638022998064
5	206	508.451775855767	0
5	209	509.533275339211	0.675567171938
5	218	529.045341224347	4.755531856197
5	224	553.294729384193	0
5	230	575.505891470915	2.090394620616
5	233	579.327708019238	0
5	236	585.459324495776	4.230110188559
5	239	587.051509254189	0
5	244	593.326016637458	5.495447771976
5	245	593.870885628551	5.360637735481
5	252	601.673915287114	3.982174638764
5	253	602.307617523022	2.681713283308
5	254	613.404042465333	11.939244167912
5	257	625.032122070715	3.476914782464
5	260	634.774522045433	0
5	263	653.323311617842	0
5	266	658.573298451177	0
5	272	684.49641219479	0
5	275	703.811838816702	11.809595193107
5	281	717.656543803752	5.22848903737
5	284	740.165402144317	0
5	293	759.431181773781	1.232111439906
5	296	765.574160589746	0
5	305	771.332335928841	4.211943503625
5	308	773.998184854917	5.399828500568
5	311	780.486843763028	10.743427698636
5	316	785.778576784775	15.671028982991
5	317	789.129609304451	17.299655206582
5	318	789.210809812606	14.783264394566
5	329	808.383587123839	26.077008182437
5	330	811.400416952326	26.7216597566
5	331	813.007345920647	23.191556330221
5	334	815.301245517812	23.190621307962
5	335	815.306997837702	21.203072642429
5	338	819.416667599455	15.162392549741
5	339	821.952702182934	13.89875426823
5	342	827.880761555312	14.693602249301
5	345	831.45455008003	15.509347114057
5	352	850.34495376282	23.907096196266
5	359	866.102292944282	34.958502406725
5	360	866.122423437564	34.513943277719
5	365	875.064587379701	38.864074198144
5	366	876.114189669699	29.898893895513
5	369	880.576571202455	24.581844778912
5	372	886.253574467842	27.735280208619
5	375	890.102840783628	26.132767374453
5	376	891.325502318799	18.222644096258
5	379	898.479305750104	23.882728977168
5	382	898.86468148465	22.29610081806
5	387	907.827143103447	22.654803096195
5	399	927.093875511016	37.21228267638
5	400	927.101633856819	32.886429244069
5	403	930.099873901624	31.411693610685
5	404	930.670975583293	29.473509177952
5	405	932.889672500919	25.385779710514
5	410	936.531686638481	25.586908511817
5	411	937.589262001292	18.480479042321
5	418	951.548298705182	27.995901584694
5	419	951.781683976451	25.30328334307
5	420	953.563423767924	26.216700897766
5	421	954.246267412356	19.774182879928
5	422	955.697786457658	20.260075193
5	430	994.163089011225	55.809686786855
5	433	997.273332025577	49.113481101165
5	436	1000.040656325224	51.395145809467
5	439	1003.324662061618	43.490367727853
5	444	1005.614769985451	34.383466226541
5	445	1010.771657113526	15.330632463236
5	446	1010.956133076142	13.216635323416
5	447	1011.717394214896	9.470338417084
5	448	1014.039485176598	9.763285880101
5	449	1014.833439750945	9.892659114064
5	452	1015.287020659383	0.197357558145
5	462	1036.509255612469	4.764538402992
5	469	1046.058829186077	12.189028818739
5	470	1046.375579262655	11.156951148466
5	471	1047.67927629136	5.57319692269
5	472	1048.092866559668	5.199532369318
5	477	1061.060276808633	16.152566710412
5	478	1062.072979425017	11.96273343857
5	479	1062.306296307591	5.82806922892
5	493	1112.019099512836	30.483690593592
5	506	1131.980318069021	21.056298411197
5	507	1133.107522285756	16.530296032833
5	508	1136.604151127661	17.380435810227
5	511	1141.124500563077	20.754073125418
5	512	1142.021089947258	3.920023409704
5	515	1158.997769375823	0
5	518	1169.027522121909	4.637908018771
5	521	1176.368381827385	0
5	530	1199.872236254162	0
5	540	1211.520735784619	9.243845037927
5	543	1216.497829673863	12.219232891785
5	544	1218.193055476278	8.725457130683
5	545	1224.040835439687	11.957537193089
5	548	1232.961859612421	0
5	551	1236.984180589291	0
5	554	1246.129532192752	4.422577950879
5	560	1250.196517913514	0
5	563	1268.951555771959	0
5	566	1273.880690070633	1.604563525158
5	572	1289.22186422863	1.598343219895
5	575	1300.845123160787	0
5	578	1320.578965987141	0
5	581	1332.584785782388	0
5	584	1341.640472899657	0
5	587	1352.712257866263	0
5	592	1354.644274725746	1.047402265111
5	593	1354.770816572133	0.340353672138
5	596	1363.525267817574	0
5	599	1366.291834830339	2.309814608259
5	602	1367.138992655197	0.340585919677
5	605	1372.705165728118	4.906366699861
5	608	1380.988650301259	0
5	611	1383.440373029984	0
5	614	1392.356331268149	4.723932007246
5	623	1413.330858697752	7.385691518526
5	626	1422.396675441742	0
5	629	1429.627255756317	0
5	632	1431.219346087043	0.534257314187
5	635	1439.937483048556	0
5	642	1461.449638356275	21.147113196238
5	643	1462.064941783705	21.463374695051
5	646	1467.097882672121	25.823502841935
5	649	1472.645984989728	10.090690254655
5	650	1472.660151463088	2.570540248405
5	653	1477.856523929648	0
5	656	1479.634303538207	0
5	659	1481.017581247421	0
5	665	1492.488167261449	2.508801405899
5	668	1503.424515595397	3.911378614936
5	674	1529.541644465283	0
5	680	1535.494248258476	1.432532772861
5	683	1538.630925993558	0
5	686	1553.230681240834	0
5	699	1571.235747272071	17.786507998929
5	702	1580.675359534562	26.728605533176
5	705	1594.611264390994	36.113087052451
5	708	1599.150071355288	37.849565693917
5	709	1599.461382376344	36.99758194674
5	710	1599.875912668234	33.744676587596
5	713	1605.714067383185	28.061965963297
5	714	1612.206744247859	21.73600902581
5	715	1612.471153876081	16.91253855204
5	718	1630.638193204545	27.85065176514
5	719	1632.124611604289	2.834265388067
5	722	1637.768291493497	0
5	725	1639.148682106153	0
5	731	1657.708909622613	0
5	734	1675.495492245268	0
5	737	1682.1846757928	0
5	746	1713.412602307955	15.774878062624
5	749	1715.045173260032	0.792532867915
5	752	1726.409114793797	0.456118334351
5	758	1733.130311459274	0.03884280974
5	764	1743.602300963212	0
5	773	1769.737070293725	0
5	779	1797.429649869354	0
5	782	1808.423608925901	0
5	789	1814.227716713484	4.221135577244
5	792	1819.518819493693	8.401350313566
5	797	1825.380883522926	12.653192183013
5	798	1825.793122726322	6.498051392242
5	799	1827.353404643096	7.519197401294
5	800	1827.475535693303	3.646195764937
5	806	1850.05842958545	0
5	817	1876.190917591674	6.050116262736
5	824	1882.830371624291	10.736621034152
5	825	1888.330194852491	11.924226228625
5	826	1890.860926750951	12.794078723689
5	827	1892.929068774984	12.767030936969
5	830	1895.779154413605	2.326020297621
5	833	1914.482613606068	0
5	838	1926.843922115527	5.962944357011
5	841	1932.485302080053	7.738641781721
5	842	1934.987126976668	5.251806228268
5	845	1951.433106009163	0
5	848	1961.080825932835	0
5	851	1968.963691792235	0
5	854	1974.704298001108	0
5	857	1979.34222648922	0
5	860	1982.36574677823	0
5	865	1987.591326625206	3.753033511977
5	870	1992.527327556968	8.174151131268
5	880	2015.508905619369	26.352295136892
5	883	2021.166551415418	30.816356898116
5	886	2024.622834675462	31.183064041307
5	887	2036.453994739432	40.673169088087
5	888	2036.648148996634	40.11703509375
5	889	2041.472645472074	21.670513825409
5	890	2042.212234142357	20.262823397905
5	898	2061.805289607489	0.925699753822
5	899	2063.913145700867	3.004246983565
5	905	2076.085153990894	5.406054404005
5	908	2091.617982071237	0
5	913	2097.338711996177	4.852243834731
5	914	2098.751099148787	5.210494465186
5	920	2122.001510935314	1.847464347612
5	946	2185.819955584705	52.460890882962
5	947	2187.381868554692	47.038229848752
5	958	2198.672212282024	46.975227763409
5	961	2207.577198347162	42.1169789289
5	966	2212.907242769341	29.958709091145
5	971	2223.6561400517	34.44363194426
5	972	2224.81271001468	35.166527588849
5	975	2230.51152847728	36.596650409494
5	978	2232.344541222634	38.390377114728
5	979	2233.310004374301	38.748993061393
5	980	2241.319396490148	40.553294138761
5	983	2248.07709491815	37.84808441036
5	984	2249.480089630547	37.679132221753
5	985	2250.018634466424	36.893618267848
5	986	2250.320904082632	33.502705906447
5	987	2255.314163769156	27.30275152257
5	990	2260.795426897145	29.725648918687
5	993	2263.413647205441	18.351609791205
5	998	2275.375182385726	18.421556727578
5	999	2276.743307078145	15.861908114752
5	1004	2281.036549391291	10.568989467599
5	1005	2283.471859032019	8.51080949981
5	1006	2287.877324270987	10.732189613604
5	1007	2291.260033544521	11.045904416824
5	1021	2318.902653892167	26.546348937452
5	1022	2325.628111369168	20.462980926733
5	1025	2333.953071763477	0
5	1028	2347.345497516012	2.099565274492
5	1034	2360.789919575655	0
5	1037	2362.698859064813	0
5	1040	2367.841700573398	4.198177202842
5	1046	2392.218169230268	0
5	1049	2397.199963163848	2.808877981678
5	1052	2398.978447919998	0.009995287948
5	1062	2413.081861525256	12.42673399566
5	1063	2417.415013702052	12.713524585871
5	1066	2423.02082553554	14.122462485362
5	1073	2435.661380506148	16.693053592127
5	1078	2441.002466598258	17.707420175192
5	1081	2454.088262512135	30.688401983938
5	1082	2455.147034612513	28.136171668297
5	1083	2459.376361332702	22.000108082843
5	1084	2464.479851543425	24.491289523482
5	1085	2467.658381657654	24.224453063982
5	1088	2479.732826589049	0
5	1093	2485.822666187349	5.714258447067
5	1094	2487.245375200451	6.624155103659
6	135	355.160353554994	27
6	140	368.883157238984	28
6	148	381.152629021649	29
6	149	381.564041513236	30
6	150	382.685176805514	31
6	155	397.191292024564	32
6	156	399.063220251664	33
6	162	409.954341388286	34
6	165	412.079109425518	35
6	175	427.216328303577	36
6	176	432.737154603274	37
6	177	435.332948812784	38
6	183	461.171881163817	39
6	196	487.128552918819	40
6	197	490.334951019075	41
6	198	494.941957053491	42
6	209	509.533275339211	43
6	210	509.584683669832	44
6	219	530.217958506636	45
6	225	553.637775472519	46
6	231	576.529563845818	47
6	236	585.459324495776	48
6	237	586.848293378799	49
6	244	593.326016637458	50
6	245	593.870885628551	51
6	252	601.673915287114	52
6	253	602.307617523022	53
6	254	613.404042465333	54
6	257	625.032122070715	55
6	258	627.916206376131	56
6	261	646.060482027643	57
6	264	653.655509996325	58
6	267	659.303978474175	59
6	275	703.811838816702	60
6	276	703.897962758246	61
6	282	719.927841583295	62
6	285	740.966392049183	63
6	294	763.473383433232	64
6	308	773.998184854917	65
6	311	780.486843763028	66
6	316	785.778576784775	67
6	317	789.129609304451	68
6	318	789.210809812606	69
6	330	811.400416952326	70
6	331	813.007345920647	71
6	334	815.301245517812	72
6	335	815.306997837702	73
6	338	819.416667599455	74
6	339	821.952702182934	75
6	342	827.880761555312	76
6	345	831.45455008003	77
6	360	866.122423437564	78
6	365	875.064587379701	79
6	366	876.114189669699	80
6	369	880.576571202455	81
6	372	886.253574467842	82
6	375	890.102840783628	83
6	376	891.325502318799	84
6	379	898.479305750104	85
6	387	907.827143103447	86
6	400	927.101633856819	87
6	403	930.099873901624	88
6	404	930.670975583293	89
6	405	932.889672500919	90
6	411	937.589262001292	91
6	418	951.548298705182	92
6	419	951.781683976451	93
6	420	953.563423767924	94
6	421	954.246267412356	95
6	422	955.697786457658	96
6	436	1000.040656325224	97
6	439	1003.324662061618	98
6	445	1010.771657113526	99
6	446	1010.956133076142	100
6	447	1011.717394214896	101
6	448	1014.039485176598	102
6	449	1014.833439750945	103
6	452	1015.287020659383	104
6	453	1015.390423636277	105
6	469	1046.058829186077	106
6	470	1046.375579262655	107
6	471	1047.67927629136	108
6	472	1048.092866559668	109
6	478	1062.072979425017	110
6	479	1062.306296307591	111
6	480	1062.531104433122	112
6	507	1133.107522285756	113
6	508	1136.604151127661	114
6	511	1141.124500563077	115
6	512	1142.021089947258	116
6	513	1147.958538954781	117
6	518	1169.027522121909	118
6	519	1171.949671078315	119
6	522	1178.026155728127	120
6	544	1218.193055476278	121
6	545	1224.040835439687	122
6	546	1224.604538534357	123
6	549	1234.22024607418	124
6	554	1246.129532192752	125
6	555	1246.889297234426	126
6	561	1258.727999897849	127
6	567	1275.221614790592	128
6	573	1295.318473136102	129
6	576	1310.020170830526	130
6	579	1320.92525516186	131
6	582	1336.619410429368	132
6	585	1343.208215987739	133
6	592	1354.644274725746	134
6	593	1354.770816572133	135
6	594	1357.695138998791	136
6	599	1366.291834830339	137
6	602	1367.138992655197	138
6	605	1372.705165728118	139
6	606	1373.303054024493	140
6	609	1381.172389694348	141
6	615	1394.487952304453	142
6	624	1414.062630318071	143
6	627	1428.923078375154	144
6	632	1431.219346087043	145
6	633	1434.831107657412	146
6	643	1462.064941783705	147
6	649	1472.645984989728	148
6	650	1472.660151463088	149
6	651	1473.340768066865	150
6	654	1479.375562786567	151
6	657	1480.978300208637	152
6	660	1484.582466156705	153
6	668	1503.424515595397	154
6	669	1505.80473699496	155
6	675	1530.44093356477	156
6	681	1538.559786949042	157
6	684	1546.378356149644	158
6	702	1580.675359534562	159
6	708	1599.150071355288	160
6	709	1599.461382376344	161
6	710	1599.875912668234	162
6	713	1605.714067383185	163
6	714	1612.206744247859	164
6	715	1612.471153876081	165
6	718	1630.638193204545	166
6	719	1632.124611604289	167
6	720	1633.647045677236	168
6	723	1638.14027195323	169
6	726	1641.464860910832	170
6	732	1659.401332737475	171
6	735	1680.239042615175	172
6	738	1684.683935565171	173
6	749	1715.045173260032	174
6	752	1726.409114793797	175
6	753	1726.53438122452	176
6	759	1734.755849120705	177
6	765	1744.182100205833	178
6	774	1769.780633213546	179
6	780	1798.788213252954	180
6	792	1819.518819493693	181
6	798	1825.793122726322	182
6	799	1827.353404643096	183
6	800	1827.475535693303	184
6	801	1829.753116639911	185
6	807	1854.244426725835	186
6	824	1882.830371624291	187
6	825	1888.330194852491	188
6	826	1890.860926750951	189
6	827	1892.929068774984	190
6	831	1897.325998315675	191
6	838	1926.843922115527	192
6	841	1932.485302080053	193
6	842	1934.987126976668	194
6	843	1935.059234515336	195
6	846	1953.763141965881	196
6	849	1964.056100940522	197
6	852	1969.15581415	198
6	855	1976.55923014744	199
6	858	1980.332042231244	200
6	870	1992.527327556968	201
6	883	2021.166551415418	202
6	886	2024.622834675462	203
6	887	2036.453994739432	204
6	888	2036.648148996634	205
6	889	2041.472645472074	206
6	890	2042.212234142357	207
6	891	2057.604723282309	208
6	899	2063.913145700867	209
6	900	2067.033199276705	210
6	906	2080.333552410738	211
6	914	2098.751099148787	212
6	915	2099.299409407736	213
6	921	2122.858954709032	214
6	947	2187.381868554692	215
6	961	2207.577198347162	216
6	966	2212.907242769341	217
6	971	2223.6561400517	218
6	972	2224.81271001468	219
6	978	2232.344541222634	220
6	979	2233.310004374301	221
6	980	2241.319396490148	222
6	983	2248.07709491815	223
6	984	2249.480089630547	224
6	985	2250.018634466424	225
6	986	2250.320904082632	226
6	987	2255.314163769156	227
6	993	2263.413647205441	228
6	999	2276.743307078145	229
6	1005	2283.471859032019	230
6	1006	2287.877324270987	231
6	1007	2291.260033544521	232
6	1022	2325.628111369168	233
6	1023	2326.107698077954	234
6	1029	2347.801852638228	235
6	1035	2361.246567849658	236
6	1040	2367.841700573398	237
6	1041	2371.095495125265	238
6	1049	2397.199963163848	239
6	1063	2417.415013702052	240
6	1078	2441.002466598258	241
6	1082	2455.147034612513	242
6	1083	2459.376361332702	243
6	1084	2464.479851543425	244
6	1085	2467.658381657654	245
6	1086	2469.458987886017	246
6	1094	2487.245375200451	247
7	135	355.160353554994	0.603201699313
7	140	368.883157238984	5.059262407772
7	148	381.152629021649	11.777373704377
7	149	381.564041513236	10.978807641164
7	150	382.685176805514	3.003465906789
7	155	397.191292024564	0.799226824962
7	156	399.063220251664	2.580887922408
7	162	409.954341388286	3.990960717781
7	165	412.079109425518	1.228816647506
7	175	427.216328303577	12.815468125741
7	176	432.737154603274	16.948478511473
7	177	435.332948812784	10.60625119993
7	183	461.171881163817	5.060013442241
7	196	487.128552918819	14.353316063826
7	197	490.334951019075	11.830103398648
7	198	494.941957053491	16.24502903248
7	209	509.533275339211	1.081499483444
7	210	509.584683669832	0.726975502559
7	219	530.217958506636	5.928149138486
7	225	553.637775472519	0.343046088326
7	231	576.529563845818	3.114066995519
7	236	585.459324495776	6.131616476538
7	237	586.848293378799	5.619079071582
7	244	593.326016637458	6.274507383269
7	245	593.870885628551	6.040316763069
7	252	601.673915287114	13.163667394044
7	253	602.307617523022	4.615876874672
7	254	613.404042465333	13.778138225619
7	257	625.032122070715	23.567323773294
7	258	627.916206376131	6.36099908788
7	261	646.060482027643	11.28595998221
7	264	653.655509996325	0.332198378483
7	267	659.303978474175	0.730680022998
7	275	703.811838816702	19.315426621912
7	276	703.897962758246	11.895719134651
7	282	719.927841583295	7.499786816913
7	285	740.966392049183	0.800989904866
7	294	763.473383433232	5.274313099357
7	308	773.998184854917	6.877792429701
7	311	780.486843763028	11.888487408679
7	316	785.778576784775	16.035160720383
7	317	789.129609304451	19.022061502667
7	318	789.210809812606	17.380855714737
7	330	811.400416952326	29.093838010924
7	331	813.007345920647	28.328588724921
7	334	815.301245517812	25.485455927386
7	335	815.306997837702	23.196373627852
7	338	819.416667599455	25.312742404182
7	339	821.952702182934	17.69842713322
7	342	827.880761555312	19.826813640608
7	345	831.45455008003	18.267390774019
7	360	866.122423437564	34.978632900007
7	365	875.064587379701	43.456107219856
7	366	876.114189669699	39.913676488142
7	369	880.576571202455	34.361275428269
7	372	886.253574467842	30.258848044299
7	375	890.102840783628	31.584546524405
7	376	891.325502318799	27.355428909624
7	379	898.479305750104	25.376447527563
7	387	907.827143103447	31.258562436857
7	400	927.101633856819	37.220041022183
7	403	930.099873901624	35.884669288874
7	404	930.670975583293	31.982795292354
7	405	932.889672500919	31.692206095578
7	411	937.589262001292	26.644483874628
7	418	951.548298705182	32.439515746211
7	419	951.781683976451	28.229286855963
7	420	953.563423767924	27.085023134543
7	421	954.246267412356	26.899544542198
7	422	955.697786457658	21.22570192523
7	436	1000.040656325224	51.880805400812
7	439	1003.324662061618	54.679151545861
7	445	1010.771657113526	39.540353354616
7	446	1010.956133076142	15.515108425852
7	447	1011.717394214896	13.97789646217
7	448	1014.039485176598	11.792429378786
7	449	1014.833439750945	10.557240454448
7	452	1015.287020659383	10.346240022502
7	453	1015.390423636277	0.300760535039
7	469	1046.058829186077	14.3141119766
7	470	1046.375579262655	12.505778895317
7	471	1047.67927629136	12.460648177171
7	472	1048.092866559668	5.986787190998
7	478	1062.072979425017	17.165269326796
7	479	1062.306296307591	12.196050321144
7	480	1062.531104433122	6.052877354451
7	507	1133.107522285756	22.183502627932
7	508	1136.604151127661	20.026924874738
7	511	1141.124500563077	21.900785245643
7	512	1142.021089947258	21.650662509599
7	513	1147.958538954781	9.857472417227
7	518	1169.027522121909	10.029752746086
7	519	1171.949671078315	7.560056975177
7	522	1178.026155728127	1.657773900742
7	544	1218.193055476278	13.9144586942
7	545	1224.040835439687	14.573237094092
7	546	1224.604538534357	12.521240287759
7	549	1234.22024607418	1.258386461759
7	554	1246.129532192752	9.145351603461
7	555	1246.889297234426	5.182342992553
7	561	1258.727999897849	8.531481984335
7	567	1275.221614790592	2.945488245117
7	573	1295.318473136102	7.694952127367
7	576	1310.020170830526	9.175047669739
7	579	1320.92525516186	0.346289174719
7	582	1336.619410429368	4.03462464698
7	585	1343.208215987739	1.567743088082
7	592	1354.644274725746	1.932016859483
7	593	1354.770816572133	1.173944111498
7	594	1357.695138998791	3.264676098796
7	599	1366.291834830339	2.766567012765
7	602	1367.138992655197	3.156972433117
7	605	1372.705165728118	5.906758992598
7	606	1373.303054024493	5.504254996236
7	609	1381.172389694348	0.183739393089
7	615	1394.487952304453	6.85555304355
7	624	1414.062630318071	8.117463138845
7	627	1428.923078375154	6.526402933412
7	632	1431.219346087043	1.592090330726
7	633	1434.831107657412	4.146018884556
7	643	1462.064941783705	21.762416623668
7	649	1472.645984989728	31.371605159542
7	650	1472.660151463088	10.104856728015
7	651	1473.340768066865	3.251156852182
7	654	1479.375562786567	1.519038856919
7	657	1480.978300208637	1.34399667043
7	660	1484.582466156705	3.564884909284
7	668	1503.424515595397	13.445149739847
7	669	1505.80473699496	6.291600014499
7	675	1530.44093356477	0.899289099487
7	681	1538.559786949042	4.498071463427
7	684	1546.378356149644	7.747430156086
7	702	1580.675359534562	27.22612026142
7	708	1599.150071355288	40.651894016745
7	709	1599.461382376344	38.160876714973
7	710	1599.875912668234	37.41211223863
7	713	1605.714067383185	39.582831302547
7	714	1612.206744247859	34.554642827971
7	715	1612.471153876081	22.000418654032
7	718	1630.638193204545	35.079577880504
7	719	1632.124611604289	29.337070164884
7	720	1633.647045677236	4.356699461014
7	723	1638.14027195323	0.371980459733
7	726	1641.464860910832	2.316178804679
7	732	1659.401332737475	1.692423114862
7	735	1680.239042615175	4.743550369907
7	738	1684.683935565171	2.499259772371
7	749	1715.045173260032	17.407449014701
7	752	1726.409114793797	12.15647440168
7	753	1726.53438122452	0.581384765074
7	759	1734.755849120705	1.664380471171
7	765	1744.182100205833	0.579799242621
7	774	1769.780633213546	0.043562919821
7	780	1798.788213252954	1.3585633836
7	792	1819.518819493693	9.512238357453
7	798	1825.793122726322	13.065431386409
7	799	1827.353404643096	8.058333309016
7	800	1827.475535693303	7.641328451501
7	801	1829.753116639911	5.923776711545
7	807	1854.244426725835	4.185997140385
7	824	1882.830371624291	12.689570295353
7	825	1888.330194852491	16.236444262352
7	826	1890.860926750951	14.454958127085
7	827	1892.929068774984	14.862220747722
7	831	1897.325998315675	3.872864199691
7	838	1926.843922115527	12.361308509459
7	841	1932.485302080053	11.604324321537
7	842	1934.987126976668	10.240466678336
7	843	1935.059234515336	5.323913766936
7	846	1953.763141965881	2.330035956718
7	849	1964.056100940522	2.975275007687
7	852	1969.15581415	0.192122357765
7	855	1976.55923014744	1.854932146332
7	858	1980.332042231244	0.989815742024
7	870	1992.527327556968	8.689034443739
7	883	2021.166551415418	32.009940932941
7	886	2024.622834675462	34.27264015816
7	887	2036.453994739432	43.014224105277
7	888	2036.648148996634	40.867323345289
7	889	2041.472645472074	44.94153156919
7	890	2042.212234142357	22.410102495692
7	891	2057.604723282309	35.655312537857
7	899	2063.913145700867	3.0335558472
7	900	2067.033199276705	6.124300559403
7	906	2080.333552410738	9.654452823849
7	914	2098.751099148787	6.264630987341
7	915	2099.299409407736	5.758804724135
7	921	2122.858954709032	2.70490812133
7	947	2187.381868554692	54.022803852949
7	961	2207.577198347162	55.880213828547
7	966	2212.907242769341	47.447023351079
7	971	2223.6561400517	40.707606373504
7	972	2224.81271001468	35.60020190724
7	978	2232.344541222634	38.429663154848
7	979	2233.310004374301	39.355840266395
7	980	2241.319396490148	46.75838517724
7	983	2248.07709491815	47.310992566763
7	984	2249.480089630547	39.251079122757
7	985	2250.018634466424	38.21767705763
7	986	2250.320904082632	37.195887884056
7	987	2255.314163769156	38.495965592971
7	993	2263.413647205441	32.343869226983
7	999	2276.743307078145	19.789681419997
7	1005	2283.471859032019	13.004299108327
7	1006	2287.877324270987	12.916274738778
7	1007	2291.260033544521	14.114898887138
7	1022	2325.628111369168	33.271806414453
7	1023	2326.107698077954	20.942567635519
7	1029	2347.801852638228	2.555920396708
7	1035	2361.246567849658	0.456648274003
7	1040	2367.841700573398	5.142841508585
7	1041	2371.095495125265	7.451971754709
7	1049	2397.199963163848	4.98179393358
7	1063	2417.415013702052	16.759886172456
7	1078	2441.002466598258	22.034139684237
7	1082	2455.147034612513	31.747174084316
7	1083	2459.376361332702	32.365498388486
7	1084	2464.479851543425	27.103598293566
7	1085	2467.658381657654	27.669819637711
7	1086	2469.458987886017	26.025059292345
7	1094	2487.245375200451	7.136967460169
8	142	369.375255317272	1
8	158	404.258574086135	1
8	171	415.788676091801	1
8	179	443.919676013075	1
8	185	470.546870107225	1
8	193	480.431995840156	2
8	200	495.029730108993	1
8	203	500.513567475372	1
8	212	517.809300423735	1
8	215	521.192237302952	1
8	221	541.925002229654	1
8	227	567.695925539455	1
8	269	660.252978140038	1
8	278	709.366630100926	1
8	287	743.646848964604	1
8	290	756.458935907148	1
8	298	767.120392425216	1
8	320	789.815789590426	1
8	347	831.608480159845	1
8	358	863.970073409175	1
8	381	898.688180290939	1
8	389	910.944778126664	1
8	391	912.065066633432	2
8	407	934.472084532428	1
8	424	959.834294333765	1
8	426	963.034023953894	2
8	432	995.44102465029	1
8	441	1004.276199296497	1
8	455	1030.943152599568	1
8	474	1050.110245986447	1
8	482	1074.807943387107	1
8	486	1086.494175780376	2
8	489	1102.06552599861	2
8	497	1119.223715317434	1
8	501	1121.890324746436	2
8	504	1123.663479696237	2
8	524	1186.897939430832	1
8	526	1191.951539220539	2
8	532	1202.276890746692	1
8	536	1207.192094069512	2
8	542	1212.083298246598	1
8	557	1247.010455122903	1
8	565	1272.276126545475	1
8	569	1284.608791838486	1
8	613	1387.632399260903	1
8	617	1403.412013724196	1
8	621	1409.315926484005	2
8	637	1440.302525160037	1
8	645	1462.555294735073	1
8	662	1489.486066902343	1
8	671	1507.762238717833	1
8	677	1533.228522866138	1
8	692	1558.498177338543	1
8	704	1590.470735222049	1
8	728	1645.874418155944	1
8	740	1688.598277283569	1
8	742	1697.269698461538	2
8	755	1731.744765826945	1
8	761	1737.595552176882	1
8	767	1744.899527686484	1
8	770	1755.198627303625	1
8	776	1782.557906561692	1
8	784	1810.00658113624	1
8	794	1819.834207241802	1
8	803	1845.586409673488	1
8	809	1858.271437782732	1
8	812	1868.692586631094	1
8	829	1893.453134115984	1
8	864	1984.3531764257	1
8	872	1993.439770634155	1
8	878	2005.414674315447	2
8	893	2057.829292268349	1
8	902	2067.19127090892	1
8	912	2093.540604683601	1
8	917	2118.272495163052	1
8	923	2123.862463980623	1
8	925	2125.583614538701	2
8	931	2148.351335550223	3
8	936	2158.513685384924	3
8	938	2159.742235841395	4
8	949	2189.21250810744	1
8	974	2228.011412246586	1
8	989	2256.953625658148	1
8	995	2270.467559923692	1
8	1001	2277.145134657383	1
8	1009	2292.356304954715	1
8	1011	2296.559424856657	2
8	1014	2299.848805152245	2
8	1019	2312.593632662147	2
8	1027	2345.24593224152	1
8	1031	2353.399464487008	1
8	1043	2372.427930054302	1
8	1051	2398.96845263205	1
8	1056	2404.701489116181	1
8	1058	2408.893875339512	2
8	1065	2418.968326914021	1
8	1072	2427.010862944216	1
8	1080	2443.433928593672	1
8	1092	2480.621220096792	1
8	1096	2496.852317827315	1
9	142	369.375255317272	6
9	171	415.788676091801	7
9	298	767.120392425216	8
9	320	789.815789590426	9
9	347	831.608480159845	10
9	358	863.970073409175	11
9	381	898.688180290939	12
9	389	910.944778126664	13
9	407	934.472084532428	14
9	424	959.834294333765	15
9	432	995.44102465029	16
9	441	1004.276199296497	17
9	474	1050.110245986447	18
9	497	1119.223715317434	19
9	532	1202.276890746692	20
9	542	1212.083298246598	21
9	565	1272.276126545475	22
9	613	1387.632399260903	23
9	637	1440.302525160037	24
9	645	1462.555294735073	25
9	692	1558.498177338543	26
9	704	1590.470735222049	27
9	784	1810.00658113624	28
9	794	1819.834207241802	29
9	829	1893.453134115984	30
9	864	1984.3531764257	31
9	872	1993.439770634155	32
9	912	2093.540604683601	33
9	949	2189.21250810744	34
9	974	2228.011412246586	35
9	989	2256.953625658148	36
9	995	2270.467559923692	37
9	1001	2277.145134657383	38
9	1009	2292.356304954715	39
9	1027	2345.24593224152	40
9	1051	2398.96845263205	41
9	1056	2404.701489116181	42
9	1065	2418.968326914021	43
9	1072	2427.010862944216	44
9	1080	2443.433928593672	45
9	1092	2480.621220096792	46
9	1096	2496.852317827315	47
10	142	369.375255317272	0
10	158	404.258574086135	0
10	171	415.788676091801	0
10	179	443.919676013075	0
10	185	470.546870107225	0
10	194	481.945040675015	1.513044834859
10	200	495.029730108993	0
10	203	500.513567475372	0
10	212	517.809300423735	0
10	215	521.192237302952	0
10	221	541.925002229654	0
10	227	567.695925539455	0
10	269	660.252978140038	0
10	278	709.366630100926	0
10	287	743.646848964604	0
10	290	756.458935907148	0
10	298	767.120392425216	0
10	320	789.815789590426	0
10	347	831.608480159845	0
10	358	863.970073409175	0
10	381	898.688180290939	0
10	389	910.944778126664	0
10	394	920.67022765819	8.605161024758
10	407	934.472084532428	0
10	424	959.834294333765	0
10	429	980.822572935397	17.788548981503
10	432	995.44102465029	0
10	441	1004.276199296497	0
10	455	1030.943152599568	0
10	474	1050.110245986447	0
10	482	1074.807943387107	0
10	487	1091.596095291205	5.101919510829
10	492	1111.018717199621	8.953191201011
10	497	1119.223715317434	0
10	502	1123.393645848629	1.503321102193
10	505	1128.581374596453	4.917894900216
10	524	1186.897939430832	0
10	527	1196.613485408496	4.661946187957
10	532	1202.276890746692	0
10	539	1210.01662914454	2.824535075028
10	542	1212.083298246598	0
10	557	1247.010455122903	0
10	565	1272.276126545475	0
10	569	1284.608791838486	0
10	613	1387.632399260903	0
10	617	1403.412013724196	0
10	622	1410.070063663633	0.754137179628
10	637	1440.302525160037	0
10	645	1462.555294735073	0
10	662	1489.486066902343	0
10	671	1507.762238717833	0
10	677	1533.228522866138	0
10	692	1558.498177338543	0
10	704	1590.470735222049	0
10	728	1645.874418155944	0
10	740	1688.598277283569	0
10	745	1710.774513022116	13.504814560578
10	755	1731.744765826945	0
10	761	1737.595552176882	0
10	767	1744.899527686484	0
10	770	1755.198627303625	0
10	776	1782.557906561692	0
10	784	1810.00658113624	0
10	794	1819.834207241802	0
10	803	1845.586409673488	0
10	809	1858.271437782732	0
10	812	1868.692586631094	0
10	829	1893.453134115984	0
10	864	1984.3531764257	0
10	872	1993.439770634155	0
10	879	2011.20735050365	5.792676188203
10	893	2057.829292268349	0
10	902	2067.19127090892	0
10	912	2093.540604683601	0
10	917	2118.272495163052	0
10	923	2123.862463980623	0
10	934	2153.855820704236	28.272206165535
10	941	2170.43863504915	22.087299498927
10	942	2181.483192366582	22.969506981658
10	943	2182.876205321399	23.133969480004
10	949	2189.21250810744	0
10	974	2228.011412246586	0
10	989	2256.953625658148	0
10	995	2270.467559923692	0
10	1001	2277.145134657383	0
10	1009	2292.356304954715	0
10	1012	2299.189627242064	2.630202385407
10	1017	2306.232749881005	6.38394472876
10	1020	2313.722358763092	1.128726100945
10	1027	2345.24593224152	0
10	1031	2353.399464487008	0
10	1043	2372.427930054302	0
10	1051	2398.96845263205	0
10	1056	2404.701489116181	0
10	1061	2412.404262413533	3.510387074021
10	1065	2418.968326914021	0
10	1072	2427.010862944216	0
10	1080	2443.433928593672	0
10	1092	2480.621220096792	0
10	1096	2496.852317827315	0
11	1097	2500	0.0988
12	1097	2500	0.0468

