version 2
run experiments_easy_game_mode1-1486-20230308-12:07:18-26218
attr configname experiments_easy_game_mode1
attr datetime 20230308-12:07:18
attr experiment experiments_easy_game_mode1
attr inifile omnetpp.ini
attr iterationvars "$0=7, $1=1, $2=100"
attr iterationvarsf 7,1,100-
attr measurement "$0=7, $1=1, $2=100"
attr network Network
attr processid 26218
attr repetition 16
attr replication #16
attr resultdir results
attr runnumber 1486
attr seedset 16
param *.boss.arrival_mean 20
param *.boss.service_mean 7
param *.minion.arrival_mean 10
param *.minion.service_mean 1
param *.player.recover_rate_x 100
param **.minion.arrival_distribution 0
param **.minion.service_distribution 0
param **.boss.arrival_distribution 0
param **.boss.service_distribution 0

vector 0 Network.player boss_defeated_stat:vector ETV
attr source signal_boss_defeated
vector 1 Network.player boss_jobs_queue_number_stat:vector ETV
attr source signal_boss_jobs_queue_number
vector 2 Network.player boss_response_time_stat:vector ETV
attr source signal_boss_response_time
vector 3 Network.player boss_waiting_time_stat:vector ETV
attr source signal_boss_waiting_time
vector 4 Network.player minion_waiting_time_stat:vector ETV
attr source signal_minion_waiting_time
vector 5 Network.player minion_defeated_stat:vector ETV
attr source signal_minion_defeated
vector 6 Network.player minion_jobs_queue_number_stat:vector ETV
attr source signal_minion_jobs_queue_number
vector 7 Network.player minion_response_time_stat:vector ETV
attr source signal_minion_response_time
vector 8 Network.player minion_jobs_number_stat:vector ETV
attr source signal_minion_jobs_number
vector 9 Network.player boss_jobs_number_stat:vector ETV
attr source signal_boss_jobs_number
vector 10 Network.player minion_recovered_stat:vector ETV
attr source signal_minion_recovered
vector 11 Network.player minion_throughput:vector ETV
attr source signal_minion_throughput
vector 12 Network.player boss_throughput:vector ETV
attr source signal_boss_throughput
0	154	350.216397591666	21
0	155	351.658144602829	22
0	167	375.412127859373	23
0	173	389.861920316262	24
0	177	394.580948383795	25
0	185	401.372694948011	26
0	188	404.021833795858	27
0	193	409.305202117515	28
0	204	426.268929044588	29
0	209	436.007919564286	30
0	226	479.722375666083	31
0	249	523.943978278756	32
0	250	526.025680849937	33
0	253	535.922061780324	34
0	254	536.000296148934	35
0	280	569.993823987544	36
0	303	592.943470496316	37
0	315	635.257507706905	38
0	320	657.43810465628	39
0	329	670.341014732197	40
0	330	670.650058858029	41
0	333	679.191524390285	42
0	344	700.900542307485	43
0	347	705.398046232566	44
0	348	708.946779540071	45
0	357	718.569090982124	46
0	374	758.999262849745	47
0	379	766.847953955104	48
0	380	768.703126087926	49
0	390	775.037296801488	50
0	395	785.38752263054	51
0	410	818.084814301243	52
0	417	823.705202426095	53
0	422	828.382530447044	54
0	423	837.010952265245	55
0	424	839.203621696972	56
0	445	860.670394530851	57
0	448	863.681502730587	58
0	449	870.12930330716	59
0	450	870.534140958228	60
0	451	874.136237981712	61
0	460	885.495375581432	62
0	461	888.564152822266	63
0	468	916.219097110532	64
0	471	927.999312725879	65
0	472	943.412214874849	66
0	473	945.885397726096	67
0	474	946.598947012809	68
0	489	978.338236108458	69
0	492	982.184726359817	70
0	508	1007.333806589399	71
0	515	1024.421621314982	72
0	516	1025.83982385411	73
0	519	1026.143160026334	74
0	524	1035.256764042363	75
0	530	1046.7939274737	76
0	533	1056.043770388341	77
0	547	1071.838635366443	78
0	548	1072.169303828562	79
0	555	1083.696276749961	80
0	570	1110.166767572838	81
0	577	1124.552322470925	82
0	578	1127.792612625484	83
0	581	1132.553618094183	84
0	603	1177.121823856391	85
0	655	1272.300207797159	86
0	656	1274.540976528048	87
0	666	1293.109275004948	88
0	690	1354.511723162266	89
0	711	1380.831172547995	90
0	716	1383.37779834814	91
0	725	1403.696612703284	92
0	726	1404.74303491411	93
0	727	1408.789109231281	94
0	732	1434.643500084856	95
0	735	1437.116335597647	96
0	750	1473.309920078828	97
0	759	1492.785914368482	98
0	760	1508.527353668923	99
0	767	1528.872588683455	100
0	768	1531.933491933307	101
0	771	1544.013207365033	102
0	790	1607.323288626614	103
0	793	1612.620044845562	104
0	794	1616.201515967616	105
0	803	1639.96146076083	106
0	810	1658.615737095677	107
0	818	1678.291830742201	108
0	819	1682.444274879474	109
0	828	1704.400041893347	110
0	842	1751.69403278274	111
0	847	1754.963629730359	112
0	860	1779.212982165258	113
0	871	1801.322045639553	114
0	872	1803.241298039268	115
0	906	1894.071324949764	116
0	909	1901.967737023243	117
0	910	1902.783439275589	118
0	911	1906.708237289991	119
0	914	1910.687754230781	120
0	921	1928.150248657965	121
0	924	1949.650956435549	122
0	927	1951.774783499836	123
0	937	1960.765440604822	124
0	944	1980.854727430029	125
0	951	1991.984811757971	126
0	962	2023.458695860933	127
0	970	2026.233218890486	128
0	971	2033.344987637299	129
0	975	2038.68905722005	130
0	997	2095.987206172214	131
0	998	2096.157594290166	132
0	1001	2101.396261546795	133
0	1002	2102.132149257191	134
0	1005	2104.098911909639	135
0	1012	2120.807749680444	136
0	1013	2121.009741779451	137
0	1021	2129.696216309061	138
0	1024	2137.909466963593	139
0	1033	2168.560261624785	140
0	1056	2188.846543187879	141
0	1071	2209.166129473728	142
0	1076	2219.453562859118	143
0	1077	2222.696870595883	144
0	1102	2252.687104740532	145
0	1116	2296.469289725525	146
0	1125	2315.211814394539	147
0	1180	2383.603532862732	148
0	1188	2399.195890202427	149
0	1194	2413.569888782881	150
0	1203	2428.623125272083	151
0	1214	2452.913078175787	152
0	1222	2456.504607076307	153
0	1227	2461.271510633501	154
1	154	350.216397591666	1
1	155	351.658144602829	0
1	166	369.138949755894	0
1	167	375.412127859373	0
1	172	385.453117749827	0
1	173	389.861920316262	0
1	176	392.547813056844	0
1	177	394.580948383795	0
1	182	400.238876986431	0
1	184	400.875830780534	1
1	185	401.372694948011	1
1	187	402.148108483634	1
1	188	404.021833795858	1
1	193	409.305202117515	0
1	203	424.812540692519	0
1	204	426.268929044588	0
1	206	429.941475816797	0
1	209	436.007919564286	0
1	221	476.703449272382	0
1	226	479.722375666083	0
1	232	483.215547513179	0
1	238	497.665056686089	1
1	244	502.518415000999	2
1	248	518.010136143749	3
1	249	523.943978278756	3
1	250	526.025680849937	2
1	253	535.922061780324	1
1	254	536.000296148934	0
1	275	567.422534967774	0
1	280	569.993823987544	0
1	302	589.254921646886	0
1	303	592.943470496316	0
1	314	633.612335763276	0
1	315	635.257507706905	0
1	317	653.717876567391	0
1	319	656.162405383807	1
1	320	657.43810465628	1
1	322	664.883556027538	1
1	324	665.805119266422	2
1	326	666.345196335487	3
1	329	670.341014732197	3
1	330	670.650058858029	2
1	333	679.191524390285	1
1	335	681.955333536092	1
1	337	685.56874799801	2
1	344	700.900542307485	2
1	347	705.398046232566	1
1	348	708.946779540071	0
1	354	711.427100791882	0
1	357	718.569090982124	0
1	371	753.719190786411	0
1	373	758.457762291243	1
1	374	758.999262849745	1
1	376	759.862359115068	1
1	379	766.847953955104	1
1	380	768.703126087926	0
1	389	773.592507289388	0
1	390	775.037296801488	0
1	394	782.804215248613	0
1	395	785.38752263054	0
1	407	812.083228163358	0
1	409	814.53789680283	1
1	410	818.084814301243	1
1	414	821.314613689265	1
1	416	823.339640693145	2
1	417	823.705202426095	2
1	419	824.380758877111	2
1	421	826.130509309885	3
1	422	828.382530447044	3
1	423	837.010952265245	2
1	424	839.203621696972	1
1	426	840.108369561828	1
1	430	841.927159132011	2
1	432	843.753911163271	3
1	436	844.204056085925	4
1	438	844.767347024862	5
1	445	860.670394530851	5
1	448	863.681502730587	4
1	449	870.12930330716	3
1	450	870.534140958228	2
1	451	874.136237981712	1
1	453	874.251744450862	1
1	457	881.630829256108	2
1	459	882.640125728282	3
1	460	885.495375581432	3
1	461	888.564152822266	2
1	463	895.753310537335	2
1	465	908.271428453241	3
1	467	916.148443900527	4
1	468	916.219097110532	4
1	471	927.999312725879	3
1	472	943.412214874849	2
1	473	945.885397726096	1
1	474	946.598947012809	0
1	488	972.831961978536	0
1	489	978.338236108458	0
1	491	979.360375048207	0
1	492	982.184726359817	0
1	497	984.240373431469	0
1	501	994.891896571427	1
1	505	1003.858883076407	2
1	508	1007.333806589399	2
1	510	1015.591232681327	2
1	512	1016.22762365404	3
1	515	1024.421621314982	3
1	516	1025.83982385411	2
1	519	1026.143160026334	1
1	524	1035.256764042363	0
1	527	1037.619457588496	0
1	529	1044.868849600906	1
1	530	1046.7939274737	1
1	533	1056.043770388341	0
1	542	1065.665815288377	0
1	546	1069.837508154843	1
1	547	1071.838635366443	1
1	548	1072.169303828562	0
1	554	1083.0195610608	0
1	555	1083.696276749961	0
1	557	1085.716712364398	0
1	563	1091.165896348159	1
1	567	1101.862008106945	2
1	570	1110.166767572838	2
1	572	1110.640880361671	2
1	577	1124.552322470925	2
1	578	1127.792612625484	1
1	581	1132.553618094183	0
1	602	1168.530077245097	0
1	603	1177.121823856391	0
1	650	1268.922055384295	0
1	652	1269.704014982941	1
1	655	1272.300207797159	1
1	656	1274.540976528048	0
1	665	1289.557095687291	0
1	666	1293.109275004948	0
1	689	1352.506855732944	0
1	690	1354.511723162266	0
1	704	1370.404388530883	0
1	708	1373.105114693269	1
1	710	1380.113067217977	2
1	711	1380.831172547995	2
1	715	1381.736131665	2
1	716	1383.37779834814	2
1	722	1398.191573523998	2
1	724	1401.824001929381	3
1	725	1403.696612703284	3
1	726	1404.74303491411	2
1	727	1408.789109231281	1
1	729	1411.331822722844	1
1	732	1434.643500084856	1
1	735	1437.116335597647	0
1	749	1473.250787678847	0
1	750	1473.309920078828	0
1	752	1484.54545862394	0
1	754	1490.786627567511	1
1	759	1492.785914368482	1
1	760	1508.527353668923	0
1	764	1515.939404877614	0
1	766	1518.058639666684	1
1	767	1528.872588683455	1
1	768	1531.933491933307	0
1	770	1541.328091502649	0
1	771	1544.013207365033	0
1	779	1588.998828454145	0
1	787	1591.826544490865	1
1	790	1607.323288626614	1
1	792	1607.947249559554	1
1	793	1612.620044845562	1
1	794	1616.201515967616	0
1	800	1626.570445940533	0
1	803	1639.96146076083	0
1	809	1654.192015298371	0
1	810	1658.615737095677	0
1	815	1674.039597021772	0
1	817	1676.296778732605	1
1	818	1678.291830742201	1
1	819	1682.444274879474	0
1	827	1704.085550962152	0
1	828	1704.400041893347	0
1	833	1734.959901667771	0
1	839	1750.512206608145	1
1	842	1751.69403278274	1
1	847	1754.963629730359	0
1	857	1772.016630625158	0
1	860	1779.212982165258	0
1	866	1784.953323999097	0
1	868	1793.940302291954	1
1	871	1801.322045639553	1
1	872	1803.241298039268	0
1	893	1863.116674614531	0
1	899	1884.1048210951	1
1	901	1886.579840852465	2
1	905	1891.821254052115	3
1	906	1894.071324949764	3
1	908	1901.129284237924	3
1	909	1901.967737023243	3
1	910	1902.783439275589	2
1	911	1906.708237289991	1
1	914	1910.687754230781	0
1	920	1926.365454818449	0
1	921	1928.150248657965	0
1	923	1944.433785012692	0
1	924	1949.650956435549	0
1	926	1950.622018393725	0
1	927	1951.774783499836	0
1	932	1957.125124651231	0
1	937	1960.765440604822	0
1	941	1976.624516113971	0
1	943	1977.707499429506	1
1	944	1980.854727430029	1
1	951	1991.984811757971	0
1	959	2011.380908373739	0
1	962	2023.458695860933	0
1	965	2024.89113310012	0
1	967	2025.694562311325	1
1	970	2026.233218890486	1
1	971	2033.344987637299	0
1	974	2037.032684837172	0
1	975	2038.68905722005	0
1	980	2054.92630997997	0
1	984	2066.558161474897	1
1	992	2074.312271274971	2
1	996	2085.148294294305	3
1	997	2095.987206172214	3
1	998	2096.157594290166	2
1	1000	2099.473183195357	2
1	1001	2101.396261546795	2
1	1002	2102.132149257191	1
1	1004	2102.146138877737	1
1	1005	2104.098911909639	1
1	1011	2116.145782370907	1
1	1012	2120.807749680444	1
1	1013	2121.009741779451	0
1	1016	2121.486056362826	0
1	1020	2128.938193055579	1
1	1021	2129.696216309061	1
1	1024	2137.909466963593	0
1	1026	2138.670385373158	0
1	1033	2168.560261624785	0
1	1055	2186.38555087349	0
1	1056	2188.846543187879	0
1	1064	2196.988326593044	0
1	1070	2203.396636789965	1
1	1071	2209.166129473728	1
1	1073	2217.082690419149	1
1	1076	2219.453562859118	1
1	1077	2222.696870595883	0
1	1101	2251.232106227058	0
1	1102	2252.687104740532	0
1	1115	2294.752183040791	0
1	1116	2296.469289725525	0
1	1124	2310.846390442859	0
1	1125	2315.211814394539	0
1	1175	2378.277617112147	0
1	1180	2383.603532862732	0
1	1187	2399.108451542096	0
1	1188	2399.195890202427	0
1	1193	2403.159387325714	0
1	1194	2413.569888782881	0
1	1202	2427.431392732234	0
1	1203	2428.623125272083	0
1	1211	2444.598988443805	0
1	1214	2452.913078175787	0
1	1217	2455.21295102021	0
1	1222	2456.504607076307	0
1	1226	2458.382625969776	0
1	1227	2461.271510633501	0
2	154	350.216397591666	19.438867331319
2	155	351.658144602829	17.852195474594
2	167	375.412127859373	6.273178103479
2	173	389.861920316262	4.408802566435
2	177	394.580948383795	2.033135326951
2	185	401.372694948011	1.13381796158
2	188	404.021833795858	3.146003015324
2	193	409.305202117515	7.157093633881
2	204	426.268929044588	1.456388352069
2	209	436.007919564286	6.066443747489
2	226	479.722375666083	3.018926393701
2	249	523.943978278756	40.728430765577
2	250	526.025680849937	28.360624163848
2	253	535.922061780324	33.403646779325
2	254	536.000296148934	17.990160005185
2	280	569.993823987544	2.57128901977
2	303	592.943470496316	3.68854884943
2	315	635.257507706905	1.645171943629
2	320	657.43810465628	3.720228088889
2	329	670.341014732197	14.17860934839
2	330	670.650058858029	5.766502830491
2	333	679.191524390285	13.386405123863
2	344	700.900542307485	34.555345971998
2	347	705.398046232566	23.442712696474
2	348	708.946779540071	23.378031542061
2	357	718.569090982124	7.141990190242
2	374	758.999262849745	5.280072063334
2	379	766.847953955104	8.390191663861
2	380	768.703126087926	8.840766972858
2	390	775.037296801488	1.4447895121
2	395	785.38752263054	2.583307381927
2	410	818.084814301243	6.001586137885
2	417	823.705202426095	9.167305623265
2	422	828.382530447044	7.067916757779
2	423	837.010952265245	13.6713115721
2	424	839.203621696972	14.822862819861
2	445	860.670394530851	34.539885220966
2	448	863.681502730587	23.573133168759
2	449	870.12930330716	28.202144175149
2	450	870.534140958228	26.780229794957
2	451	874.136237981712	29.932181895787
2	460	885.495375581432	40.72802855657
2	461	888.564152822266	14.312408371404
2	468	916.219097110532	34.588267854424
2	471	927.999312725879	45.359186997597
2	472	943.412214874849	47.658904337514
2	473	945.885397726096	37.613969272855
2	474	946.598947012809	30.450503112282
2	489	978.338236108458	5.506274129922
2	492	982.184726359817	2.82435131161
2	508	1007.333806589399	23.09343315793
2	515	1024.421621314982	29.529724743555
2	516	1025.83982385411	21.980940777703
2	519	1026.143160026334	10.551927345007
2	524	1035.256764042363	19.029140388323
2	530	1046.7939274737	9.174469885204
2	533	1056.043770388341	11.174920787435
2	547	1071.838635366443	6.172820078066
2	548	1072.169303828562	2.331795673719
2	555	1083.696276749961	0.676715689161
2	570	1110.166767572838	24.45005520844
2	577	1124.552322470925	33.386426122766
2	578	1127.792612625484	25.930604518539
2	581	1132.553618094183	21.912737732512
2	603	1177.121823856391	8.591746611294
2	655	1272.300207797159	3.378152412864
2	656	1274.540976528048	4.836961545107
2	666	1293.109275004948	3.552179317657
2	690	1354.511723162266	2.004867429322
2	711	1380.831172547995	10.426784017112
2	716	1383.37779834814	10.272683654871
2	725	1403.696612703284	23.583545485307
2	726	1404.74303491411	23.00690324911
2	727	1408.789109231281	10.597535707283
2	732	1434.643500084856	32.819498155475
2	735	1437.116335597647	25.784512874803
2	750	1473.309920078828	0.059132399981
2	759	1492.785914368482	8.240455744542
2	760	1508.527353668923	17.740726101412
2	767	1528.872588683455	12.933183805841
2	768	1531.933491933307	13.874852266623
2	771	1544.013207365033	2.685115862384
2	790	1607.323288626614	18.324460172469
2	793	1612.620044845562	20.793500354697
2	794	1616.201515967616	8.254266408062
2	803	1639.96146076083	13.391014820297
2	810	1658.615737095677	4.423721797306
2	818	1678.291830742201	4.252233720429
2	819	1682.444274879474	6.147496146869
2	828	1704.400041893347	0.314490931195
2	842	1751.69403278274	16.734131114969
2	847	1754.963629730359	4.451423122214
2	860	1779.212982165258	7.1963515401
2	871	1801.322045639553	16.368721640456
2	872	1803.241298039268	9.300995747314
2	906	1894.071324949764	30.954650335233
2	909	1901.967737023243	17.862915928143
2	910	1902.783439275589	16.203598423124
2	911	1906.708237289991	14.886983237876
2	914	1910.687754230781	9.558469992857
2	921	1928.150248657965	1.784793839516
2	924	1949.650956435549	5.217171422857
2	927	1951.774783499836	1.152765106111
2	937	1960.765440604822	3.640315953591
2	944	1980.854727430029	4.230211316058
2	951	1991.984811757971	14.277312328465
2	962	2023.458695860933	12.077787487194
2	970	2026.233218890486	1.342085790366
2	971	2033.344987637299	7.650425325974
2	975	2038.68905722005	1.656372382878
2	997	2095.987206172214	41.060896192244
2	998	2096.157594290166	29.599432815269
2	1001	2101.396261546795	27.083990271824
2	1002	2102.132149257191	16.983854962886
2	1005	2104.098911909639	4.625728714282
2	1012	2120.807749680444	18.661610802707
2	1013	2121.009741779451	4.863959408544
2	1021	2129.696216309061	8.210159946235
2	1024	2137.909466963593	8.971273908014
2	1033	2168.560261624785	29.889876251627
2	1056	2188.846543187879	2.460992314389
2	1071	2209.166129473728	12.177802880684
2	1076	2219.453562859118	16.056926069153
2	1077	2222.696870595883	5.614180176734
2	1102	2252.687104740532	1.454998513474
2	1116	2296.469289725525	1.717106684734
2	1125	2315.211814394539	4.36542395168
2	1180	2383.603532862732	5.325915750585
2	1188	2399.195890202427	0.087438660331
2	1194	2413.569888782881	10.410501457167
2	1203	2428.623125272083	1.191732539849
2	1214	2452.913078175787	8.314089731982
2	1222	2456.504607076307	1.291656056097
2	1227	2461.271510633501	2.888884663725
3	154	350.216397591666	16.410448463431
3	166	369.138949755894	0
3	172	385.453117749827	0
3	176	392.547813056844	0
3	182	400.238876986431	0
3	185	401.372694948011	0.496864167477
3	188	404.021833795858	1.873725312224
3	203	424.812540692519	0
3	206	429.941475816797	0
3	221	476.703449272382	0
3	232	483.215547513179	0
3	249	523.943978278756	26.278921592667
3	250	526.025680849937	23.507265848938
3	253	535.922061780324	17.911925636575
3	275	567.422534967774	0
3	302	589.254921646886	0
3	314	633.612335763276	0
3	317	653.717876567391	0
3	320	657.43810465628	1.275699272473
3	329	670.341014732197	5.457458704659
3	330	670.650058858029	4.844939591607
3	333	679.191524390285	12.846328054798
3	344	700.900542307485	18.945208771393
3	347	705.398046232566	19.829298234556
3	354	711.427100791882	0
3	371	753.719190786411	0
3	374	758.999262849745	0.541500558502
3	379	766.847953955104	6.985594840036
3	389	773.592507289388	0
3	394	782.804215248613	0
3	407	812.083228163358	0
3	410	818.084814301243	3.546917498413
3	417	823.705202426095	2.39058873683
3	422	828.382530447044	5.042889753899
3	423	837.010952265245	12.630193388134
3	424	839.203621696972	13.073112387087
3	445	860.670394530851	20.562024969023
3	448	863.681502730587	21.754343598576
3	449	870.12930330716	26.375392143889
3	450	870.534140958228	26.330084872303
3	451	874.136237981712	29.36889095685
3	460	885.495375581432	11.24363113057
3	461	888.564152822266	6.933323566158
3	468	916.219097110532	33.57897138225
3	471	927.999312725879	32.246002188544
3	472	943.412214874849	35.140786421608
3	473	945.885397726096	29.736953825569
3	488	972.831961978536	0
3	491	979.360375048207	0
3	497	984.240373431469	0
3	508	1007.333806589399	12.441910017972
3	515	1024.421621314982	20.562738238575
3	516	1025.83982385411	10.248591172783
3	519	1026.143160026334	9.915536372294
3	527	1037.619457588496	0
3	530	1046.7939274737	1.925077872794
3	542	1065.665815288377	0
3	547	1071.838635366443	2.0011272116
3	554	1083.0195610608	0
3	557	1085.716712364398	0
3	570	1110.166767572838	19.000871224679
3	577	1124.552322470925	22.69031436398
3	578	1127.792612625484	17.151732263813
3	602	1168.530077245097	0
3	650	1268.922055384295	0
3	655	1272.300207797159	2.596192814218
3	665	1289.557095687291	0
3	689	1352.506855732944	0
3	704	1370.404388530883	0
3	711	1380.831172547995	7.726057854726
3	716	1383.37779834814	3.264731130163
3	725	1403.696612703284	21.960481038284
3	726	1404.74303491411	6.551461390112
3	727	1408.789109231281	6.9651073019
3	732	1434.643500084856	23.311677362012
3	749	1473.250787678847	0
3	752	1484.54545862394	0
3	759	1492.785914368482	1.999286800971
3	764	1515.939404877614	0
3	767	1528.872588683455	10.813949016771
3	770	1541.328091502649	0
3	779	1588.998828454145	0
3	790	1607.323288626614	15.496744135749
3	793	1612.620044845562	4.672795286008
3	800	1626.570445940533	0
3	809	1654.192015298371	0
3	815	1674.039597021772	0
3	818	1678.291830742201	1.995052009596
3	827	1704.085550962152	0
3	833	1734.959901667771	0
3	842	1751.69403278274	1.181826174595
3	857	1772.016630625158	0
3	866	1784.953323999097	0
3	871	1801.322045639553	7.381743347599
3	893	1863.116674614531	0
3	906	1894.071324949764	9.966503854664
3	909	1901.967737023243	15.387896170778
3	910	1902.783439275589	10.962185223474
3	911	1906.708237289991	5.578953052067
3	920	1926.365454818449	0
3	923	1944.433785012692	0
3	926	1950.622018393725	0
3	932	1957.125124651231	0
3	941	1976.624516113971	0
3	944	1980.854727430029	3.147228000523
3	959	2011.380908373739	0
3	965	2024.89113310012	0
3	970	2026.233218890486	0.538656579161
3	974	2037.032684837172	0
3	980	2054.92630997997	0
3	997	2095.987206172214	29.429044697317
3	998	2096.157594290166	21.845323015195
3	1001	2101.396261546795	16.24796725249
3	1002	2102.132149257191	2.658966061834
3	1005	2104.098911909639	1.952773031902
3	1012	2120.807749680444	4.661967309537
3	1016	2121.486056362826	0
3	1021	2129.696216309061	0.758023253482
3	1026	2138.670385373158	0
3	1055	2186.38555087349	0
3	1064	2196.988326593044	0
3	1071	2209.166129473728	5.769492683763
3	1076	2219.453562859118	2.370872439969
3	1101	2251.232106227058	0
3	1115	2294.752183040791	0
3	1124	2310.846390442859	0
3	1175	2378.277617112147	0
3	1187	2399.108451542096	0
3	1193	2403.159387325714	0
3	1202	2427.431392732234	0
3	1211	2444.598988443805	0
3	1217	2455.21295102021	0
3	1226	2458.382625969776	0
4	155	351.658144602829	46.653727488614
4	156	352.008525549145	46.706965199978
4	157	352.666305986502	18.588899553366
4	158	352.836260731736	16.417543476576
4	161	368.8046549948	0
4	164	369.032996633138	0
4	167	375.412127859373	6.273178103479
4	170	385.435273342652	0
4	173	389.861920316262	4.408802566435
4	179	395.504937079227	0
4	193	409.305202117515	3.303059238582
4	194	410.23312532108	1.689260704997
4	197	412.164437928249	0
4	200	417.244564880827	0
4	209	436.007919564286	0.938096923251
4	212	444.73253469601	0
4	215	455.434219047854	0
4	218	455.996906876994	0.543183871984
4	226	479.722375666083	1.375159387882
4	229	480.87437640003	2.163943229306
4	230	482.449684857978	1.934632717906
4	254	536.000296148934	52.784748635755
4	255	536.778228649659	51.534466364503
4	256	536.891874983732	40.461143604836
4	257	539.376363431414	40.50649902046
4	258	539.984693297458	39.135508544839
4	259	542.41465941362	36.376132527236
4	260	542.527958167003	13.495406434813
4	263	549.13126875251	0
4	266	549.891779941248	0.062749527074
4	269	552.782456114895	0
4	272	558.884773278836	0
4	280	569.993823987544	1.910206780429
4	281	570.191933790381	1.808590288706
4	284	570.956829549864	0
4	287	576.920273206442	0
4	290	579.228099088614	0
4	293	580.316443753897	0.29051654338
4	296	581.960803174712	0
4	299	583.433851699979	0
4	305	605.380070849932	0
4	308	616.36163040096	0
4	311	627.496320317452	0
4	348	708.946779540071	40.027823782141
4	349	709.141861179072	35.509734647529
4	350	709.253677120764	16.516383808273
4	357	718.569090982124	25.650280301426
4	358	718.999579605765	20.790739723808
4	359	719.852271261969	17.296481051515
4	360	719.903989965233	9.20068252864
4	361	721.13840419097	9.711303399088
4	362	722.720798197988	8.364329647675
4	365	737.620965960018	0
4	368	743.1260328442	0
4	380	768.703126087926	3.350687827219
4	383	771.375249990798	1.012306349486
4	386	772.590606204854	0
4	392	781.007393373859	0
4	395	785.38752263054	2.583307381927
4	398	786.860054118193	1.340081466396
4	401	794.080819717003	0
4	404	810.378030875903	0
4	474	946.598947012809	126.45831111847
4	475	947.127920573078	105.9617075758
4	476	949.246856533982	105.20693545657
4	477	949.484756746725	101.18215357883
4	478	949.81398570131	100.10788852286
4	479	950.342731645044	91.821967598515
4	480	951.44989823923	90.1177898243
4	481	951.547357180288	70.261459786228
4	482	951.608154500912	24.919020008151
4	485	953.652910659354	1.493727079436
4	494	983.615274297069	0
4	524	1035.256764042363	49.806191404275
4	525	1035.498669509854	37.614845850289
4	533	1056.043770388341	50.790014395043
4	534	1056.648689234608	36.801482731942
4	535	1057.671928076092	31.765840447323
4	536	1057.917285260858	31.101584842796
4	537	1057.981841607917	27.230056261905
4	538	1058.302761408702	20.683303820206
4	539	1059.405098130132	5.342248358598
4	548	1072.169303828562	2.969979835036
4	551	1076.910443218145	0
4	581	1132.553618094183	44.537116098128
4	582	1135.538742423362	46.480356940713
4	583	1136.666980141371	43.421624054763
4	584	1136.768395682948	26.778231411033
4	585	1136.819536961803	25.324284586521
4	586	1138.322914428524	19.276299817821
4	587	1139.596637037844	10.548483112099
4	592	1143.652263427629	2.7273510143
4	595	1145.812765458371	4.636358190038
4	596	1147.608347537808	2.399190466283
4	599	1153.208662393435	0
4	605	1186.892623908681	0
4	608	1189.393137052777	0
4	611	1192.271530187622	0
4	614	1197.484946457018	0
4	617	1200.247521930234	0
4	620	1212.314244647592	0
4	623	1213.33421831449	0
4	626	1214.745160013319	0
4	629	1224.217229415423	0
4	632	1232.030075498215	0
4	635	1239.324803119424	0
4	638	1241.921592407204	0
4	641	1248.182563811562	0
4	644	1249.989371655212	0
4	647	1268.583645825222	0
4	656	1274.540976528048	4.637785050997
4	659	1275.699501245044	0
4	662	1277.950808074961	1.411713446397
4	668	1295.103409452435	0
4	671	1304.605261721148	0
4	674	1305.27584812283	0
4	677	1315.638127851192	0
4	680	1334.215975512914	0
4	683	1336.216146553867	0
4	686	1340.202387362151	0
4	692	1354.930411622285	0
4	695	1360.587040029986	0
4	698	1365.372416060755	0
4	701	1368.420623397465	0
4	735	1437.116335597647	66.329784695341
4	736	1438.694452033244	57.389932190116
4	737	1438.794971784157	45.232274131765
4	738	1438.811631916889	44.433968526042
4	739	1439.794417733229	5.298112149924
4	740	1440.659336194682	5.025286146511
4	743	1454.156554264205	0
4	746	1457.51916996784	0
4	760	1508.527353668923	17.195795585878
4	761	1509.295437761733	17.497135328165
4	773	1549.162095721887	0
4	776	1581.557356075964	0
4	794	1616.201515967616	27.070313379907
4	795	1617.783992640779	28.489827897918
4	796	1618.546404763237	27.841228472715
4	797	1620.227375160072	20.271361810007
4	803	1639.96146076083	3.00447477196
4	806	1648.144304386084	0
4	812	1666.226233340729	0
4	821	1694.649658107823	0
4	824	1697.371471155653	0
4	830	1709.751706419028	0
4	847	1754.963629730359	8.733576608031
4	848	1755.246246009283	5.077464355626
4	849	1755.74081626889	4.886049062894
4	850	1756.437693691236	4.511999245364
4	851	1757.408621435782	4.251445869192
4	854	1759.551241949131	0
4	860	1779.212982165258	3.294750285118
4	863	1779.726307572344	0.140808957601
4	872	1803.241298039268	2.413846787504
4	875	1808.974265082063	0
4	878	1813.470520932614	0
4	881	1817.480747434096	0
4	884	1828.11134490128	0
4	887	1832.033704236289	0
4	890	1832.306448773937	0
4	914	1910.687754230781	39.524149364644
4	915	1911.075760115816	37.845173873812
4	916	1913.043382834804	23.872079803789
4	917	1913.308024797545	4.917128369092
4	929	1953.154341822785	0
4	937	1960.765440604822	2.806633393211
4	938	1963.163593213735	4.377381601245
4	951	1991.984811757971	9.865901748478
4	952	1992.94506490037	4.685833904201
4	953	1993.652466209097	4.397714075009
4	956	2009.415578530733	0
4	962	2023.458695860933	3.781774493381
4	971	2033.344987637299	7.145094667953
4	977	2046.095534625078	0
4	1013	2121.009741779451	58.44992189318
4	1014	2121.202081544864	53.231305443034
4	1024	2137.909466963593	69.702280498068
4	1033	2168.560261624785	98.169514828637
4	1034	2170.055071543356	90.441263057379
4	1035	2170.358659815178	63.924331854318
4	1036	2171.029858982205	63.790668360135
4	1039	2171.509279009954	50.023222647128
4	1040	2171.797688592432	49.818282151448
4	1041	2175.187011147496	45.35059200945
4	1044	2176.206059679017	37.535674305859
4	1045	2176.726275454144	36.971122721813
4	1046	2177.937504255581	37.677872646069
4	1047	2179.883366379347	22.255943075346
4	1048	2181.894187315059	10.798218299756
4	1049	2181.961712676332	6.391389139406
4	1052	2182.56237537649	0
4	1058	2190.052476805452	0
4	1061	2191.340991747588	0.806336159945
4	1077	2222.696870595883	23.490149963809
4	1078	2223.045647817802	23.609999230495
4	1079	2224.622323015471	6.495778001567
4	1082	2235.641893261106	0
4	1085	2235.989629010231	0
4	1088	2240.700158213268	0
4	1091	2246.420518575202	0
4	1094	2246.729564751839	0.23725079583
4	1097	2249.465598681333	0
4	1102	2252.687104740532	2.704332840506
4	1105	2254.393680469335	3.161574242277
4	1106	2256.852327358221	2.584241747711
4	1109	2271.570851785134	0
4	1112	2272.325738493696	0
4	1118	2306.930094956021	0
4	1121	2309.771897382743	0
4	1127	2317.243445888437	0
4	1130	2323.095494087291	0
4	1133	2325.189970364312	0.336933209565
4	1136	2327.330821052265	1.370384961327
4	1139	2332.419764879063	0
4	1142	2336.351130649538	0
4	1145	2343.03888059311	0
4	1148	2343.960495122872	0
4	1151	2345.60143337475	0
4	1154	2352.841460758396	0
4	1157	2355.388540674754	0
4	1160	2360.859292971737	0
4	1163	2364.480158459102	0
4	1166	2366.840552200106	0
4	1169	2370.056817384359	0
4	1172	2374.281138577653	0
4	1180	2383.603532862732	4.271879524441
4	1181	2383.66481795997	0.431540986754
4	1184	2395.553949359182	0
4	1190	2399.420097252837	0
4	1196	2417.268262125275	0
4	1199	2419.133451329679	0
4	1205	2429.232149905465	0
4	1208	2441.783611930452	0
4	1214	2452.913078175787	0.603613244724
4	1222	2456.504607076307	1.09859733398
4	1223	2457.1719996217	1.612524262776
4	1229	2462.114056386014	0
4	1232	2466.330720422387	0
4	1235	2467.218619836442	0
4	1238	2480.211963592418	0
5	156	352.008525549145	28
5	157	352.666305986502	29
5	158	352.836260731736	30
5	159	353.97466041344	31
5	162	368.997445722386	32
5	168	376.745877407627	33
5	174	390.33916238026	34
5	180	395.685429092615	35
5	194	410.23312532108	36
5	195	410.339256918601	37
5	198	413.113796500928	38
5	201	419.869942269406	39
5	210	437.061058003233	40
5	213	444.981344237095	41
5	218	455.996906876994	42
5	219	456.102498605566	43
5	229	480.87437640003	44
5	230	482.449684857978	45
5	255	536.778228649659	46
5	256	536.891874983732	47
5	257	539.376363431414	48
5	258	539.984693297458	49
5	259	542.41465941362	50
5	260	542.527958167003	51
5	261	543.274480451015	52
5	266	549.891779941248	53
5	267	550.544922109231	54
5	270	553.373181745826	55
5	273	559.999901568523	56
5	281	570.191933790381	57
5	282	570.461436031469	58
5	285	575.159239886535	59
5	288	577.706787333357	60
5	293	580.316443753897	61
5	294	580.324923766847	62
5	297	582.955402505548	63
5	300	583.623928651052	64
5	306	606.179180160819	65
5	309	618.365840173331	66
5	312	627.526714960712	67
5	349	709.141861179072	68
5	350	709.253677120764	69
5	358	718.999579605765	70
5	359	719.852271261969	71
5	360	719.903989965233	72
5	361	721.13840419097	73
5	362	722.720798197988	74
5	363	723.522989361252	75
5	366	738.664006157779	76
5	369	744.770435529922	77
5	383	771.375249990798	78
5	384	771.847873529376	79
5	387	772.66776670414	80
5	398	786.860054118193	81
5	399	787.316859485497	82
5	402	794.443171481639	83
5	405	810.785215383959	84
5	475	947.127920573078	85
5	476	949.246856533982	86
5	477	949.484756746725	87
5	478	949.81398570131	88
5	479	950.342731645044	89
5	480	951.44989823923	90
5	481	951.547357180288	91
5	482	951.608154500912	92
5	485	953.652910659354	93
5	486	955.10754484439	94
5	495	984.018419809756	95
5	525	1035.498669509854	96
5	534	1056.648689234608	97
5	535	1057.671928076092	98
5	536	1057.917285260858	99
5	537	1057.981841607917	100
5	538	1058.302761408702	101
5	539	1059.405098130132	102
5	540	1060.014778201744	103
5	549	1072.245360456807	104
5	552	1078.107074967723	105
5	582	1135.538742423362	106
5	583	1136.666980141371	107
5	584	1136.768395682948	108
5	585	1136.819536961803	109
5	586	1138.322914428524	110
5	587	1139.596637037844	111
5	592	1143.652263427629	112
5	595	1145.812765458371	113
5	596	1147.608347537808	114
5	597	1147.639550655666	115
5	600	1158.485903730613	116
5	606	1188.562720444001	117
5	609	1189.467083479913	118
5	612	1192.385719801276	119
5	615	1197.596116349958	120
5	618	1203.298093571261	121
5	621	1213.235760073456	122
5	624	1214.244429536517	123
5	627	1216.231959621416	124
5	630	1224.97427589724	125
5	633	1232.290376745754	126
5	636	1239.7620753371	127
5	639	1242.098604329163	128
5	642	1248.518625111618	129
5	645	1250.637481916866	130
5	648	1268.91025667366	131
5	657	1274.680793110702	132
5	662	1277.950808074961	133
5	663	1279.647746581967	134
5	669	1296.22278013482	135
5	672	1304.846858104978	136
5	675	1305.658418804746	137
5	678	1316.72662863218	138
5	681	1334.370515319133	139
5	684	1336.95692690827	140
5	687	1340.245388556748	141
5	693	1355.155194414165	142
5	696	1361.713131643015	143
5	699	1365.88873643724	144
5	702	1368.596173406783	145
5	736	1438.694452033244	146
5	737	1438.794971784157	147
5	738	1438.811631916889	148
5	739	1439.794417733229	149
5	740	1440.659336194682	150
5	741	1440.795653346549	151
5	744	1455.082236900968	152
5	747	1460.333123299093	153
5	761	1509.295437761733	154
5	762	1509.92466153183	155
5	774	1549.587157700379	156
5	777	1584.235293492472	157
5	795	1617.783992640779	158
5	796	1618.546404763237	159
5	797	1620.227375160072	160
5	798	1621.14779944565	161
5	804	1641.236869883613	162
5	807	1648.161303046563	163
5	813	1666.439981271838	164
5	822	1695.548868441345	165
5	825	1697.856020163369	166
5	831	1711.146471315368	167
5	848	1755.246246009283	168
5	849	1755.74081626889	169
5	850	1756.437693691236	170
5	851	1757.408621435782	171
5	852	1757.459375279948	172
5	855	1759.989143893197	173
5	863	1779.726307572344	174
5	864	1780.013874139217	175
5	873	1803.686826999341	176
5	876	1809.184742456696	177
5	879	1813.965595302817	178
5	882	1818.107783758292	179
5	885	1829.98688552991	180
5	888	1832.240602931524	181
5	891	1832.723860332039	182
5	915	1911.075760115816	183
5	916	1913.043382834804	184
5	917	1913.308024797545	185
5	918	1915.600778612149	186
5	930	1953.778010046423	187
5	938	1963.163593213735	188
5	939	1967.059939677726	189
5	952	1992.94506490037	190
5	953	1993.652466209097	191
5	954	1994.218803887787	192
5	957	2011.005727090772	193
5	963	2024.220537679682	194
5	972	2033.859892746059	195
5	978	2047.03015833605	196
5	1014	2121.202081544864	197
5	1034	2170.055071543356	198
5	1035	2170.358659815178	199
5	1036	2171.029858982205	200
5	1039	2171.509279009954	201
5	1040	2171.797688592432	202
5	1041	2175.187011147496	203
5	1044	2176.206059679017	204
5	1045	2176.726275454144	205
5	1046	2177.937504255581	206
5	1047	2179.883366379347	207
5	1048	2181.894187315059	208
5	1049	2181.961712676332	209
5	1050	2182.182960037071	210
5	1053	2184.146392265457	211
5	1061	2191.340991747588	212
5	1062	2196.952518344431	213
5	1078	2223.045647817802	214
5	1079	2224.622323015471	215
5	1080	2224.638673967464	216
5	1083	2235.921233570633	217
5	1086	2236.300301883361	218
5	1089	2241.329332479966	219
5	1094	2246.729564751839	220
5	1095	2247.292665356685	221
5	1105	2254.393680469335	222
5	1106	2256.852327358221	223
5	1107	2257.660839304145	224
5	1110	2271.863944476804	225
5	1113	2275.026270433981	226
5	1119	2308.738943709644	227
5	1122	2310.002859062687	228
5	1128	2317.579376204048	229
5	1133	2325.189970364312	230
5	1136	2327.330821052265	231
5	1137	2327.633274142401	232
5	1140	2334.216698525439	233
5	1143	2336.521004510311	234
5	1146	2343.355492112585	235
5	1149	2344.325813263361	236
5	1152	2346.022944140539	237
5	1155	2353.174883528513	238
5	1158	2356.256181155922	239
5	1161	2360.90226498704	240
5	1164	2366.7162754194	241
5	1167	2366.997912431705	242
5	1170	2370.293015136902	243
5	1173	2375.151515613799	244
5	1181	2383.66481795997	245
5	1182	2384.71116958398	246
5	1185	2395.739114504869	247
5	1191	2400.073327512879	248
5	1197	2417.583647429688	249
5	1200	2419.451260020458	250
5	1206	2429.939657587538	251
5	1209	2442.425860907076	252
5	1215	2453.154089997556	253
5	1223	2457.1719996217	254
5	1224	2457.414893103806	255
5	1230	2462.305698165182	256
5	1233	2466.391751916646	257
5	1236	2467.636703114532	258
5	1239	2484.300454791456	259
6	156	352.008525549145	3
6	157	352.666305986502	2
6	158	352.836260731736	1
6	159	353.97466041344	0
6	161	368.8046549948	0
6	162	368.997445722386	0
6	164	369.032996633138	0
6	168	376.745877407627	0
6	170	385.435273342652	0
6	174	390.33916238026	0
6	179	395.504937079227	0
6	180	395.685429092615	0
6	190	406.002142878933	0
6	192	408.543864616083	1
6	194	410.23312532108	1
6	195	410.339256918601	0
6	197	412.164437928249	0
6	198	413.113796500928	0
6	200	417.244564880827	0
6	201	419.869942269406	0
6	208	435.069822641035	0
6	210	437.061058003233	0
6	212	444.73253469601	0
6	213	444.981344237095	0
6	215	455.434219047854	0
6	217	455.45372300501	1
6	218	455.996906876994	1
6	219	456.102498605566	0
6	223	478.347216278201	0
6	225	478.710433170724	1
6	228	480.515052140072	2
6	229	480.87437640003	2
6	230	482.449684857978	1
6	234	485.243762285156	1
6	236	496.430731378896	2
6	240	498.869864410954	3
6	242	500.849184752619	4
6	246	506.038526886384	5
6	252	529.03255173219	6
6	255	536.778228649659	6
6	256	536.891874983732	5
6	257	539.376363431414	4
6	258	539.984693297458	3
6	259	542.41465941362	2
6	260	542.527958167003	1
6	261	543.274480451015	0
6	263	549.13126875251	0
6	265	549.829030414174	1
6	266	549.891779941248	1
6	267	550.544922109231	0
6	269	552.782456114895	0
6	270	553.373181745826	0
6	272	558.884773278836	0
6	273	559.999901568523	0
6	277	568.083617207115	0
6	279	568.383343501675	1
6	281	570.191933790381	1
6	282	570.461436031469	0
6	284	570.956829549864	0
6	285	575.159239886535	0
6	287	576.920273206442	0
6	288	577.706787333357	0
6	290	579.228099088614	0
6	292	580.025927210517	1
6	293	580.316443753897	1
6	294	580.324923766847	0
6	296	581.960803174712	0
6	297	582.955402505548	0
6	299	583.433851699979	0
6	300	583.623928651052	0
6	305	605.380070849932	0
6	306	606.179180160819	0
6	308	616.36163040096	0
6	309	618.365840173331	0
6	311	627.496320317452	0
6	312	627.526714960712	0
6	328	668.91895575793	0
6	332	673.632126531543	1
6	339	692.737293312491	2
6	341	692.918810680698	3
6	343	698.208839881957	4
6	346	702.555790210454	5
6	349	709.141861179072	5
6	350	709.253677120764	4
6	352	710.703307436593	4
6	356	714.356468550313	5
6	358	718.999579605765	5
6	359	719.852271261969	4
6	360	719.903989965233	3
6	361	721.13840419097	2
6	362	722.720798197988	1
6	363	723.522989361252	0
6	365	737.620965960018	0
6	366	738.664006157779	0
6	368	743.1260328442	0
6	369	744.770435529922	0
6	378	765.352438260707	0
6	382	770.362943641312	1
6	383	771.375249990798	1
6	384	771.847873529376	0
6	386	772.590606204854	0
6	387	772.66776670414	0
6	392	781.007393373859	0
6	397	785.519972651797	1
6	398	786.860054118193	1
6	399	787.316859485497	0
6	401	794.080819717003	0
6	402	794.443171481639	0
6	404	810.378030875903	0
6	405	810.785215383959	0
6	412	820.140635894339	0
6	428	841.166212997282	1
6	434	844.039921077412	2
6	440	848.302603167896	3
6	442	849.706097178447	4
6	444	858.520764046529	5
6	447	861.33210841493	6
6	455	881.28589739406	7
6	470	926.689134492761	8
6	475	947.127920573078	8
6	476	949.246856533982	7
6	477	949.484756746725	6
6	478	949.81398570131	5
6	479	950.342731645044	4
6	480	951.44989823923	3
6	481	951.547357180288	2
6	482	951.608154500912	1
6	484	952.159183579918	1
6	485	953.652910659354	1
6	486	955.10754484439	0
6	494	983.615274297069	0
6	495	984.018419809756	0
6	499	985.450572638088	0
6	503	997.883823659565	1
6	507	1005.253755993298	2
6	514	1019.847206502666	3
6	518	1025.906087628769	4
6	521	1026.815700418062	5
6	523	1030.751785346012	6
6	525	1035.498669509854	6
6	532	1054.062849771534	6
6	534	1056.648689234608	6
6	535	1057.671928076092	5
6	536	1057.917285260858	4
6	537	1057.981841607917	3
6	538	1058.302761408702	2
6	539	1059.405098130132	1
6	540	1060.014778201744	0
6	544	1069.199323993526	0
6	549	1072.245360456807	0
6	551	1076.910443218145	0
6	552	1078.107074967723	0
6	559	1088.016501996055	0
6	561	1089.058385482649	1
6	565	1093.245356086608	2
6	569	1109.990164271915	3
6	574	1111.495252375282	4
6	576	1119.046614610703	5
6	580	1129.048153925745	6
6	582	1135.538742423362	6
6	583	1136.666980141371	5
6	584	1136.768395682948	4
6	585	1136.819536961803	3
6	586	1138.322914428524	2
6	587	1139.596637037844	1
6	589	1140.924912413329	1
6	591	1141.176407268333	2
6	592	1143.652263427629	2
6	594	1145.209157071525	2
6	595	1145.812765458371	2
6	596	1147.608347537808	1
6	597	1147.639550655666	0
6	599	1153.208662393435	0
6	600	1158.485903730613	0
6	605	1186.892623908681	0
6	606	1188.562720444001	0
6	608	1189.393137052777	0
6	609	1189.467083479913	0
6	611	1192.271530187622	0
6	612	1192.385719801276	0
6	614	1197.484946457018	0
6	615	1197.596116349958	0
6	617	1200.247521930234	0
6	618	1203.298093571261	0
6	620	1212.314244647592	0
6	621	1213.235760073456	0
6	623	1213.33421831449	0
6	624	1214.244429536517	0
6	626	1214.745160013319	0
6	627	1216.231959621416	0
6	629	1224.217229415423	0
6	630	1224.97427589724	0
6	632	1232.030075498215	0
6	633	1232.290376745754	0
6	635	1239.324803119424	0
6	636	1239.7620753371	0
6	638	1241.921592407204	0
6	639	1242.098604329163	0
6	641	1248.182563811562	0
6	642	1248.518625111618	0
6	644	1249.989371655212	0
6	645	1250.637481916866	0
6	647	1268.583645825222	0
6	648	1268.91025667366	0
6	654	1269.903191477051	0
6	657	1274.680793110702	0
6	659	1275.699501245044	0
6	661	1276.539094628564	1
6	662	1277.950808074961	1
6	663	1279.647746581967	0
6	668	1295.103409452435	0
6	669	1296.22278013482	0
6	671	1304.605261721148	0
6	672	1304.846858104978	0
6	674	1305.27584812283	0
6	675	1305.658418804746	0
6	677	1315.638127851192	0
6	678	1316.72662863218	0
6	680	1334.215975512914	0
6	681	1334.370515319133	0
6	683	1336.216146553867	0
6	684	1336.95692690827	0
6	686	1340.202387362151	0
6	687	1340.245388556748	0
6	692	1354.930411622285	0
6	693	1355.155194414165	0
6	695	1360.587040029986	0
6	696	1361.713131643015	0
6	698	1365.372416060755	0
6	699	1365.88873643724	0
6	701	1368.420623397465	0
6	702	1368.596173406783	0
6	706	1370.786550902306	0
6	713	1381.304519843128	1
6	718	1393.562697652392	2
6	720	1394.377663390847	3
6	731	1434.496305583305	4
6	734	1435.634050048171	5
6	736	1438.694452033244	5
6	737	1438.794971784157	4
6	738	1438.811631916889	3
6	739	1439.794417733229	2
6	740	1440.659336194682	1
6	741	1440.795653346549	0
6	743	1454.156554264205	0
6	744	1455.082236900968	0
6	746	1457.51916996784	0
6	747	1460.333123299093	0
6	756	1491.331558083045	0
6	758	1491.798302433568	1
6	761	1509.295437761733	1
6	762	1509.92466153183	0
6	773	1549.162095721887	0
6	774	1549.587157700379	0
6	776	1581.557356075964	0
6	777	1584.235293492472	0
6	781	1589.131202587709	0
6	783	1589.294164742861	1
6	785	1590.705176290522	2
6	789	1599.956013350065	3
6	795	1617.783992640779	3
6	796	1618.546404763237	2
6	797	1620.227375160072	1
6	798	1621.14779944565	0
6	802	1636.95698598887	0
6	804	1641.236869883613	0
6	806	1648.144304386084	0
6	807	1648.161303046563	0
6	812	1666.226233340729	0
6	813	1666.439981271838	0
6	821	1694.649658107823	0
6	822	1695.548868441345	0
6	824	1697.371471155653	0
6	825	1697.856020163369	0
6	830	1709.751706419028	0
6	831	1711.146471315368	0
6	835	1746.230053122328	0
6	837	1750.168781653657	1
6	841	1750.854767205996	2
6	844	1751.925694445872	3
6	846	1753.15717556659	4
6	848	1755.246246009283	4
6	849	1755.74081626889	3
6	850	1756.437693691236	2
6	851	1757.408621435782	1
6	852	1757.459375279948	0
6	854	1759.551241949131	0
6	855	1759.989143893197	0
6	859	1775.91823188014	0
6	862	1779.585498614743	1
6	863	1779.726307572344	1
6	864	1780.013874139217	0
6	870	1800.827451251764	0
6	873	1803.686826999341	0
6	875	1808.974265082063	0
6	876	1809.184742456696	0
6	878	1813.470520932614	0
6	879	1813.965595302817	0
6	881	1817.480747434096	0
6	882	1818.107783758292	0
6	884	1828.11134490128	0
6	885	1829.98688552991	0
6	887	1832.033704236289	0
6	888	1832.240602931524	0
6	890	1832.306448773937	0
6	891	1832.723860332039	0
6	895	1871.163604866137	0
6	897	1873.230586242004	1
6	903	1889.171303031015	2
6	913	1908.390896428453	3
6	915	1911.075760115816	3
6	916	1913.043382834804	2
6	917	1913.308024797545	1
6	918	1915.600778612149	0
6	929	1953.154341822785	0
6	930	1953.778010046423	0
6	934	1957.958807211611	0
6	936	1958.78621161249	1
6	938	1963.163593213735	1
6	939	1967.059939677726	0
6	946	1982.118910009493	0
6	948	1988.259230996169	1
6	950	1989.254752134088	2
6	952	1992.94506490037	2
6	953	1993.652466209097	1
6	954	1994.218803887787	0
6	956	2009.415578530733	0
6	957	2011.005727090772	0
6	961	2019.676921367552	0
6	963	2024.220537679682	0
6	969	2026.199892969346	0
6	972	2033.859892746059	0
6	977	2046.095534625078	0
6	978	2047.03015833605	0
6	982	2062.559819886271	0
6	986	2067.97077610183	1
6	988	2068.207186465525	2
6	990	2070.390746796148	3
6	994	2079.613808485977	4
6	1007	2106.43432796086	5
6	1009	2107.23919062207	6
6	1014	2121.202081544864	6
6	1018	2121.979406440984	6
6	1023	2129.836419138046	7
6	1028	2139.755152732331	8
6	1030	2140.259631609512	9
6	1032	2157.627423304001	10
6	1034	2170.055071543356	10
6	1035	2170.358659815178	9
6	1036	2171.029858982205	8
6	1038	2171.095969015303	8
6	1039	2171.509279009954	8
6	1040	2171.797688592432	7
6	1041	2175.187011147496	6
6	1043	2175.570323536926	6
6	1044	2176.206059679017	6
6	1045	2176.726275454144	5
6	1046	2177.937504255581	4
6	1047	2179.883366379347	3
6	1048	2181.894187315059	2
6	1049	2181.961712676332	1
6	1050	2182.182960037071	0
6	1052	2182.56237537649	0
6	1053	2184.146392265457	0
6	1058	2190.052476805452	0
6	1060	2190.534655587643	1
6	1061	2191.340991747588	1
6	1062	2196.952518344431	0
6	1066	2199.206720632074	0
6	1068	2199.435648587307	1
6	1075	2218.126545013904	2
6	1078	2223.045647817802	2
6	1079	2224.622323015471	1
6	1080	2224.638673967464	0
6	1082	2235.641893261106	0
6	1083	2235.921233570633	0
6	1085	2235.989629010231	0
6	1086	2236.300301883361	0
6	1088	2240.700158213268	0
6	1089	2241.329332479966	0
6	1091	2246.420518575202	0
6	1093	2246.492313956009	1
6	1094	2246.729564751839	1
6	1095	2247.292665356685	0
6	1097	2249.465598681333	0
6	1099	2249.982771900026	1
6	1104	2254.26808561051	2
6	1105	2254.393680469335	2
6	1106	2256.852327358221	1
6	1107	2257.660839304145	0
6	1109	2271.570851785134	0
6	1110	2271.863944476804	0
6	1112	2272.325738493696	0
6	1113	2275.026270433981	0
6	1118	2306.930094956021	0
6	1119	2308.738943709644	0
6	1121	2309.771897382743	0
6	1122	2310.002859062687	0
6	1127	2317.243445888437	0
6	1128	2317.579376204048	0
6	1130	2323.095494087291	0
6	1132	2324.853037154747	1
6	1133	2325.189970364312	1
6	1135	2325.960436090938	1
6	1136	2327.330821052265	1
6	1137	2327.633274142401	0
6	1139	2332.419764879063	0
6	1140	2334.216698525439	0
6	1142	2336.351130649538	0
6	1143	2336.521004510311	0
6	1145	2343.03888059311	0
6	1146	2343.355492112585	0
6	1148	2343.960495122872	0
6	1149	2344.325813263361	0
6	1151	2345.60143337475	0
6	1152	2346.022944140539	0
6	1154	2352.841460758396	0
6	1155	2353.174883528513	0
6	1157	2355.388540674754	0
6	1158	2356.256181155922	0
6	1160	2360.859292971737	0
6	1161	2360.90226498704	0
6	1163	2364.480158459102	0
6	1164	2366.7162754194	0
6	1166	2366.840552200106	0
6	1167	2366.997912431705	0
6	1169	2370.056817384359	0
6	1170	2370.293015136902	0
6	1172	2374.281138577653	0
6	1173	2375.151515613799	0
6	1177	2379.331653338291	0
6	1179	2383.233276973216	1
6	1181	2383.66481795997	1
6	1182	2384.71116958398	0
6	1184	2395.553949359182	0
6	1185	2395.739114504869	0
6	1190	2399.420097252837	0
6	1191	2400.073327512879	0
6	1196	2417.268262125275	0
6	1197	2417.583647429688	0
6	1199	2419.133451329679	0
6	1200	2419.451260020458	0
6	1205	2429.232149905465	0
6	1206	2429.939657587538	0
6	1208	2441.783611930452	0
6	1209	2442.425860907076	0
6	1213	2452.309464931063	0
6	1215	2453.154089997556	0
6	1219	2455.406009742327	0
6	1221	2455.559475358924	1
6	1223	2457.1719996217	1
6	1224	2457.414893103806	0
6	1229	2462.114056386014	0
6	1230	2462.305698165182	0
6	1232	2466.330720422387	0
6	1233	2466.391751916646	0
6	1235	2467.218619836442	0
6	1236	2467.636703114532	0
6	1238	2480.211963592418	0
6	1239	2484.300454791456	0
7	156	352.008525549145	47.00410843493
7	157	352.666305986502	47.364745637335
7	158	352.836260731736	18.7588542986
7	159	353.97466041344	17.55594315828
7	162	368.997445722386	0.192790727586
7	168	376.745877407627	7.606927651733
7	174	390.33916238026	4.886044630433
7	180	395.685429092615	0.180492013388
7	194	410.23312532108	4.230982442147
7	195	410.339256918601	1.795392302518
7	198	413.113796500928	0.949358572679
7	201	419.869942269406	2.625377388579
7	210	437.061058003233	1.991235362198
7	213	444.981344237095	0.248809541085
7	218	455.996906876994	0.56268782914
7	219	456.102498605566	0.648775600556
7	229	480.87437640003	2.527160121829
7	230	482.449684857978	3.739251687254
7	255	536.778228649659	53.56268113648
7	256	536.891874983732	51.648112698576
7	257	539.376363431414	42.945632052518
7	258	539.984693297458	41.114828886504
7	259	542.41465941362	41.565474661001
7	260	542.527958167003	36.489431280619
7	261	543.274480451015	14.241928718825
7	266	549.891779941248	0.760511188738
7	267	550.544922109231	0.715891695057
7	270	553.373181745826	0.590725630931
7	273	559.999901568523	1.115128289687
7	281	570.191933790381	2.108316583266
7	282	570.461436031469	2.078092529794
7	285	575.159239886535	4.202410336671
7	288	577.706787333357	0.786514126915
7	293	580.316443753897	1.088344665283
7	294	580.324923766847	0.29899655633
7	297	582.955402505548	0.994599330836
7	300	583.623928651052	0.190076951073
7	306	606.179180160819	0.799109310887
7	309	618.365840173331	2.004209772371
7	312	627.526714960712	0.03039464326
7	349	709.141861179072	40.222905421142
7	350	709.253677120764	35.621550589221
7	358	718.999579605765	26.080768925067
7	359	719.852271261969	21.643431380012
7	360	719.903989965233	17.348199754779
7	361	721.13840419097	10.435096754377
7	362	722.720798197988	11.293697406106
7	363	723.522989361252	9.166520810939
7	366	738.664006157779	1.043040197761
7	369	744.770435529922	1.644402685722
7	383	771.375249990798	6.022811730091
7	384	771.847873529376	1.484929888064
7	387	772.66776670414	0.077160499286
7	398	786.860054118193	4.05583886958
7	399	787.316859485497	1.7968868337
7	402	794.443171481639	0.362351764636
7	405	810.785215383959	0.407184508056
7	475	947.127920573078	126.98728467874
7	476	949.246856533982	108.0806435367
7	477	949.484756746725	105.44483566931
7	478	949.81398570131	101.51138253341
7	479	950.342731645044	100.6366344666
7	480	951.44989823923	92.929134192701
7	481	951.547357180288	90.215248765358
7	482	951.608154500912	70.322257106852
7	485	953.652910659354	26.963776166593
7	486	955.10754484439	2.948361264472
7	495	984.018419809756	0.403145512687
7	525	1035.498669509854	50.048096871766
7	534	1056.648689234608	51.39493324131
7	535	1057.671928076092	37.824721573426
7	536	1057.917285260858	32.011197632089
7	537	1057.981841607917	31.166141189855
7	538	1058.302761408702	27.55097606269
7	539	1059.405098130132	21.785640541636
7	540	1060.014778201744	5.95192843021
7	549	1072.245360456807	3.046036463281
7	552	1078.107074967723	1.196631749578
7	582	1135.538742423362	47.522240427307
7	583	1136.666980141371	47.608594658722
7	584	1136.768395682948	43.52303959634
7	585	1136.819536961803	26.829372689888
7	586	1138.322914428524	26.827662053242
7	587	1139.596637037844	20.550022427141
7	592	1143.652263427629	14.604109501884
7	595	1145.812765458371	4.887853045042
7	596	1147.608347537808	6.431940269475
7	597	1147.639550655666	2.430393584141
7	600	1158.485903730613	5.277241337178
7	606	1188.562720444001	1.67009653532
7	609	1189.467083479913	0.073946427136
7	612	1192.385719801276	0.114189613654
7	615	1197.596116349958	0.11116989294
7	618	1203.298093571261	3.050571641027
7	621	1213.235760073456	0.921515425864
7	624	1214.244429536517	0.910211222027
7	627	1216.231959621416	1.486799608097
7	630	1224.97427589724	0.757046481817
7	633	1232.290376745754	0.260301247539
7	636	1239.7620753371	0.437272217676
7	639	1242.098604329163	0.177011921959
7	642	1248.518625111618	0.336061300056
7	645	1250.637481916866	0.648110261654
7	648	1268.91025667366	0.326610848438
7	657	1274.680793110702	4.777601633651
7	662	1277.950808074961	2.251306829917
7	663	1279.647746581967	3.108651953403
7	669	1296.22278013482	1.119370682385
7	672	1304.846858104978	0.24159638383
7	675	1305.658418804746	0.382570681916
7	678	1316.72662863218	1.088500780988
7	681	1334.370515319133	0.154539806219
7	684	1336.95692690827	0.740780354403
7	687	1340.245388556748	0.043001194597
7	693	1355.155194414165	0.22478279188
7	696	1361.713131643015	1.126091613029
7	699	1365.88873643724	0.516320376485
7	702	1368.596173406783	0.175550009318
7	736	1438.694452033244	67.907901130938
7	737	1438.794971784157	57.490451941029
7	738	1438.811631916889	45.248934264497
7	739	1439.794417733229	45.416754342382
7	740	1440.659336194682	6.163030611377
7	741	1440.795653346549	5.161603298378
7	744	1455.082236900968	0.925682636763
7	747	1460.333123299093	2.813953331253
7	761	1509.295437761733	17.963879678688
7	762	1509.92466153183	18.126359098262
7	774	1549.587157700379	0.425061978492
7	777	1584.235293492472	2.677937416508
7	795	1617.783992640779	28.65279005307
7	796	1618.546404763237	29.252240020376
7	797	1620.227375160072	29.52219886955
7	798	1621.14779944565	21.191786095585
7	804	1641.236869883613	4.279883894743
7	807	1648.161303046563	0.016998660479
7	813	1666.439981271838	0.213747931109
7	822	1695.548868441345	0.899210333522
7	825	1697.856020163369	0.484549007716
7	831	1711.146471315368	1.39476489634
7	848	1755.246246009283	9.016192886955
7	849	1755.74081626889	5.572034615233
7	850	1756.437693691236	5.58292648524
7	851	1757.408621435782	5.48292698991
7	852	1757.459375279948	4.302199713358
7	855	1759.989143893197	0.437901944066
7	863	1779.726307572344	3.808075692204
7	864	1780.013874139217	0.428375524474
7	873	1803.686826999341	2.859375747577
7	876	1809.184742456696	0.210477374633
7	879	1813.965595302817	0.495074370203
7	882	1818.107783758292	0.627036324196
7	885	1829.98688552991	1.87554062863
7	888	1832.240602931524	0.206898695235
7	891	1832.723860332039	0.417411558102
7	915	1911.075760115816	39.912155249679
7	916	1913.043382834804	39.8127965928
7	917	1913.308024797545	24.13672176653
7	918	1915.600778612149	7.209882183696
7	930	1953.778010046423	0.623668223638
7	938	1963.163593213735	5.204786002124
7	939	1967.059939677726	8.273728065236
7	952	1992.94506490037	10.826154890877
7	953	1993.652466209097	5.393235212928
7	954	1994.218803887787	4.964051753699
7	957	2011.005727090772	1.590148560039
7	963	2024.220537679682	4.54361631213
7	972	2033.859892746059	7.659999776713
7	978	2047.03015833605	0.934623710972
7	1014	2121.202081544864	58.642261658593
7	1034	2170.055071543356	99.664324747208
7	1035	2170.358659815178	90.744851329201
7	1036	2171.029858982205	64.595531021345
7	1039	2171.509279009954	64.270088387884
7	1040	2171.797688592432	50.311632229606
7	1041	2175.187011147496	53.207604706512
7	1044	2176.206059679017	46.369640540971
7	1045	2176.726275454144	38.055890080986
7	1046	2177.937504255581	38.18235152325
7	1047	2179.883366379347	39.623734769835
7	1048	2181.894187315059	24.266764011058
7	1049	2181.961712676332	10.865743661029
7	1050	2182.182960037071	6.612636500145
7	1053	2184.146392265457	1.584016888967
7	1061	2191.340991747588	1.288514942136
7	1062	2196.952518344431	6.417862756788
7	1078	2223.045647817802	23.838927185728
7	1079	2224.622323015471	25.186674428164
7	1080	2224.638673967464	6.51212895356
7	1083	2235.921233570633	0.279340309527
7	1086	2236.300301883361	0.31067287313
7	1089	2241.329332479966	0.629174266698
7	1094	2246.729564751839	0.309046176637
7	1095	2247.292665356685	0.800351400676
7	1105	2254.393680469335	4.410908569309
7	1106	2256.852327358221	5.620221131163
7	1107	2257.660839304145	3.392753693635
7	1110	2271.863944476804	0.29309269167
7	1113	2275.026270433981	2.700531940285
7	1119	2308.738943709644	1.808848753623
7	1122	2310.002859062687	0.230961679944
7	1128	2317.579376204048	0.335930315611
7	1133	2325.189970364312	2.094476277021
7	1136	2327.330821052265	2.477783897518
7	1137	2327.633274142401	1.672838051463
7	1140	2334.216698525439	1.796933646376
7	1143	2336.521004510311	0.169873860773
7	1146	2343.355492112585	0.316611519475
7	1149	2344.325813263361	0.365318140489
7	1152	2346.022944140539	0.421510765789
7	1155	2353.174883528513	0.333422770117
7	1158	2356.256181155922	0.867640481168
7	1161	2360.90226498704	0.042972015303
7	1164	2366.7162754194	2.236116960298
7	1167	2366.997912431705	0.157360231599
7	1170	2370.293015136902	0.236197752543
7	1173	2375.151515613799	0.870377036146
7	1181	2383.66481795997	4.333164621679
7	1182	2384.71116958398	1.477892610764
7	1185	2395.739114504869	0.185165145687
7	1191	2400.073327512879	0.653230260042
7	1197	2417.583647429688	0.315385304413
7	1200	2419.451260020458	0.317808690779
7	1206	2429.939657587538	0.707507682073
7	1209	2442.425860907076	0.642248976624
7	1215	2453.154089997556	0.844625066493
7	1223	2457.1719996217	1.765989879373
7	1224	2457.414893103806	1.855417744882
7	1230	2462.305698165182	0.191641779168
7	1233	2466.391751916646	0.061031494259
7	1236	2467.636703114532	0.41808327809
7	1239	2484.300454791456	4.088491199038
8	161	368.8046549948	1
8	164	369.032996633138	1
8	170	385.435273342652	1
8	179	395.504937079227	1
8	190	406.002142878933	1
8	192	408.543864616083	2
8	197	412.164437928249	1
8	200	417.244564880827	1
8	208	435.069822641035	1
8	212	444.73253469601	1
8	215	455.434219047854	1
8	217	455.45372300501	2
8	223	478.347216278201	1
8	225	478.710433170724	2
8	228	480.515052140072	3
8	234	485.243762285156	2
8	236	496.430731378896	3
8	240	498.869864410954	4
8	242	500.849184752619	5
8	246	506.038526886384	6
8	252	529.03255173219	7
8	263	549.13126875251	1
8	265	549.829030414174	2
8	269	552.782456114895	1
8	272	558.884773278836	1
8	277	568.083617207115	1
8	279	568.383343501675	2
8	284	570.956829549864	1
8	287	576.920273206442	1
8	290	579.228099088614	1
8	292	580.025927210517	2
8	296	581.960803174712	1
8	299	583.433851699979	1
8	305	605.380070849932	1
8	308	616.36163040096	1
8	311	627.496320317452	1
8	328	668.91895575793	1
8	332	673.632126531543	2
8	339	692.737293312491	3
8	341	692.918810680698	4
8	343	698.208839881957	5
8	346	702.555790210454	6
8	352	710.703307436593	5
8	356	714.356468550313	6
8	365	737.620965960018	1
8	368	743.1260328442	1
8	378	765.352438260707	1
8	382	770.362943641312	2
8	386	772.590606204854	1
8	392	781.007393373859	1
8	397	785.519972651797	2
8	401	794.080819717003	1
8	404	810.378030875903	1
8	412	820.140635894339	1
8	428	841.166212997282	2
8	434	844.039921077412	3
8	440	848.302603167896	4
8	442	849.706097178447	5
8	444	858.520764046529	6
8	447	861.33210841493	7
8	455	881.28589739406	8
8	470	926.689134492761	9
8	484	952.159183579918	2
8	494	983.615274297069	1
8	499	985.450572638088	1
8	503	997.883823659565	2
8	507	1005.253755993298	3
8	514	1019.847206502666	4
8	518	1025.906087628769	5
8	521	1026.815700418062	6
8	523	1030.751785346012	7
8	532	1054.062849771534	7
8	544	1069.199323993526	1
8	551	1076.910443218145	1
8	559	1088.016501996055	1
8	561	1089.058385482649	2
8	565	1093.245356086608	3
8	569	1109.990164271915	4
8	574	1111.495252375282	5
8	576	1119.046614610703	6
8	580	1129.048153925745	7
8	589	1140.924912413329	2
8	591	1141.176407268333	3
8	594	1145.209157071525	3
8	599	1153.208662393435	1
8	605	1186.892623908681	1
8	608	1189.393137052777	1
8	611	1192.271530187622	1
8	614	1197.484946457018	1
8	617	1200.247521930234	1
8	620	1212.314244647592	1
8	623	1213.33421831449	1
8	626	1214.745160013319	1
8	629	1224.217229415423	1
8	632	1232.030075498215	1
8	635	1239.324803119424	1
8	638	1241.921592407204	1
8	641	1248.182563811562	1
8	644	1249.989371655212	1
8	647	1268.583645825222	1
8	654	1269.903191477051	1
8	659	1275.699501245044	1
8	661	1276.539094628564	2
8	668	1295.103409452435	1
8	671	1304.605261721148	1
8	674	1305.27584812283	1
8	677	1315.638127851192	1
8	680	1334.215975512914	1
8	683	1336.216146553867	1
8	686	1340.202387362151	1
8	692	1354.930411622285	1
8	695	1360.587040029986	1
8	698	1365.372416060755	1
8	701	1368.420623397465	1
8	706	1370.786550902306	1
8	713	1381.304519843128	2
8	718	1393.562697652392	3
8	720	1394.377663390847	4
8	731	1434.496305583305	5
8	734	1435.634050048171	6
8	743	1454.156554264205	1
8	746	1457.51916996784	1
8	756	1491.331558083045	1
8	758	1491.798302433568	2
8	773	1549.162095721887	1
8	776	1581.557356075964	1
8	781	1589.131202587709	1
8	783	1589.294164742861	2
8	785	1590.705176290522	3
8	789	1599.956013350065	4
8	802	1636.95698598887	1
8	806	1648.144304386084	1
8	812	1666.226233340729	1
8	821	1694.649658107823	1
8	824	1697.371471155653	1
8	830	1709.751706419028	1
8	835	1746.230053122328	1
8	837	1750.168781653657	2
8	841	1750.854767205996	3
8	844	1751.925694445872	4
8	846	1753.15717556659	5
8	854	1759.551241949131	1
8	859	1775.91823188014	1
8	862	1779.585498614743	2
8	870	1800.827451251764	1
8	875	1808.974265082063	1
8	878	1813.470520932614	1
8	881	1817.480747434096	1
8	884	1828.11134490128	1
8	887	1832.033704236289	1
8	890	1832.306448773937	1
8	895	1871.163604866137	1
8	897	1873.230586242004	2
8	903	1889.171303031015	3
8	913	1908.390896428453	4
8	929	1953.154341822785	1
8	934	1957.958807211611	1
8	936	1958.78621161249	2
8	946	1982.118910009493	1
8	948	1988.259230996169	2
8	950	1989.254752134088	3
8	956	2009.415578530733	1
8	961	2019.676921367552	1
8	969	2026.199892969346	1
8	977	2046.095534625078	1
8	982	2062.559819886271	1
8	986	2067.97077610183	2
8	988	2068.207186465525	3
8	990	2070.390746796148	4
8	994	2079.613808485977	5
8	1007	2106.43432796086	6
8	1009	2107.23919062207	7
8	1018	2121.979406440984	7
8	1023	2129.836419138046	8
8	1028	2139.755152732331	9
8	1030	2140.259631609512	10
8	1032	2157.627423304001	11
8	1038	2171.095969015303	9
8	1043	2175.570323536926	7
8	1052	2182.56237537649	1
8	1058	2190.052476805452	1
8	1060	2190.534655587643	2
8	1066	2199.206720632074	1
8	1068	2199.435648587307	2
8	1075	2218.126545013904	3
8	1082	2235.641893261106	1
8	1085	2235.989629010231	1
8	1088	2240.700158213268	1
8	1091	2246.420518575202	1
8	1093	2246.492313956009	2
8	1097	2249.465598681333	1
8	1099	2249.982771900026	2
8	1104	2254.26808561051	3
8	1109	2271.570851785134	1
8	1112	2272.325738493696	1
8	1118	2306.930094956021	1
8	1121	2309.771897382743	1
8	1127	2317.243445888437	1
8	1130	2323.095494087291	1
8	1132	2324.853037154747	2
8	1135	2325.960436090938	2
8	1139	2332.419764879063	1
8	1142	2336.351130649538	1
8	1145	2343.03888059311	1
8	1148	2343.960495122872	1
8	1151	2345.60143337475	1
8	1154	2352.841460758396	1
8	1157	2355.388540674754	1
8	1160	2360.859292971737	1
8	1163	2364.480158459102	1
8	1166	2366.840552200106	1
8	1169	2370.056817384359	1
8	1172	2374.281138577653	1
8	1177	2379.331653338291	1
8	1179	2383.233276973216	2
8	1184	2395.553949359182	1
8	1190	2399.420097252837	1
8	1196	2417.268262125275	1
8	1199	2419.133451329679	1
8	1205	2429.232149905465	1
8	1208	2441.783611930452	1
8	1213	2452.309464931063	1
8	1219	2455.406009742327	1
8	1221	2455.559475358924	2
8	1229	2462.114056386014	1
8	1232	2466.330720422387	1
8	1235	2467.218619836442	1
8	1238	2480.211963592418	1
9	166	369.138949755894	1
9	172	385.453117749827	1
9	176	392.547813056844	1
9	182	400.238876986431	1
9	184	400.875830780534	2
9	187	402.148108483634	2
9	203	424.812540692519	1
9	206	429.941475816797	1
9	221	476.703449272382	1
9	232	483.215547513179	1
9	238	497.665056686089	2
9	244	502.518415000999	3
9	248	518.010136143749	4
9	275	567.422534967774	1
9	302	589.254921646886	1
9	314	633.612335763276	1
9	317	653.717876567391	1
9	319	656.162405383807	2
9	322	664.883556027538	2
9	324	665.805119266422	3
9	326	666.345196335487	4
9	335	681.955333536092	2
9	337	685.56874799801	3
9	354	711.427100791882	1
9	371	753.719190786411	1
9	373	758.457762291243	2
9	376	759.862359115068	2
9	389	773.592507289388	1
9	394	782.804215248613	1
9	407	812.083228163358	1
9	409	814.53789680283	2
9	414	821.314613689265	2
9	416	823.339640693145	3
9	419	824.380758877111	3
9	421	826.130509309885	4
9	426	840.108369561828	2
9	430	841.927159132011	3
9	432	843.753911163271	4
9	436	844.204056085925	5
9	438	844.767347024862	6
9	453	874.251744450862	2
9	457	881.630829256108	3
9	459	882.640125728282	4
9	463	895.753310537335	3
9	465	908.271428453241	4
9	467	916.148443900527	5
9	488	972.831961978536	1
9	491	979.360375048207	1
9	497	984.240373431469	1
9	501	994.891896571427	2
9	505	1003.858883076407	3
9	510	1015.591232681327	3
9	512	1016.22762365404	4
9	527	1037.619457588496	1
9	529	1044.868849600906	2
9	542	1065.665815288377	1
9	546	1069.837508154843	2
9	554	1083.0195610608	1
9	557	1085.716712364398	1
9	563	1091.165896348159	2
9	567	1101.862008106945	3
9	572	1110.640880361671	3
9	602	1168.530077245097	1
9	650	1268.922055384295	1
9	652	1269.704014982941	2
9	665	1289.557095687291	1
9	689	1352.506855732944	1
9	704	1370.404388530883	1
9	708	1373.105114693269	2
9	710	1380.113067217977	3
9	715	1381.736131665	3
9	722	1398.191573523998	3
9	724	1401.824001929381	4
9	729	1411.331822722844	2
9	749	1473.250787678847	1
9	752	1484.54545862394	1
9	754	1490.786627567511	2
9	764	1515.939404877614	1
9	766	1518.058639666684	2
9	770	1541.328091502649	1
9	779	1588.998828454145	1
9	787	1591.826544490865	2
9	792	1607.947249559554	2
9	800	1626.570445940533	1
9	809	1654.192015298371	1
9	815	1674.039597021772	1
9	817	1676.296778732605	2
9	827	1704.085550962152	1
9	833	1734.959901667771	1
9	839	1750.512206608145	2
9	857	1772.016630625158	1
9	866	1784.953323999097	1
9	868	1793.940302291954	2
9	893	1863.116674614531	1
9	899	1884.1048210951	2
9	901	1886.579840852465	3
9	905	1891.821254052115	4
9	908	1901.129284237924	4
9	920	1926.365454818449	1
9	923	1944.433785012692	1
9	926	1950.622018393725	1
9	932	1957.125124651231	1
9	941	1976.624516113971	1
9	943	1977.707499429506	2
9	959	2011.380908373739	1
9	965	2024.89113310012	1
9	967	2025.694562311325	2
9	974	2037.032684837172	1
9	980	2054.92630997997	1
9	984	2066.558161474897	2
9	992	2074.312271274971	3
9	996	2085.148294294305	4
9	1000	2099.473183195357	3
9	1004	2102.146138877737	2
9	1011	2116.145782370907	2
9	1016	2121.486056362826	1
9	1020	2128.938193055579	2
9	1026	2138.670385373158	1
9	1055	2186.38555087349	1
9	1064	2196.988326593044	1
9	1070	2203.396636789965	2
9	1073	2217.082690419149	2
9	1101	2251.232106227058	1
9	1115	2294.752183040791	1
9	1124	2310.846390442859	1
9	1175	2378.277617112147	1
9	1187	2399.108451542096	1
9	1193	2403.159387325714	1
9	1202	2427.431392732234	1
9	1211	2444.598988443805	1
9	1217	2455.21295102021	1
9	1226	2458.382625969776	1
10	166	369.138949755894	1
10	172	385.453117749827	2
10	232	483.215547513179	3
10	354	711.427100791882	4
10	394	782.804215248613	5
10	527	1037.619457588496	6
10	1016	2121.486056362826	7
10	1026	2138.670385373158	8
10	1101	2251.232106227058	9
11	1240	2500	0.1036
12	1240	2500	0.0616

