version 2
run experiments_easy_game_mode1-344-20230308-12:03:06-20128
attr configname experiments_easy_game_mode1
attr datetime 20230308-12:03:06
attr experiment experiments_easy_game_mode1
attr inifile omnetpp.ini
attr iterationvars "$0=5, $1=3.5, $2=100"
attr iterationvarsf 5,3.5,100-
attr measurement "$0=5, $1=3.5, $2=100"
attr network Network
attr processid 20128
attr repetition 14
attr replication #14
attr resultdir results
attr runnumber 344
attr seedset 14
param *.boss.arrival_mean 20
param *.boss.service_mean 5
param *.minion.arrival_mean 10
param *.minion.service_mean 3.5
param *.player.recover_rate_x 100
param **.minion.arrival_distribution 0
param **.minion.service_distribution 0
param **.boss.arrival_distribution 0
param **.boss.service_distribution 0

vector 0 Network.player boss_defeated_stat:vector ETV
attr source signal_boss_defeated
vector 1 Network.player boss_jobs_queue_number_stat:vector ETV
attr source signal_boss_jobs_queue_number
vector 2 Network.player boss_response_time_stat:vector ETV
attr source signal_boss_response_time
vector 3 Network.player minion_jobs_number_stat:vector ETV
attr source signal_minion_jobs_number
vector 4 Network.player minion_jobs_queue_number_stat:vector ETV
attr source signal_minion_jobs_queue_number
vector 5 Network.player minion_waiting_time_stat:vector ETV
attr source signal_minion_waiting_time
vector 6 Network.player boss_jobs_number_stat:vector ETV
attr source signal_boss_jobs_number
vector 7 Network.player minion_recovered_stat:vector ETV
attr source signal_minion_recovered
vector 8 Network.player boss_waiting_time_stat:vector ETV
attr source signal_boss_waiting_time
vector 9 Network.player minion_defeated_stat:vector ETV
attr source signal_minion_defeated
vector 10 Network.player minion_response_time_stat:vector ETV
attr source signal_minion_response_time
vector 11 Network.player minion_throughput:vector ETV
attr source signal_minion_throughput
vector 12 Network.player boss_throughput:vector ETV
attr source signal_boss_throughput
0	150	352.751019310738	15
0	157	360.976822105588	16
0	168	392.288498850341	17
0	173	405.14827151017	18
0	204	470.506736958415	19
0	208	475.668133000505	20
0	224	511.440769879772	21
0	234	558.601099175566	22
0	237	564.409162150038	23
0	253	620.250353829127	24
0	254	622.825721609932	25
0	264	671.319037097832	26
0	267	677.886708186749	27
0	272	686.040692225857	28
0	288	713.809479235496	29
0	302	759.350560796351	30
0	306	766.428267261683	31
0	309	785.538348791925	32
0	316	806.690984700965	33
0	328	821.036195970436	34
0	331	824.829107697956	35
0	338	837.997015048779	36
0	339	838.601346342797	37
0	347	856.625460199243	38
0	366	913.168478414887	39
0	371	922.403081234129	40
0	372	931.510413934522	41
0	377	938.60847766947	42
0	381	944.178551462134	43
0	399	1000.604141929967	44
0	411	1016.548027650591	45
0	416	1026.720155226452	46
0	434	1045.874185599695	47
0	466	1129.496245982912	48
0	471	1132.46235576816	49
0	474	1136.854411046234	50
0	484	1152.34419869961	51
0	487	1154.104409440801	52
0	509	1174.797650369384	53
0	527	1214.255277927062	54
0	532	1216.902312220423	55
0	541	1229.582174354477	56
0	553	1240.02376791862	57
0	560	1255.625834215415	58
0	561	1256.885698097657	59
0	568	1284.656511062375	60
0	572	1289.686135799858	61
0	582	1313.503633089776	62
0	583	1318.673291546191	63
0	590	1357.670074738899	64
0	600	1381.648790161661	65
0	601	1382.345799498784	66
0	605	1387.920751646131	67
0	611	1401.971770438939	68
0	614	1411.423095664336	69
0	621	1427.203760639573	70
0	624	1433.036129546777	71
0	627	1437.019984487241	72
0	647	1463.812201050326	73
0	659	1474.741018991702	74
0	666	1495.749369119452	75
0	669	1541.61807261382	76
0	674	1557.735132656284	77
0	683	1567.729713062318	78
0	699	1598.609833690217	79
0	705	1609.396357462436	80
0	708	1611.439270744475	81
0	731	1710.864247162202	82
0	740	1724.560349216913	83
0	741	1727.525858900718	84
0	745	1748.267361035497	85
0	750	1754.291909929053	86
0	757	1773.314685829772	87
0	760	1780.431134355723	88
0	767	1807.87406689389	89
0	773	1820.377888978553	90
0	781	1826.917235681157	91
0	791	1850.421699545927	92
0	809	1871.345133090266	93
0	817	1893.092543320551	94
0	827	1935.641060364688	95
0	832	1939.867161474072	96
0	846	1963.098996064417	97
0	847	1966.158993829007	98
0	866	2017.770977586333	99
0	893	2065.168636830423	100
0	912	2132.220709539342	101
0	922	2171.053041934695	102
0	923	2172.171188416235	103
0	926	2175.060481713807	104
0	966	2265.157358700158	105
0	984	2305.365169591025	106
0	987	2312.515168090493	107
0	1000	2344.830890154049	108
0	1003	2359.993554521064	109
0	1012	2367.271552202672	110
0	1013	2369.35686512045	111
0	1032	2416.447627154892	112
0	1041	2444.560592207405	113
0	1052	2466.815224556288	114
1	150	352.751019310738	0
1	154	357.206506079018	0
1	157	360.976822105588	0
1	167	391.047324288703	0
1	168	392.288498850341	0
1	170	395.908292557247	0
1	173	405.14827151017	0
1	201	465.277290456284	0
1	204	470.506736958415	0
1	207	475.393105182559	0
1	208	475.668133000505	0
1	221	506.499791779649	0
1	224	511.440769879772	0
1	233	552.180011467169	0
1	234	558.601099175566	0
1	236	561.762733894234	0
1	237	564.409162150038	0
1	248	615.348425057337	0
1	252	618.900269317537	1
1	253	620.250353829127	1
1	254	622.825721609932	0
1	263	659.041663215175	0
1	264	671.319037097832	0
1	266	674.896049565265	0
1	267	677.886708186749	0
1	269	682.19995766715	0
1	272	686.040692225857	0
1	287	712.477119971921	0
1	288	713.809479235496	0
1	301	758.572252174628	0
1	302	759.350560796351	0
1	305	765.706999917469	0
1	306	766.428267261683	0
1	308	784.978755077148	0
1	309	785.538348791925	0
1	315	806.137931290683	0
1	316	806.690984700965	0
1	323	814.592706334832	0
1	328	821.036195970436	0
1	330	821.626426792798	0
1	331	824.829107697956	0
1	333	824.836198466085	0
1	335	825.499667755023	1
1	338	837.997015048779	1
1	339	838.601346342797	0
1	346	852.060948218651	0
1	347	856.625460199243	0
1	365	911.483787810045	0
1	366	913.168478414887	0
1	368	917.070564889174	0
1	370	920.385567146477	1
1	371	922.403081234129	1
1	372	931.510413934522	0
1	376	935.754445185036	0
1	377	938.60847766947	0
1	380	942.293628006038	0
1	381	944.178551462134	0
1	398	999.060599541854	0
1	399	1000.604141929967	0
1	410	1016.150775054257	0
1	411	1016.548027650591	0
1	415	1022.394637542636	0
1	416	1026.720155226452	0
1	431	1038.538246586789	0
1	434	1045.874185599695	0
1	465	1129.314636342715	0
1	466	1129.496245982912	0
1	470	1130.970527845427	0
1	471	1132.46235576816	0
1	473	1135.120469468102	0
1	474	1136.854411046234	0
1	477	1138.721968208374	0
1	479	1140.538363023018	1
1	484	1152.34419869961	1
1	487	1154.104409440801	0
1	500	1166.545317567146	0
1	509	1174.797650369384	0
1	526	1212.235030563073	0
1	527	1214.255277927062	0
1	529	1214.859992130296	0
1	532	1216.902312220423	0
1	540	1227.485883194672	0
1	541	1229.582174354477	0
1	552	1236.643816917823	0
1	553	1240.02376791862	0
1	557	1245.185824588694	0
1	559	1245.473148778668	1
1	560	1255.625834215415	1
1	561	1256.885698097657	0
1	565	1272.319734415131	0
1	568	1284.656511062375	0
1	571	1286.83813706964	0
1	572	1289.686135799858	0
1	579	1305.235701771402	0
1	581	1310.732245537385	1
1	582	1313.503633089776	1
1	583	1318.673291546191	0
1	589	1351.241493944332	0
1	590	1357.670074738899	0
1	593	1365.328541869756	0
1	597	1375.741575967684	1
1	600	1381.648790161661	1
1	601	1382.345799498784	0
1	604	1385.026190838092	0
1	605	1387.920751646131	0
1	610	1399.267833290923	0
1	611	1401.971770438939	0
1	613	1408.531804252156	0
1	614	1411.423095664336	0
1	616	1416.866283432641	0
1	621	1427.203760639573	0
1	623	1427.924704791414	0
1	624	1433.036129546777	0
1	626	1434.313057492983	0
1	627	1437.019984487241	0
1	640	1451.59723784495	0
1	647	1463.812201050326	0
1	656	1473.378666856534	0
1	659	1474.741018991702	0
1	665	1491.689037357241	0
1	666	1495.749369119452	0
1	668	1538.272590616996	0
1	669	1541.61807261382	0
1	671	1553.901690264833	0
1	674	1557.735132656284	0
1	678	1558.54260141757	0
1	683	1567.729713062318	0
1	698	1595.681554309851	0
1	699	1598.609833690217	0
1	704	1603.998637226888	0
1	705	1609.396357462436	0
1	707	1610.690213821691	0
1	708	1611.439270744475	0
1	728	1706.356756001619	0
1	730	1708.08451424638	1
1	731	1710.864247162202	1
1	739	1721.710537312419	1
1	740	1724.560349216913	1
1	741	1727.525858900718	0
1	744	1743.189173685306	0
1	745	1748.267361035497	0
1	749	1753.349503705846	0
1	750	1754.291909929053	0
1	752	1758.340419657439	0
1	756	1770.084095394452	1
1	757	1773.314685829772	1
1	760	1780.431134355723	0
1	764	1804.85575399758	0
1	767	1807.87406689389	0
1	770	1814.320946502234	0
1	773	1820.377888978553	0
1	776	1824.452226560445	0
1	781	1826.917235681157	0
1	788	1844.071205200833	0
1	791	1850.421699545927	0
1	808	1866.574068671975	0
1	809	1871.345133090266	0
1	814	1882.268336137148	0
1	817	1893.092543320551	0
1	824	1930.068896973113	0
1	826	1932.893391889637	1
1	827	1935.641060364688	1
1	832	1939.867161474072	0
1	843	1955.889998953772	0
1	845	1959.222495235312	1
1	846	1963.098996064417	1
1	847	1966.158993829007	0
1	865	2015.913112375529	0
1	866	2017.770977586333	0
1	884	2059.313257916285	0
1	893	2065.168636830423	0
1	911	2130.479222310669	0
1	912	2132.220709539342	0
1	917	2152.854575283436	0
1	921	2170.102954966602	1
1	922	2171.053041934695	1
1	923	2172.171188416235	0
1	925	2172.239960610976	0
1	926	2175.060481713807	0
1	965	2263.481900039759	0
1	966	2265.157358700158	0
1	983	2300.279199629124	0
1	984	2305.365169591025	0
1	986	2306.50332956852	0
1	987	2312.515168090493	0
1	993	2330.823323660804	0
1	1000	2344.830890154049	0
1	1002	2347.179264871828	0
1	1003	2359.993554521064	0
1	1009	2366.470211685635	0
1	1011	2366.72911705343	1
1	1012	2367.271552202672	1
1	1013	2369.35686512045	0
1	1029	2410.9013658636	0
1	1032	2416.447627154892	0
1	1040	2438.53470917593	0
1	1041	2444.560592207405	0
1	1051	2464.141668652333	0
1	1052	2466.815224556288	0
2	150	352.751019310738	4.150340539171
2	157	360.976822105588	3.77031602657
2	168	392.288498850341	1.241174561638
2	173	405.14827151017	9.239978952923
2	204	470.506736958415	5.229446502131
2	208	475.668133000505	0.275027817946
2	224	511.440769879772	4.940978100123
2	234	558.601099175566	6.421087708397
2	237	564.409162150038	2.646428255804
2	253	620.250353829127	4.90192877179
2	254	622.825721609932	3.925452292395
2	264	671.319037097832	12.277373882657
2	267	677.886708186749	2.990658621484
2	272	686.040692225857	3.840734558707
2	288	713.809479235496	1.332359263575
2	302	759.350560796351	0.778308621723
2	306	766.428267261683	0.721267344214
2	309	785.538348791925	0.559593714777
2	316	806.690984700965	0.553053410282
2	328	821.036195970436	6.443489635604
2	331	824.829107697956	3.202680905158
2	338	837.997015048779	13.160816582694
2	339	838.601346342797	13.101678587774
2	347	856.625460199243	4.564511980592
2	366	913.168478414887	1.684690604842
2	371	922.403081234129	5.332516344955
2	372	931.510413934522	11.124846788045
2	377	938.60847766947	2.854032484434
2	381	944.178551462134	1.884923456096
2	399	1000.604141929967	1.543542388113
2	411	1016.548027650591	0.397252596334
2	416	1026.720155226452	4.325517683816
2	434	1045.874185599695	7.335939012906
2	466	1129.496245982912	0.181609640197
2	471	1132.46235576816	1.491827922733
2	474	1136.854411046234	1.733941578132
2	484	1152.34419869961	13.622230491236
2	487	1154.104409440801	13.566046417783
2	509	1174.797650369384	8.252332802238
2	527	1214.255277927062	2.020247363989
2	532	1216.902312220423	2.042320090127
2	541	1229.582174354477	2.096291159805
2	553	1240.02376791862	3.379951000797
2	560	1255.625834215415	10.440009626721
2	561	1256.885698097657	11.412549318989
2	568	1284.656511062375	12.336776647244
2	572	1289.686135799858	2.847998730218
2	582	1313.503633089776	8.267931318374
2	583	1318.673291546191	7.941046008806
2	590	1357.670074738899	6.428580794567
2	600	1381.648790161661	16.320248291905
2	601	1382.345799498784	6.6042235311
2	605	1387.920751646131	2.894560808039
2	611	1401.971770438939	2.703937148016
2	614	1411.423095664336	2.89129141218
2	621	1427.203760639573	10.337477206932
2	624	1433.036129546777	5.111424755363
2	627	1437.019984487241	2.706926994258
2	647	1463.812201050326	12.214963205376
2	659	1474.741018991702	1.362352135168
2	666	1495.749369119452	4.060331762211
2	669	1541.61807261382	3.345481996824
2	674	1557.735132656284	3.833442391451
2	683	1567.729713062318	9.187111644748
2	699	1598.609833690217	2.928279380366
2	705	1609.396357462436	5.397720235548
2	708	1611.439270744475	0.749056922784
2	731	1710.864247162202	4.507491160583
2	740	1724.560349216913	16.475834970533
2	741	1727.525858900718	5.815321588299
2	745	1748.267361035497	5.078187350191
2	750	1754.291909929053	0.942406223207
2	757	1773.314685829772	14.974266172333
2	760	1780.431134355723	10.347038961271
2	767	1807.87406689389	3.01831289631
2	773	1820.377888978553	6.056942476319
2	781	1826.917235681157	2.465009120712
2	791	1850.421699545927	6.350494345094
2	809	1871.345133090266	4.771064418291
2	817	1893.092543320551	10.824207183403
2	827	1935.641060364688	5.572163391575
2	832	1939.867161474072	6.973769584435
2	846	1963.098996064417	7.208997110645
2	847	1966.158993829007	6.936498593695
2	866	2017.770977586333	1.857865210804
2	893	2065.168636830423	5.855378914138
2	912	2132.220709539342	1.741487228673
2	922	2171.053041934695	18.198466651259
2	923	2172.171188416235	2.068233449633
2	926	2175.060481713807	2.820521102831
2	966	2265.157358700158	1.675458660399
2	984	2305.365169591025	5.085969961901
2	987	2312.515168090493	6.011838521973
2	1000	2344.830890154049	14.007566493245
2	1003	2359.993554521064	12.814289649236
2	1012	2367.271552202672	0.801340517037
2	1013	2369.35686512045	2.62774806702
2	1032	2416.447627154892	5.546261291292
2	1041	2444.560592207405	6.025883031475
2	1052	2466.815224556288	2.673555903955
3	152	355.033945535691	1
3	156	360.847648264445	2
3	160	365.819027899354	2
3	164	387.095718742011	1
3	172	398.088058073479	1
3	176	411.419678450139	1
3	178	413.093427385525	2
3	182	425.563623459991	1
3	185	437.666459119456	1
3	187	438.029696684342	2
3	190	447.815078122995	2
3	192	448.014362986578	3
3	197	460.719474807882	1
3	199	464.691421886986	2
3	203	468.31375369647	3
3	210	476.592355171942	3
3	215	480.99996210736	1
3	218	494.693038600887	1
3	223	510.591329069228	1
3	227	523.668671067401	1
3	229	527.598294093744	2
3	239	573.842969895357	1
3	242	578.455437527969	1
3	245	611.555413684417	1
3	250	615.939352714958	1
3	256	623.928771261495	2
3	260	640.673975379459	1
3	271	685.122935878473	1
3	274	687.110961404252	2
3	278	694.229259922791	1
3	281	701.444758777024	1
3	284	705.749087531437	1
3	290	725.2216939068	1
3	293	752.004625109296	1
3	296	755.485935073437	1
3	299	757.769784631013	1
3	311	800.144084995374	1
3	313	805.271801913546	2
3	318	807.820099495089	3
3	321	814.210414154197	3
3	325	816.643396720179	4
3	327	818.126394379828	5
3	337	834.316834260483	6
3	342	847.234050476089	6
3	344	851.786460812176	7
3	351	860.598996821791	6
3	359	894.948001405393	1
3	361	896.650259971945	2
3	374	934.819959063106	1
3	383	950.241304898061	1
3	386	958.062632827699	1
3	389	959.86991923007	1
3	392	976.77582752251	1
3	395	990.414800602808	1
3	401	1002.459897149837	1
3	403	1005.460868939708	2
3	405	1006.451086213564	3
3	413	1020.40415877667	1
3	419	1030.872134027189	1
3	421	1032.252396590645	2
3	423	1033.053287518108	3
3	425	1033.310784231591	4
3	427	1033.610600588183	5
3	429	1035.553503453612	6
3	433	1041.240048900413	7
3	443	1075.493779429228	1
3	446	1082.115014041595	1
3	449	1085.432242173332	1
3	452	1092.014265008028	1
3	455	1109.518560920317	1
3	458	1114.688937990352	1
3	460	1119.343587080697	2
3	462	1124.314779321839	3
3	468	1130.644362471608	3
3	481	1143.781660615884	3
3	483	1145.868995392401	4
3	486	1153.73048230477	5
3	489	1155.387906672459	6
3	492	1160.734199300354	6
3	494	1160.750637223976	7
3	496	1161.396249084582	8
3	502	1167.5326024227	7
3	504	1167.598052850385	8
3	506	1167.993915492425	9
3	508	1173.20143576488	10
3	514	1186.418747567496	8
3	516	1189.947228181589	9
3	523	1201.319841001969	5
3	531	1216.520669937629	5
3	535	1218.100005335566	5
3	538	1226.703128561465	5
3	546	1234.366186994145	3
3	550	1236.615598461658	2
3	563	1269.362910494722	1
3	567	1283.054924494812	2
3	574	1296.441175643018	2
3	576	1297.069316463925	3
3	586	1324.647391818103	2
3	595	1374.056657797941	1
3	599	1378.022606618429	2
3	608	1398.933525870826	1
3	618	1417.818834180346	2
3	620	1418.731874372363	3
3	632	1439.388948369657	1
3	635	1447.509081999705	1
3	638	1449.142914548495	1
3	642	1456.225271383588	2
3	644	1456.400941635302	3
3	646	1461.965053672528	4
3	651	1467.67103100862	3
3	658	1474.515807855272	1
3	662	1479.677835639554	1
3	673	1554.358948512642	1
3	676	1558.420695990465	2
3	680	1562.464946648262	3
3	682	1562.828090074808	4
3	688	1572.194378599458	2
3	692	1574.705130952569	1
3	695	1594.176936871932	1
3	701	1598.708315021286	1
3	710	1613.903273049395	1
3	713	1621.40366481471	1
3	716	1630.241630788371	1
3	719	1644.260086479798	1
3	722	1669.832094513945	1
3	725	1681.611071161843	1
3	733	1713.472986293194	1
3	735	1714.640646851212	2
3	737	1721.30860318063	3
3	754	1766.226882172695	1
3	759	1779.98537330806	2
3	766	1807.823965274978	1
3	772	1819.60630046076	1
3	778	1826.548979276419	1
3	780	1826.651877243888	2
3	785	1838.134966215622	1
3	790	1847.293015477357	1
3	794	1853.976238258592	1
3	796	1855.10675154571	2
3	798	1857.631578485873	3
3	800	1860.606685251931	4
3	806	1865.691340515226	1
3	812	1880.814585492101	1
3	816	1887.931572451922	2
3	820	1903.497259501524	2
3	829	1937.445960383169	1
3	831	1938.859698529189	2
3	834	1941.176329864383	3
3	836	1943.536124637245	4
3	839	1950.784732485768	4
3	851	1967.794394560158	1
3	854	1976.287166789391	1
3	857	1985.897270703852	1
3	860	2007.719498988818	1
3	862	2010.177268959809	2
3	868	2021.901711754506	2
3	871	2031.30342569397	2
3	875	2037.136179608095	1
3	877	2040.809530510809	2
3	881	2053.674137517185	1
3	886	2059.816619114803	1
3	888	2060.448777503511	2
3	890	2063.058595777536	3
3	892	2063.394189174223	4
3	897	2072.07663982243	3
3	899	2072.759239173926	4
3	903	2083.275534212787	3
3	908	2122.161339140629	1
3	914	2140.78073805428	1
3	919	2163.337331253465	1
3	928	2177.74862608756	2
3	932	2189.633811910056	1
3	935	2193.770199773401	1
3	937	2194.819181776313	2
3	939	2195.465914992879	3
3	943	2211.311766695371	2
3	947	2215.304386083665	1
3	950	2226.004219507096	1
3	953	2251.224778920485	1
3	956	2254.497456116578	1
3	959	2256.847869803007	1
3	962	2257.714496912013	1
3	968	2273.201925482636	1
3	971	2280.192910292888	1
3	973	2284.721547061188	2
3	977	2287.575491926138	1
3	979	2287.868131191911	2
3	981	2296.617862611394	3
3	990	2325.974203586855	3
3	995	2334.310906074741	3
3	997	2334.384825843069	4
3	999	2343.657463510586	5
3	1007	2365.52260337468	4
3	1018	2377.755021187577	2
3	1022	2398.406299735043	1
3	1025	2410.564342124642	1
3	1027	2410.626546255374	2
3	1031	2413.549859208002	3
3	1036	2418.857725134264	2
3	1043	2458.946133014052	1
3	1045	2459.312248017999	2
3	1047	2463.17615093269	3
3	1054	2469.069714972963	2
3	1058	2478.484167057322	1
3	1061	2491.184429780078	1
3	1063	2493.000563500548	2
4	152	355.033945535691	0
4	156	360.847648264445	1
4	158	362.163385779802	1
4	160	365.819027899354	1
4	161	371.337751519071	1
4	162	373.381241738898	0
4	164	387.095718742011	0
4	165	387.710069862234	0
4	172	398.088058073479	0
4	174	407.474532100003	0
4	176	411.419678450139	0
4	178	413.093427385525	1
4	179	418.686379282544	1
4	180	425.498020730521	0
4	182	425.563623459991	0
4	183	425.751117148455	0
4	185	437.666459119456	0
4	187	438.029696684342	1
4	188	439.036234398372	1
4	190	447.815078122995	1
4	192	448.014362986578	2
4	193	456.059831323857	2
4	194	458.013164667556	1
4	195	458.402001253065	0
4	197	460.719474807882	0
4	199	464.691421886986	1
4	203	468.31375369647	2
4	205	472.306253406427	2
4	210	476.592355171942	2
4	211	480.209877359228	2
4	212	480.246514698824	1
4	213	480.50743072845	0
4	215	480.99996210736	0
4	216	481.465001699383	0
4	218	494.693038600887	0
4	219	494.760867249853	0
4	223	510.591329069228	0
4	225	520.127113705218	0
4	227	523.668671067401	0
4	229	527.598294093744	1
4	230	528.140516365415	1
4	231	540.214732546725	0
4	239	573.842969895357	0
4	240	573.991195279525	0
4	242	578.455437527969	0
4	243	579.298723612642	0
4	245	611.555413684417	0
4	246	611.621306949176	0
4	250	615.939352714958	0
4	256	623.928771261495	1
4	257	626.08071409308	1
4	258	626.383743770746	0
4	260	640.673975379459	0
4	261	648.307716638839	0
4	271	685.122935878473	0
4	274	687.110961404252	1
4	275	687.194856370433	1
4	276	687.208031778878	0
4	278	694.229259922791	0
4	279	696.191409913018	0
4	281	701.444758777024	0
4	282	701.474734110482	0
4	284	705.749087531437	0
4	285	705.818834075546	0
4	290	725.2216939068	0
4	291	734.061941881076	0
4	293	752.004625109296	0
4	294	754.172103803311	0
4	296	755.485935073437	0
4	297	756.271574242409	0
4	299	757.769784631013	0
4	303	763.060356370458	0
4	311	800.144084995374	0
4	313	805.271801913546	1
4	318	807.820099495089	2
4	319	810.603737136374	2
4	321	814.210414154197	2
4	325	816.643396720179	3
4	327	818.126394379828	4
4	337	834.316834260483	5
4	340	845.54355681801	5
4	342	847.234050476089	5
4	344	851.786460812176	6
4	348	856.931477623177	6
4	349	859.730532104982	5
4	351	860.598996821791	5
4	352	865.310857736884	5
4	353	871.638671323366	4
4	354	879.522754192752	3
4	355	880.805710839132	2
4	356	883.963364014623	1
4	357	889.371177824067	0
4	359	894.948001405393	0
4	361	896.650259971945	1
4	362	897.053849632845	1
4	363	900.871355211034	0
4	374	934.819959063106	0
4	378	940.480867606816	0
4	383	950.241304898061	0
4	384	956.944298612589	0
4	386	958.062632827699	0
4	387	958.444074761973	0
4	389	959.86991923007	0
4	390	962.621316750819	0
4	392	976.77582752251	0
4	393	977.288294580851	0
4	395	990.414800602808	0
4	396	991.184757877212	0
4	401	1002.459897149837	0
4	403	1005.460868939708	1
4	405	1006.451086213564	2
4	406	1006.646813669299	2
4	407	1009.354857887279	1
4	408	1012.24387625269	0
4	413	1020.40415877667	0
4	417	1027.598329700084	0
4	419	1030.872134027189	0
4	421	1032.252396590645	1
4	423	1033.053287518108	2
4	425	1033.310784231591	3
4	427	1033.610600588183	4
4	429	1035.553503453612	5
4	433	1041.240048900413	6
4	435	1047.011125653934	6
4	436	1049.465909793441	5
4	437	1053.330189417906	4
4	438	1055.065621412341	3
4	439	1059.665927477415	2
4	440	1068.785521718179	1
4	441	1072.647869057252	0
4	443	1075.493779429228	0
4	444	1079.62369675117	0
4	446	1082.115014041595	0
4	447	1083.552819600271	0
4	449	1085.432242173332	0
4	450	1088.632827879817	0
4	452	1092.014265008028	0
4	453	1099.268855347244	0
4	455	1109.518560920317	0
4	456	1110.283142282179	0
4	458	1114.688937990352	0
4	460	1119.343587080697	1
4	462	1124.314779321839	2
4	463	1129.204215949448	2
4	468	1130.644362471608	2
4	475	1138.146083050985	2
4	481	1143.781660615884	2
4	483	1145.868995392401	3
4	486	1153.73048230477	4
4	489	1155.387906672459	5
4	490	1155.992460512232	5
4	492	1160.734199300354	5
4	494	1160.750637223976	6
4	496	1161.396249084582	7
4	497	1164.471103120623	7
4	498	1165.196966158346	6
4	502	1167.5326024227	6
4	504	1167.598052850385	7
4	506	1167.993915492425	8
4	508	1173.20143576488	9
4	510	1175.28236089078	9
4	511	1176.455459044297	8
4	512	1181.496172670845	7
4	514	1186.418747567496	7
4	516	1189.947228181589	8
4	517	1190.662329498548	8
4	518	1194.996576075368	7
4	519	1195.483523740555	6
4	520	1200.712440344698	5
4	521	1200.972799738279	4
4	523	1201.319841001969	4
4	524	1204.561391572158	4
4	531	1216.520669937629	4
4	533	1216.929539871381	4
4	535	1218.100005335566	4
4	536	1220.75446291894	4
4	538	1226.703128561465	4
4	542	1230.451470029272	4
4	543	1232.127311654064	3
4	544	1232.633155578333	2
4	546	1234.366186994145	2
4	547	1234.57826698971	2
4	548	1236.347532626464	1
4	550	1236.615598461658	1
4	554	1240.501643688198	1
4	555	1242.853749214314	0
4	563	1269.362910494722	0
4	567	1283.054924494812	1
4	569	1285.897987699156	1
4	574	1296.441175643018	1
4	576	1297.069316463925	2
4	577	1305.011364343509	2
4	584	1321.778322221206	1
4	586	1324.647391818103	1
4	587	1331.507872623939	1
4	591	1360.143702567345	0
4	595	1374.056657797941	0
4	599	1378.022606618429	1
4	602	1384.116616049876	1
4	606	1393.568488279404	0
4	608	1398.933525870826	0
4	618	1417.818834180346	1
4	620	1418.731874372363	2
4	628	1437.557657657086	2
4	629	1438.005097109491	1
4	630	1439.366165616843	0
4	632	1439.388948369657	0
4	633	1443.499434481707	0
4	635	1447.509081999705	0
4	636	1449.073165459504	0
4	638	1449.142914548495	0
4	642	1456.225271383588	1
4	644	1456.400941635302	2
4	646	1461.965053672528	3
4	648	1466.715594895632	3
4	649	1467.621634720027	2
4	651	1467.67103100862	2
4	652	1469.284242422525	2
4	653	1469.7042695539	1
4	654	1472.752672992527	0
4	658	1474.515807855272	0
4	660	1475.625098299931	0
4	662	1479.677835639554	0
4	663	1483.139852069299	0
4	673	1554.358948512642	0
4	676	1558.420695990465	1
4	680	1562.464946648262	2
4	682	1562.828090074808	3
4	684	1568.139768572261	3
4	685	1568.801754158454	2
4	686	1569.245926124243	1
4	688	1572.194378599458	1
4	689	1573.042400928447	1
4	690	1573.527742161621	0
4	692	1574.705130952569	0
4	693	1577.730495729362	0
4	695	1594.176936871932	0
4	696	1594.320345854587	0
4	701	1598.708315021286	0
4	702	1600.010275015826	0
4	710	1613.903273049395	0
4	711	1614.951134874637	0
4	713	1621.40366481471	0
4	714	1623.140660244062	0
4	716	1630.241630788371	0
4	717	1634.151201564501	0
4	719	1644.260086479798	0
4	720	1646.125489484585	0
4	722	1669.832094513945	0
4	723	1670.184542878719	0
4	725	1681.611071161843	0
4	726	1690.836325813944	0
4	733	1713.472986293194	0
4	735	1714.640646851212	1
4	737	1721.30860318063	2
4	742	1742.32505533184	2
4	746	1749.012801160375	1
4	747	1749.726416182896	0
4	754	1766.226882172695	0
4	759	1779.98537330806	1
4	761	1784.408896973608	1
4	762	1785.360383632397	0
4	766	1807.823965274978	0
4	768	1808.925375244793	0
4	772	1819.60630046076	0
4	774	1823.759434195457	0
4	778	1826.548979276419	0
4	780	1826.651877243888	1
4	782	1827.377634235085	1
4	783	1830.253740902091	0
4	785	1838.134966215622	0
4	786	1838.901907074315	0
4	790	1847.293015477357	0
4	792	1853.758692410021	0
4	794	1853.976238258592	0
4	796	1855.10675154571	1
4	798	1857.631578485873	2
4	800	1860.606685251931	3
4	801	1860.698572260534	3
4	802	1861.200114564691	2
4	803	1862.479164951404	1
4	804	1862.693730628911	0
4	806	1865.691340515226	0
4	810	1873.864795671581	0
4	812	1880.814585492101	0
4	816	1887.931572451922	1
4	818	1899.240017031613	1
4	820	1903.497259501524	1
4	821	1910.457432648394	1
4	822	1918.660817889926	0
4	829	1937.445960383169	0
4	831	1938.859698529189	1
4	834	1941.176329864383	2
4	836	1943.536124637245	3
4	837	1947.463202027989	3
4	839	1950.784732485768	3
4	840	1953.24789748379	3
4	841	1955.351593458947	2
4	848	1966.808424117231	1
4	849	1967.290850914311	0
4	851	1967.794394560158	0
4	852	1968.8797058159	0
4	854	1976.287166789391	0
4	855	1977.516939165045	0
4	857	1985.897270703852	0
4	858	1986.555017312984	0
4	860	2007.719498988818	0
4	862	2010.177268959809	1
4	863	2010.433939449047	1
4	868	2021.901711754506	1
4	869	2028.136137763057	1
4	871	2031.30342569397	1
4	872	2033.147844381612	1
4	873	2033.297882868833	0
4	875	2037.136179608095	0
4	877	2040.809530510809	1
4	878	2044.840471429452	1
4	879	2046.426981313969	0
4	881	2053.674137517185	0
4	882	2056.610150516811	0
4	886	2059.816619114803	0
4	888	2060.448777503511	1
4	890	2063.058595777536	2
4	892	2063.394189174223	3
4	894	2068.743457753893	3
4	895	2070.994962338445	2
4	897	2072.07663982243	2
4	899	2072.759239173926	3
4	900	2074.289209328684	3
4	901	2079.341363916299	2
4	903	2083.275534212787	2
4	904	2086.517718790813	2
4	905	2092.453668575621	1
4	906	2095.473954835657	0
4	908	2122.161339140629	0
4	909	2122.722443293451	0
4	914	2140.78073805428	0
4	915	2146.357859256484	0
4	919	2163.337331253465	0
4	928	2177.74862608756	1
4	929	2178.98081446106	1
4	930	2182.141464944584	0
4	932	2189.633811910056	0
4	933	2192.672439807338	0
4	935	2193.770199773401	0
4	937	2194.819181776313	1
4	939	2195.465914992879	2
4	940	2196.296659348603	2
4	941	2197.911327586395	1
4	943	2211.311766695371	1
4	944	2213.533133317965	1
4	945	2214.048826884981	0
4	947	2215.304386083665	0
4	948	2215.733619533637	0
4	950	2226.004219507096	0
4	951	2232.847464024356	0
4	953	2251.224778920485	0
4	954	2254.430475785746	0
4	956	2254.497456116578	0
4	957	2255.636598912072	0
4	959	2256.847869803007	0
4	960	2257.321495351317	0
4	962	2257.714496912013	0
4	963	2259.65527873527	0
4	968	2273.201925482636	0
4	969	2274.034845254305	0
4	971	2280.192910292888	0
4	973	2284.721547061188	1
4	974	2284.828152503886	1
4	975	2286.372083025408	0
4	977	2287.575491926138	0
4	979	2287.868131191911	1
4	981	2296.617862611394	2
4	988	2323.663502520219	2
4	990	2325.974203586855	2
4	991	2330.795972036729	2
4	995	2334.310906074741	2
4	997	2334.384825843069	3
4	999	2343.657463510586	4
4	1004	2363.267213799517	4
4	1005	2364.810620155308	3
4	1007	2365.52260337468	3
4	1014	2371.618753740364	3
4	1015	2372.177108738241	2
4	1016	2373.285940996626	1
4	1018	2377.755021187577	1
4	1019	2381.36064839001	1
4	1020	2384.795052661058	0
4	1022	2398.406299735043	0
4	1023	2400.589347370553	0
4	1025	2410.564342124642	0
4	1027	2410.626546255374	1
4	1031	2413.549859208002	2
4	1033	2417.241714849764	2
4	1034	2417.957774956718	1
4	1036	2418.857725134264	1
4	1037	2426.764106025357	1
4	1038	2433.555733920041	0
4	1043	2458.946133014052	0
4	1045	2459.312248017999	1
4	1047	2463.17615093269	2
4	1048	2463.31621994394	2
4	1049	2463.521381415767	1
4	1054	2469.069714972963	1
4	1055	2469.784978991836	1
4	1056	2470.973292935103	0
4	1058	2478.484167057322	0
4	1059	2480.934890106192	0
4	1061	2491.184429780078	0
4	1063	2493.000563500548	1
4	1064	2496.884984369805	1
4	1065	2499.251739371477	0
5	152	355.033945535691	0
5	157	360.976822105588	3.77031602657
5	158	362.163385779802	1.315737515357
5	161	371.337751519071	5.518723619717
5	164	387.095718742011	0
5	173	405.14827151017	7.060213436691
5	176	411.419678450139	0
5	179	418.686379282544	5.592951897019
5	182	425.563623459991	0
5	185	437.666459119456	0
5	188	439.036234398372	1.00653771403
5	193	456.059831323857	8.244753200862
5	194	458.013164667556	9.998801680978
5	197	460.719474807882	0
5	204	470.506736958415	5.815315071429
5	205	472.306253406427	7.028962950143
5	208	475.668133000505	7.354379304035
5	211	480.209877359228	4.816772176669
5	212	480.246514698824	3.654159526882
5	215	480.99996210736	0
5	218	494.693038600887	0
5	224	511.440769879772	0.849440810544
5	227	523.668671067401	0
5	230	528.140516365415	0.542222271671
5	239	573.842969895357	0
5	242	578.455437527969	0
5	245	611.555413684417	0
5	254	622.825721609932	6.886368894974
5	257	626.08071409308	2.151942831585
5	260	640.673975379459	0
5	272	686.040692225857	0.917756347384
5	275	687.194856370433	0.083894966181
5	278	694.229259922791	0
5	281	701.444758777024	0
5	284	705.749087531437	0
5	290	725.2216939068	0
5	293	752.004625109296	0
5	296	755.485935073437	0
5	299	757.769784631013	0
5	302	759.350560796351	0.778308621723
5	311	800.144084995374	0
5	316	806.690984700965	1.419182787419
5	319	810.603737136374	4.465805845691
5	328	821.036195970436	13.216096475347
5	331	824.829107697956	10.618693543759
5	339	838.601346342797	24.008640007965
5	340	845.54355681801	28.900160097831
5	347	856.625460199243	38.499065819415
5	348	856.931477623177	35.305050830379
5	349	859.730532104982	34.894333638897
5	352	865.310857736884	30.994023476401
5	353	871.638671323366	24.404620847277
5	354	879.522754192752	27.736293380576
5	355	880.805710839132	28.744762620481
5	356	883.963364014623	23.364367192832
5	359	894.948001405393	0
5	362	897.053849632845	0.4035896609
5	374	934.819959063106	0
5	377	938.60847766947	2.854032484434
5	383	950.241304898061	0
5	386	958.062632827699	0
5	389	959.86991923007	0
5	392	976.77582752251	0
5	395	990.414800602808	0
5	401	1002.459897149837	0
5	406	1006.646813669299	1.185944729591
5	407	1009.354857887279	2.903771673715
5	413	1020.40415877667	0
5	416	1026.720155226452	4.325517683816
5	419	1030.872134027189	0
5	434	1045.874185599695	13.62178900905
5	435	1047.011125653934	13.957838135826
5	436	1049.465909793441	16.15512556185
5	437	1053.330189417906	19.719588829723
5	438	1055.065621412341	19.512117958729
5	439	1059.665927477415	21.127680890626
5	440	1068.785521718179	27.545472817766
5	443	1075.493779429228	0
5	446	1082.115014041595	0
5	449	1085.432242173332	0
5	452	1092.014265008028	0
5	455	1109.518560920317	0
5	458	1114.688937990352	0
5	463	1129.204215949448	9.860628868751
5	466	1129.496245982912	5.181466661073
5	471	1132.46235576816	3.147719425445
5	474	1136.854411046234	6.210048574626
5	475	1138.146083050985	7.175555205558
5	487	1154.104409440801	18.983939972699
5	490	1155.992460512232	17.270492303858
5	497	1164.471103120623	20.689442504739
5	498	1165.196966158346	19.327970765945
5	509	1174.797650369384	21.067168064614
5	510	1175.28236089078	19.894454218321
5	511	1176.455459044297	15.721259743943
5	512	1181.496172670845	20.745535446869
5	517	1190.662329498548	29.266080413966
5	518	1194.996576075368	28.451258508222
5	519	1195.483523740555	27.950921317855
5	520	1200.712440344698	33.114387494313
5	521	1200.972799738279	32.978884245854
5	524	1204.561391572158	31.359955807278
5	527	1214.255277927062	27.836530359566
5	532	1216.902312220423	26.955084038834
5	533	1216.929539871381	15.609698869412
5	536	1220.75446291894	8.519432355867
5	541	1229.582174354477	14.722182224181
5	542	1230.451470029272	13.930800091643
5	543	1232.127311654064	14.027306318498
5	544	1232.633155578333	5.930027016868
5	547	1234.57826698971	7.092383795038
5	548	1236.347532626464	1.981345632319
5	553	1240.02376791862	3.408169456962
5	554	1240.501643688198	3.857826770375
5	563	1269.362910494722	0
5	568	1284.656511062375	12.336776647244
5	569	1285.897987699156	2.843063204344
5	572	1289.686135799858	2.847998730218
5	577	1305.011364343509	8.570188700491
5	583	1318.673291546191	21.603975082266
5	584	1321.778322221206	16.542620449804
5	587	1331.507872623939	6.860480805836
5	590	1357.670074738899	6.428580794567
5	601	1382.345799498784	8.289141700843
5	602	1384.116616049876	6.094009431447
5	605	1387.920751646131	2.894560808039
5	608	1398.933525870826	0
5	611	1401.971770438939	2.703937148016
5	614	1411.423095664336	2.89129141218
5	621	1427.203760639573	10.337477206932
5	624	1433.036129546777	15.217295366431
5	627	1437.019984487241	18.288110114878
5	628	1437.557657657086	9.632952865672
5	629	1438.005097109491	3.692039616508
5	632	1439.388948369657	0
5	635	1447.509081999705	0
5	638	1449.142914548495	0
5	647	1463.812201050326	12.214963205376
5	648	1466.715594895632	10.490323512044
5	649	1467.621634720027	11.220693084725
5	652	1469.284242422525	7.319188749997
5	653	1469.7042695539	2.03323854528
5	659	1474.741018991702	0.22521113643
5	662	1479.677835639554	0
5	674	1557.735132656284	3.376184143642
5	683	1567.729713062318	9.309017071853
5	684	1568.139768572261	9.597167154691
5	685	1568.801754158454	6.336807510192
5	686	1569.245926124243	6.417836049435
5	689	1573.042400928447	0.848022328989
5	692	1574.705130952569	0
5	695	1594.176936871932	0
5	701	1598.708315021286	0
5	710	1613.903273049395	0
5	713	1621.40366481471	0
5	716	1630.241630788371	0
5	719	1644.260086479798	0
5	722	1669.832094513945	0
5	725	1681.611071161843	0
5	741	1727.525858900718	14.052872607524
5	742	1742.32505533184	27.684408480628
5	745	1748.267361035497	26.958757854867
5	746	1749.012801160375	5.823627475069
5	760	1780.431134355723	14.204252183028
5	761	1784.408896973608	4.423523665548
5	767	1807.87406689389	0.050101618912
5	773	1820.377888978553	0.771588517793
5	781	1826.917235681157	0.368256404738
5	782	1827.377634235085	0.725756991197
5	785	1838.134966215622	0
5	791	1850.421699545927	3.12868406857
5	794	1853.976238258592	0
5	801	1860.698572260534	5.591820714824
5	802	1861.200114564691	3.568536078818
5	803	1862.479164951404	1.872479699473
5	806	1865.691340515226	0
5	809	1871.345133090266	4.771064418291
5	812	1880.814585492101	0
5	817	1893.092543320551	10.824207183403
5	818	1899.240017031613	11.308444579691
5	821	1910.457432648394	6.96017314687
5	832	1939.867161474072	2.421201090903
5	837	1947.463202027989	8.6035034988
5	840	1953.24789748379	12.071567619407
5	841	1955.351593458947	11.815468821702
5	847	1966.158993829007	15.374261343239
5	848	1966.808424117231	10.918425163459
5	851	1967.794394560158	0
5	854	1976.287166789391	0
5	857	1985.897270703852	0
5	860	2007.719498988818	0
5	863	2010.433939449047	0.256670489238
5	866	2017.770977586333	1.857865210804
5	869	2028.136137763057	6.234426008551
5	872	2033.147844381612	1.844418687642
5	875	2037.136179608095	0
5	878	2044.840471429452	4.030940918643
5	881	2053.674137517185	0
5	893	2065.168636830423	5.35201771562
5	894	2068.743457753893	8.294680250382
5	895	2070.994962338445	7.936366560909
5	900	2074.289209328684	10.895020154461
5	901	2079.341363916299	7.264724093869
5	904	2086.517718790813	13.758479616887
5	905	2092.453668575621	9.178134362834
5	908	2122.161339140629	0
5	914	2140.78073805428	0
5	923	2172.171188416235	8.83385716277
5	926	2175.060481713807	2.820521102831
5	929	2178.98081446106	1.2321883735
5	932	2189.633811910056	0
5	935	2193.770199773401	0
5	940	2196.296659348603	1.47747757229
5	941	2197.911327586395	2.445412593516
5	944	2213.533133317965	2.221366622594
5	947	2215.304386083665	0
5	950	2226.004219507096	0
5	953	2251.224778920485	0
5	956	2254.497456116578	0
5	959	2256.847869803007	0
5	962	2257.714496912013	0
5	968	2273.201925482636	0
5	971	2280.192910292888	0
5	974	2284.828152503886	0.106605442698
5	977	2287.575491926138	0
5	984	2305.365169591025	17.497038399114
5	987	2312.515168090493	15.897305479099
5	988	2323.663502520219	23.384302891095
5	991	2330.795972036729	24.292642468209
5	1000	2344.830890154049	18.856686567194
5	1003	2359.993554521064	29.17023086026
5	1004	2363.267213799517	28.956307724776
5	1005	2364.810620155308	30.425794312239
5	1013	2369.35686512045	25.699401609864
5	1014	2371.618753740364	24.439488868536
5	1015	2372.177108738241	6.654505363561
5	1016	2373.285940996626	6.815729310991
5	1019	2381.36064839001	3.605627202433
5	1022	2398.406299735043	0
5	1025	2410.564342124642	0
5	1032	2416.447627154892	5.821080899518
5	1033	2417.241714849764	6.340348986164
5	1034	2417.957774956718	4.407915748716
5	1037	2426.764106025357	7.906380891093
5	1043	2458.946133014052	0
5	1048	2463.31621994394	4.003971925941
5	1049	2463.521381415767	0.345230483077
5	1052	2466.815224556288	2.673555903955
5	1055	2469.784978991836	0.715264018873
5	1058	2478.484167057322	0
5	1061	2491.184429780078	0
5	1064	2496.884984369805	3.884420869257
6	154	357.206506079018	1
6	167	391.047324288703	1
6	170	395.908292557247	1
6	201	465.277290456284	1
6	207	475.393105182559	1
6	221	506.499791779649	1
6	233	552.180011467169	1
6	236	561.762733894234	1
6	248	615.348425057337	1
6	252	618.900269317537	2
6	263	659.041663215175	1
6	266	674.896049565265	1
6	269	682.19995766715	1
6	287	712.477119971921	1
6	301	758.572252174628	1
6	305	765.706999917469	1
6	308	784.978755077148	1
6	315	806.137931290683	1
6	323	814.592706334832	1
6	330	821.626426792798	1
6	333	824.836198466085	1
6	335	825.499667755023	2
6	346	852.060948218651	1
6	365	911.483787810045	1
6	368	917.070564889174	1
6	370	920.385567146477	2
6	376	935.754445185036	1
6	380	942.293628006038	1
6	398	999.060599541854	1
6	410	1016.150775054257	1
6	415	1022.394637542636	1
6	431	1038.538246586789	1
6	465	1129.314636342715	1
6	470	1130.970527845427	1
6	473	1135.120469468102	1
6	477	1138.721968208374	1
6	479	1140.538363023018	2
6	500	1166.545317567146	1
6	526	1212.235030563073	1
6	529	1214.859992130296	1
6	540	1227.485883194672	1
6	552	1236.643816917823	1
6	557	1245.185824588694	1
6	559	1245.473148778668	2
6	565	1272.319734415131	1
6	571	1286.83813706964	1
6	579	1305.235701771402	1
6	581	1310.732245537385	2
6	589	1351.241493944332	1
6	593	1365.328541869756	1
6	597	1375.741575967684	2
6	604	1385.026190838092	1
6	610	1399.267833290923	1
6	613	1408.531804252156	1
6	616	1416.866283432641	1
6	623	1427.924704791414	1
6	626	1434.313057492983	1
6	640	1451.59723784495	1
6	656	1473.378666856534	1
6	665	1491.689037357241	1
6	668	1538.272590616996	1
6	671	1553.901690264833	1
6	678	1558.54260141757	1
6	698	1595.681554309851	1
6	704	1603.998637226888	1
6	707	1610.690213821691	1
6	728	1706.356756001619	1
6	730	1708.08451424638	2
6	739	1721.710537312419	2
6	744	1743.189173685306	1
6	749	1753.349503705846	1
6	752	1758.340419657439	1
6	756	1770.084095394452	2
6	764	1804.85575399758	1
6	770	1814.320946502234	1
6	776	1824.452226560445	1
6	788	1844.071205200833	1
6	808	1866.574068671975	1
6	814	1882.268336137148	1
6	824	1930.068896973113	1
6	826	1932.893391889637	2
6	843	1955.889998953772	1
6	845	1959.222495235312	2
6	865	2015.913112375529	1
6	884	2059.313257916285	1
6	911	2130.479222310669	1
6	917	2152.854575283436	1
6	921	2170.102954966602	2
6	925	2172.239960610976	1
6	965	2263.481900039759	1
6	983	2300.279199629124	1
6	986	2306.50332956852	1
6	993	2330.823323660804	1
6	1002	2347.179264871828	1
6	1009	2366.470211685635	1
6	1011	2366.72911705343	2
6	1029	2410.9013658636	1
6	1040	2438.53470917593	1
6	1051	2464.141668652333	1
7	154	357.206506079018	4
7	201	465.277290456284	5
7	207	475.393105182559	6
7	301	758.572252174628	7
7	315	806.137931290683	8
7	323	814.592706334832	9
7	330	821.626426792798	10
7	333	824.836198466085	11
7	346	852.060948218651	12
7	376	935.754445185036	13
7	415	1022.394637542636	14
7	431	1038.538246586789	15
7	465	1129.314636342715	16
7	470	1130.970527845427	17
7	473	1135.120469468102	18
7	477	1138.721968208374	19
7	500	1166.545317567146	20
7	526	1212.235030563073	21
7	529	1214.859992130296	22
7	540	1227.485883194672	23
7	552	1236.643816917823	24
7	565	1272.319734415131	25
7	571	1286.83813706964	26
7	579	1305.235701771402	27
7	589	1351.241493944332	28
7	604	1385.026190838092	29
7	610	1399.267833290923	30
7	613	1408.531804252156	31
7	616	1416.866283432641	32
7	623	1427.924704791414	33
7	626	1434.313057492983	34
7	640	1451.59723784495	35
7	678	1558.54260141757	36
7	744	1743.189173685306	37
7	808	1866.574068671975	38
7	814	1882.268336137148	39
7	843	1955.889998953772	40
7	865	2015.913112375529	41
7	925	2172.239960610976	42
7	983	2300.279199629124	43
7	986	2306.50332956852	44
7	993	2330.823323660804	45
7	1002	2347.179264871828	46
7	1009	2366.470211685635	47
7	1029	2410.9013658636	48
7	1051	2464.141668652333	49
8	154	357.206506079018	0
8	167	391.047324288703	0
8	170	395.908292557247	0
8	201	465.277290456284	0
8	207	475.393105182559	0
8	221	506.499791779649	0
8	233	552.180011467169	0
8	236	561.762733894234	0
8	248	615.348425057337	0
8	253	620.250353829127	1.35008451159
8	263	659.041663215175	0
8	266	674.896049565265	0
8	269	682.19995766715	0
8	287	712.477119971921	0
8	301	758.572252174628	0
8	305	765.706999917469	0
8	308	784.978755077148	0
8	315	806.137931290683	0
8	323	814.592706334832	0
8	330	821.626426792798	0
8	333	824.836198466085	0
8	338	837.997015048779	12.497347293756
8	346	852.060948218651	0
8	365	911.483787810045	0
8	368	917.070564889174	0
8	371	922.403081234129	2.017514087652
8	376	935.754445185036	0
8	380	942.293628006038	0
8	398	999.060599541854	0
8	410	1016.150775054257	0
8	415	1022.394637542636	0
8	431	1038.538246586789	0
8	465	1129.314636342715	0
8	470	1130.970527845427	0
8	473	1135.120469468102	0
8	477	1138.721968208374	0
8	484	1152.34419869961	11.805835676592
8	500	1166.545317567146	0
8	526	1212.235030563073	0
8	529	1214.859992130296	0
8	540	1227.485883194672	0
8	552	1236.643816917823	0
8	557	1245.185824588694	0
8	560	1255.625834215415	10.152685436747
8	565	1272.319734415131	0
8	571	1286.83813706964	0
8	579	1305.235701771402	0
8	582	1313.503633089776	2.771387552391
8	589	1351.241493944332	0
8	593	1365.328541869756	0
8	600	1381.648790161661	5.907214193977
8	604	1385.026190838092	0
8	610	1399.267833290923	0
8	613	1408.531804252156	0
8	616	1416.866283432641	0
8	623	1427.924704791414	0
8	626	1434.313057492983	0
8	640	1451.59723784495	0
8	656	1473.378666856534	0
8	665	1491.689037357241	0
8	668	1538.272590616996	0
8	671	1553.901690264833	0
8	678	1558.54260141757	0
8	698	1595.681554309851	0
8	704	1603.998637226888	0
8	707	1610.690213821691	0
8	728	1706.356756001619	0
8	731	1710.864247162202	2.779732915822
8	740	1724.560349216913	2.849811904494
8	744	1743.189173685306	0
8	749	1753.349503705846	0
8	752	1758.340419657439	0
8	757	1773.314685829772	3.23059043532
8	764	1804.85575399758	0
8	770	1814.320946502234	0
8	776	1824.452226560445	0
8	788	1844.071205200833	0
8	808	1866.574068671975	0
8	814	1882.268336137148	0
8	824	1930.068896973113	0
8	827	1935.641060364688	2.747668475051
8	843	1955.889998953772	0
8	846	1963.098996064417	3.876500829105
8	865	2015.913112375529	0
8	884	2059.313257916285	0
8	911	2130.479222310669	0
8	917	2152.854575283436	0
8	922	2171.053041934695	0.950086968093
8	925	2172.239960610976	0
8	965	2263.481900039759	0
8	983	2300.279199629124	0
8	986	2306.50332956852	0
8	993	2330.823323660804	0
8	1002	2347.179264871828	0
8	1009	2366.470211685635	0
8	1012	2367.271552202672	0.542435149242
8	1029	2410.9013658636	0
8	1040	2438.53470917593	0
8	1051	2464.141668652333	0
9	158	362.163385779802	36
9	161	371.337751519071	37
9	162	373.381241738898	38
9	165	387.710069862234	39
9	174	407.474532100003	40
9	179	418.686379282544	41
9	180	425.498020730521	42
9	183	425.751117148455	43
9	188	439.036234398372	44
9	193	456.059831323857	45
9	194	458.013164667556	46
9	195	458.402001253065	47
9	205	472.306253406427	48
9	211	480.209877359228	49
9	212	480.246514698824	50
9	213	480.50743072845	51
9	216	481.465001699383	52
9	219	494.760867249853	53
9	225	520.127113705218	54
9	230	528.140516365415	55
9	231	540.214732546725	56
9	240	573.991195279525	57
9	243	579.298723612642	58
9	246	611.621306949176	59
9	257	626.08071409308	60
9	258	626.383743770746	61
9	261	648.307716638839	62
9	275	687.194856370433	63
9	276	687.208031778878	64
9	279	696.191409913018	65
9	282	701.474734110482	66
9	285	705.818834075546	67
9	291	734.061941881076	68
9	294	754.172103803311	69
9	297	756.271574242409	70
9	303	763.060356370458	71
9	319	810.603737136374	72
9	340	845.54355681801	73
9	348	856.931477623177	74
9	349	859.730532104982	75
9	352	865.310857736884	76
9	353	871.638671323366	77
9	354	879.522754192752	78
9	355	880.805710839132	79
9	356	883.963364014623	80
9	357	889.371177824067	81
9	362	897.053849632845	82
9	363	900.871355211034	83
9	378	940.480867606816	84
9	384	956.944298612589	85
9	387	958.444074761973	86
9	390	962.621316750819	87
9	393	977.288294580851	88
9	396	991.184757877212	89
9	406	1006.646813669299	90
9	407	1009.354857887279	91
9	408	1012.24387625269	92
9	417	1027.598329700084	93
9	435	1047.011125653934	94
9	436	1049.465909793441	95
9	437	1053.330189417906	96
9	438	1055.065621412341	97
9	439	1059.665927477415	98
9	440	1068.785521718179	99
9	441	1072.647869057252	100
9	444	1079.62369675117	101
9	447	1083.552819600271	102
9	450	1088.632827879817	103
9	453	1099.268855347244	104
9	456	1110.283142282179	105
9	463	1129.204215949448	106
9	475	1138.146083050985	107
9	490	1155.992460512232	108
9	497	1164.471103120623	109
9	498	1165.196966158346	110
9	510	1175.28236089078	111
9	511	1176.455459044297	112
9	512	1181.496172670845	113
9	517	1190.662329498548	114
9	518	1194.996576075368	115
9	519	1195.483523740555	116
9	520	1200.712440344698	117
9	521	1200.972799738279	118
9	524	1204.561391572158	119
9	533	1216.929539871381	120
9	536	1220.75446291894	121
9	542	1230.451470029272	122
9	543	1232.127311654064	123
9	544	1232.633155578333	124
9	547	1234.57826698971	125
9	548	1236.347532626464	126
9	554	1240.501643688198	127
9	555	1242.853749214314	128
9	569	1285.897987699156	129
9	577	1305.011364343509	130
9	584	1321.778322221206	131
9	587	1331.507872623939	132
9	591	1360.143702567345	133
9	602	1384.116616049876	134
9	606	1393.568488279404	135
9	628	1437.557657657086	136
9	629	1438.005097109491	137
9	630	1439.366165616843	138
9	633	1443.499434481707	139
9	636	1449.073165459504	140
9	648	1466.715594895632	141
9	649	1467.621634720027	142
9	652	1469.284242422525	143
9	653	1469.7042695539	144
9	654	1472.752672992527	145
9	660	1475.625098299931	146
9	663	1483.139852069299	147
9	684	1568.139768572261	148
9	685	1568.801754158454	149
9	686	1569.245926124243	150
9	689	1573.042400928447	151
9	690	1573.527742161621	152
9	693	1577.730495729362	153
9	696	1594.320345854587	154
9	702	1600.010275015826	155
9	711	1614.951134874637	156
9	714	1623.140660244062	157
9	717	1634.151201564501	158
9	720	1646.125489484585	159
9	723	1670.184542878719	160
9	726	1690.836325813944	161
9	742	1742.32505533184	162
9	746	1749.012801160375	163
9	747	1749.726416182896	164
9	761	1784.408896973608	165
9	762	1785.360383632397	166
9	768	1808.925375244793	167
9	774	1823.759434195457	168
9	782	1827.377634235085	169
9	783	1830.253740902091	170
9	786	1838.901907074315	171
9	792	1853.758692410021	172
9	801	1860.698572260534	173
9	802	1861.200114564691	174
9	803	1862.479164951404	175
9	804	1862.693730628911	176
9	810	1873.864795671581	177
9	818	1899.240017031613	178
9	821	1910.457432648394	179
9	822	1918.660817889926	180
9	837	1947.463202027989	181
9	840	1953.24789748379	182
9	841	1955.351593458947	183
9	848	1966.808424117231	184
9	849	1967.290850914311	185
9	852	1968.8797058159	186
9	855	1977.516939165045	187
9	858	1986.555017312984	188
9	863	2010.433939449047	189
9	869	2028.136137763057	190
9	872	2033.147844381612	191
9	873	2033.297882868833	192
9	878	2044.840471429452	193
9	879	2046.426981313969	194
9	882	2056.610150516811	195
9	894	2068.743457753893	196
9	895	2070.994962338445	197
9	900	2074.289209328684	198
9	901	2079.341363916299	199
9	904	2086.517718790813	200
9	905	2092.453668575621	201
9	906	2095.473954835657	202
9	909	2122.722443293451	203
9	915	2146.357859256484	204
9	929	2178.98081446106	205
9	930	2182.141464944584	206
9	933	2192.672439807338	207
9	940	2196.296659348603	208
9	941	2197.911327586395	209
9	944	2213.533133317965	210
9	945	2214.048826884981	211
9	948	2215.733619533637	212
9	951	2232.847464024356	213
9	954	2254.430475785746	214
9	957	2255.636598912072	215
9	960	2257.321495351317	216
9	963	2259.65527873527	217
9	969	2274.034845254305	218
9	974	2284.828152503886	219
9	975	2286.372083025408	220
9	988	2323.663502520219	221
9	991	2330.795972036729	222
9	1004	2363.267213799517	223
9	1005	2364.810620155308	224
9	1014	2371.618753740364	225
9	1015	2372.177108738241	226
9	1016	2373.285940996626	227
9	1019	2381.36064839001	228
9	1020	2384.795052661058	229
9	1023	2400.589347370553	230
9	1033	2417.241714849764	231
9	1034	2417.957774956718	232
9	1037	2426.764106025357	233
9	1038	2433.555733920041	234
9	1048	2463.31621994394	235
9	1049	2463.521381415767	236
9	1055	2469.784978991836	237
9	1056	2470.973292935103	238
9	1059	2480.934890106192	239
9	1064	2496.884984369805	240
9	1065	2499.251739371477	241
10	158	362.163385779802	4.956879700784
10	161	371.337751519071	10.490103254626
10	162	373.381241738898	7.562213839544
10	165	387.710069862234	0.614351120223
10	174	407.474532100003	9.386474026524
10	179	418.686379282544	7.266700832405
10	180	425.498020730521	12.404593344996
10	183	425.751117148455	0.187493688464
10	188	439.036234398372	1.369775278916
10	193	456.059831323857	18.030134639515
10	194	458.013164667556	10.198086544561
10	195	458.402001253065	10.387638266487
10	205	472.306253406427	7.614831519441
10	211	480.209877359228	11.896123662758
10	212	480.246514698824	4.853409516265
10	213	480.50743072845	3.915075556508
10	216	481.465001699383	0.465039592023
10	219	494.760867249853	0.067828648966
10	225	520.127113705218	9.53578463599
10	230	528.140516365415	4.471845298014
10	231	540.214732546725	12.616438452981
10	240	573.991195279525	0.148225384168
10	243	579.298723612642	0.843286084673
10	246	611.621306949176	0.065893264759
10	257	626.08071409308	10.141361378122
10	258	626.383743770746	2.454972509251
10	261	648.307716638839	7.63374125938
10	275	687.194856370433	2.07192049196
10	276	687.208031778878	0.097070374626
10	279	696.191409913018	1.962149990227
10	282	701.474734110482	0.029975333458
10	285	705.818834075546	0.069746544109
10	291	734.061941881076	8.840247974276
10	294	754.172103803311	2.167478694015
10	297	756.271574242409	0.785639168972
10	303	763.060356370458	4.48810419583
10	319	810.603737136374	5.331935222828
10	340	845.54355681801	30.950850483178
10	348	856.931477623177	38.805083243349
10	349	859.730532104982	38.104105312184
10	352	865.310857736884	40.474659270799
10	353	871.638671323366	37.321837062883
10	354	879.522754192752	32.288703716663
10	355	880.805710839132	29.019250026956
10	356	883.963364014623	31.902415795972
10	357	889.371177824067	28.772181002276
10	362	897.053849632845	2.105848227452
10	363	900.871355211034	4.221095239089
10	378	940.480867606816	4.72642242178
10	384	956.944298612589	6.702993714528
10	387	958.444074761973	0.381441934274
10	390	962.621316750819	2.751397520749
10	393	977.288294580851	0.512467058341
10	396	991.184757877212	0.769957274404
10	406	1006.646813669299	4.186916519462
10	407	1009.354857887279	3.893988947571
10	408	1012.24387625269	5.792790039126
10	417	1027.598329700084	5.203692157448
10	435	1047.011125653934	14.758729063289
10	436	1049.465909793441	16.412622275333
10	437	1053.330189417906	20.019405186315
10	438	1055.065621412341	21.455020824158
10	439	1059.665927477415	24.112424023803
10	440	1068.785521718179	30.24727513139
10	441	1072.647869057252	31.407820156839
10	444	1079.62369675117	4.129917321942
10	447	1083.552819600271	1.437805558676
10	450	1088.632827879817	3.200585706485
10	453	1099.268855347244	7.254590339216
10	456	1110.283142282179	0.764581361862
10	463	1129.204215949448	14.515277959096
10	475	1138.146083050985	7.501720579377
10	490	1155.992460512232	20.87199104413
10	497	1164.471103120623	25.749134912249
10	498	1165.196966158346	21.415305542462
10	510	1175.28236089078	21.55187858601
10	511	1176.455459044297	21.067552371838
10	512	1181.496172670845	20.761973370491
10	517	1190.662329498548	29.911692274572
10	518	1194.996576075368	33.600326990786
10	519	1195.483523740555	28.938206173409
10	520	1200.712440344698	33.179837921998
10	521	1200.972799738279	33.374746887894
10	524	1204.561391572158	36.567476079733
10	533	1216.929539871381	26.982311689792
10	536	1220.75446291894	19.434621916971
10	542	1230.451470029272	15.591477898976
10	543	1232.127311654064	15.606641716435
10	544	1232.633155578333	14.533150242767
10	547	1234.57826698971	7.875138428245
10	548	1236.347532626464	8.861649431792
10	554	1240.501643688198	3.88604522654
10	555	1242.853749214314	6.209932296491
10	569	1285.897987699156	13.578253284025
10	577	1305.011364343509	18.173227273869
10	584	1321.778322221206	24.709005757281
10	587	1331.507872623939	26.272170852537
10	591	1360.143702567345	8.902208623013
10	602	1384.116616049876	10.059958251935
10	606	1393.568488279404	8.542297441312
10	628	1437.557657657086	18.825783284723
10	629	1438.005097109491	10.080392318077
10	630	1439.366165616843	5.05310812386
10	633	1443.499434481707	4.11048611205
10	636	1449.073165459504	1.564083459799
10	648	1466.715594895632	15.118357050682
10	649	1467.621634720027	11.396363336439
10	652	1469.284242422525	12.883300787223
10	653	1469.7042695539	7.739215881372
10	654	1472.752672992527	5.081641983907
10	660	1475.625098299931	1.109290444659
10	663	1483.139852069299	3.462016429745
10	684	1568.139768572261	9.719072581796
10	685	1568.801754158454	10.259152740884
10	686	1569.245926124243	6.780979475981
10	689	1573.042400928447	10.214310853639
10	690	1573.527742161621	1.333363562163
10	693	1577.730495729362	3.025364776793
10	696	1594.320345854587	0.143408982655
10	702	1600.010275015826	1.30195999454
10	711	1614.951134874637	1.047861825242
10	714	1623.140660244062	1.736995429352
10	717	1634.151201564501	3.90957077613
10	720	1646.125489484585	1.865403004787
10	723	1670.184542878719	0.352448364774
10	726	1690.836325813944	9.225254652101
10	742	1742.32505533184	28.852069038646
10	746	1749.012801160375	27.704197979745
10	747	1749.726416182896	6.53724249759
10	761	1784.408896973608	18.182014800913
10	762	1785.360383632397	5.375010324337
10	768	1808.925375244793	1.101409969815
10	774	1823.759434195457	4.153133734697
10	782	1827.377634235085	0.828654958666
10	783	1830.253740902091	3.601863658203
10	786	1838.901907074315	0.766940858693
10	792	1853.758692410021	6.465676932664
10	801	1860.698572260534	6.722334001942
10	802	1861.200114564691	6.093363018981
10	803	1862.479164951404	4.847586465531
10	804	1862.693730628911	2.08704537698
10	810	1873.864795671581	7.290726999606
10	818	1899.240017031613	16.971680894465
10	821	1910.457432648394	22.525860196472
10	822	1918.660817889926	15.163558388402
10	837	1947.463202027989	10.01724164482
10	840	1953.24789748379	14.388198954601
10	841	1955.351593458947	14.175263594564
10	848	1966.808424117231	16.023691631463
10	849	1967.290850914311	11.400851960539
10	852	1968.8797058159	1.085311255742
10	855	1977.516939165045	1.229772375654
10	858	1986.555017312984	0.657746609132
10	863	2010.433939449047	2.714440460229
10	869	2028.136137763057	12.223025387528
10	872	2033.147844381612	11.246132627106
10	873	2033.297882868833	1.994457174863
10	878	2044.840471429452	7.704291821357
10	879	2046.426981313969	5.61745080316
10	882	2056.610150516811	2.936012999626
10	894	2068.743457753893	8.92683863909
10	895	2070.994962338445	10.546184834934
10	900	2074.289209328684	11.230613551148
10	901	2079.341363916299	15.947174742076
10	904	2086.517718790813	14.441078968383
10	905	2092.453668575621	19.694429401695
10	906	2095.473954835657	12.19842062287
10	909	2122.722443293451	0.561104152822
10	915	2146.357859256484	5.577121202204
10	929	2178.98081446106	6.740853850084
10	930	2182.141464944584	4.392838857024
10	933	2192.672439807338	3.038627897282
10	940	2196.296659348603	2.526459575202
10	941	2197.911327586395	3.092145810082
10	944	2213.533133317965	18.067218325086
10	945	2214.048826884981	2.73706018961
10	948	2215.733619533637	0.429233449972
10	951	2232.847464024356	6.84324451726
10	954	2254.430475785746	3.205696865261
10	957	2255.636598912072	1.139142795494
10	960	2257.321495351317	0.47362554831
10	963	2259.65527873527	1.940781823257
10	969	2274.034845254305	0.832919771669
10	974	2284.828152503886	4.635242210998
10	975	2286.372083025408	1.65053596422
10	988	2323.663502520219	27.045639908825
10	991	2330.795972036729	30.516772407605
10	1004	2363.267213799517	32.443890138713
10	1005	2364.810620155308	30.499714080567
10	1014	2371.618753740364	27.961290229778
10	1015	2372.177108738241	24.997843866413
10	1016	2373.285940996626	7.763337621946
10	1019	2381.36064839001	14.890436704375
10	1020	2384.795052661058	7.040031473481
10	1023	2400.589347370553	2.18304763551
10	1033	2417.241714849764	6.61516859439
10	1034	2417.957774956718	7.056409093118
10	1037	2426.764106025357	13.214246817355
10	1038	2433.555733920041	14.698008785777
10	1048	2463.31621994394	4.370086929888
10	1049	2463.521381415767	4.209133397768
10	1055	2469.784978991836	5.643310339503
10	1056	2470.973292935103	1.90357796214
10	1059	2480.934890106192	2.45072304887
10	1064	2496.884984369805	5.700554589727
10	1065	2499.251739371477	6.251175870929
11	1066	2500	0.0964
12	1066	2500	0.0456

