version 2
run experiments_easy_game_mode1-1607-20230308-12:07:49-26824
attr configname experiments_easy_game_mode1
attr datetime 20230308-12:07:49
attr experiment experiments_easy_game_mode1
attr inifile omnetpp.ini
attr iterationvars "$0=7, $1=2, $2=100"
attr iterationvarsf 7,2,100-
attr measurement "$0=7, $1=2, $2=100"
attr network Network
attr processid 26824
attr repetition 17
attr replication #17
attr resultdir results
attr runnumber 1607
attr seedset 17
param *.boss.arrival_mean 20
param *.boss.service_mean 7
param *.minion.arrival_mean 10
param *.minion.service_mean 2
param *.player.recover_rate_x 100
param **.minion.arrival_distribution 0
param **.minion.service_distribution 0
param **.boss.arrival_distribution 0
param **.boss.service_distribution 0

vector 0 Network.player boss_jobs_number_stat:vector ETV
attr source signal_boss_jobs_number
vector 1 Network.player boss_jobs_queue_number_stat:vector ETV
attr source signal_boss_jobs_queue_number
vector 2 Network.player boss_defeated_stat:vector ETV
attr source signal_boss_defeated
vector 3 Network.player boss_response_time_stat:vector ETV
attr source signal_boss_response_time
vector 4 Network.player boss_waiting_time_stat:vector ETV
attr source signal_boss_waiting_time
vector 5 Network.player minion_jobs_number_stat:vector ETV
attr source signal_minion_jobs_number
vector 6 Network.player minion_jobs_queue_number_stat:vector ETV
attr source signal_minion_jobs_queue_number
vector 7 Network.player minion_waiting_time_stat:vector ETV
attr source signal_minion_waiting_time
vector 8 Network.player minion_defeated_stat:vector ETV
attr source signal_minion_defeated
vector 9 Network.player minion_response_time_stat:vector ETV
attr source signal_minion_response_time
vector 10 Network.player minion_recovered_stat:vector ETV
attr source signal_minion_recovered
vector 11 Network.player minion_throughput:vector ETV
attr source signal_minion_throughput
vector 12 Network.player boss_throughput:vector ETV
attr source signal_boss_throughput
0	154	350.171511211393	5
0	159	359.177002320821	3
0	163	365.26094743687	4
0	165	368.098189762035	5
0	178	385.995055935859	3
0	198	401.159380145501	1
0	208	408.580972013092	1
0	210	411.98303390355	2
0	212	412.876803304027	3
0	217	422.146072715288	3
0	222	446.775027194891	1
0	231	468.45014409572	1
0	236	472.544172029421	1
0	242	487.076176212721	1
0	245	491.308263830936	1
0	252	514.420445053881	1
0	263	540.977110483324	1
0	265	551.819681983572	2
0	268	554.511948886503	2
0	275	575.952425612315	1
0	278	583.288797401775	1
0	281	588.718100361583	1
0	303	643.125925376857	1
0	305	645.586996621865	2
0	335	730.571370209296	1
0	337	734.350173070654	2
0	371	810.658340050417	1
0	385	884.907727247863	1
0	387	887.721201712711	2
0	389	888.414522886148	3
0	391	888.512631947575	4
0	393	890.614748597704	5
0	408	921.637319564409	3
0	412	933.050810641064	4
0	433	955.511706174683	1
0	455	994.890497857697	1
0	457	1003.331701847225	2
0	467	1024.71278138575	1
0	469	1033.063840915732	2
0	473	1051.810539160986	1
0	481	1065.212657206365	1
0	483	1065.754729663329	2
0	488	1080.816328212444	2
0	501	1093.090213003979	2
0	554	1190.157796246335	1
0	558	1195.018006867426	2
0	566	1254.157083332267	1
0	581	1280.882010518192	1
0	584	1313.151903889802	1
0	592	1321.444395591257	2
0	594	1325.585896946281	3
0	600	1335.422098015786	2
0	604	1338.793171785704	1
0	610	1343.945698054676	1
0	612	1344.605648280557	2
0	614	1348.23718360817	3
0	620	1354.444723385226	1
0	624	1363.78207600242	1
0	627	1372.897775342055	1
0	631	1380.740144125913	1
0	653	1449.877692855951	1
0	656	1463.860393903988	1
0	661	1472.968465229854	1
0	668	1519.198196621634	1
0	672	1532.42682870514	2
0	683	1550.165412899953	1
0	687	1554.583269324379	2
0	698	1573.502541172078	1
0	719	1622.789686438765	1
0	721	1626.079452015312	2
0	725	1630.884862694327	3
0	727	1635.526245392597	4
0	734	1672.708889509399	1
0	745	1683.53909461402	1
0	748	1684.610946595907	1
0	752	1685.324302382972	2
0	755	1690.607090687069	2
0	757	1690.716656719464	3
0	773	1722.801084257979	1
0	782	1752.565669775121	1
0	785	1757.548582860074	1
0	806	1795.945836784854	1
0	811	1803.075119845715	1
0	836	1863.031907122048	1
0	839	1873.807397067592	1
0	842	1876.768904317585	1
0	855	1890.39997952919	1
0	859	1891.62937734553	1
0	864	1895.714537944116	1
0	870	1904.656803873486	2
0	874	1907.741361857288	3
0	876	1907.770545241994	4
0	880	1910.078089205621	3
0	892	1928.628792155236	1
0	903	1940.266183214219	1
0	922	1969.677378120698	1
0	941	2005.109057834261	1
0	956	2037.716048677079	1
0	974	2096.363142973599	1
0	976	2103.40630497504	2
0	982	2118.70735399252	3
0	989	2130.419533422778	3
0	1004	2149.699629152779	1
0	1016	2180.406746134353	1
0	1025	2189.056782590741	1
0	1034	2208.817946604845	1
0	1040	2249.007462530087	1
0	1049	2267.540485069693	1
0	1058	2284.914111308136	1
0	1073	2303.01610025261	1
0	1097	2370.815889430469	1
0	1099	2386.415765345996	2
0	1127	2426.057704019991	1
0	1129	2426.901955418237	2
0	1133	2436.157063888962	3
0	1151	2467.123966566147	1
0	1157	2473.867866227238	1
0	1168	2489.726720628059	1
1	154	350.171511211393	4
1	155	352.42918485504	4
1	156	354.852387875355	3
1	157	356.715901566875	2
1	159	359.177002320821	2
1	163	365.26094743687	3
1	165	368.098189762035	4
1	168	373.792816895814	4
1	169	376.517352961397	3
1	172	381.574598105539	2
1	178	385.995055935859	2
1	181	390.402253370071	2
1	182	390.774904657723	1
1	185	391.534492804942	0
1	198	401.159380145501	0
1	199	402.210371515389	0
1	208	408.580972013092	0
1	210	411.98303390355	1
1	212	412.876803304027	2
1	213	414.996594194781	2
1	217	422.146072715288	2
1	218	434.633495691554	2
1	219	435.65891161314	1
1	220	446.519922794743	0
1	222	446.775027194891	0
1	223	462.841088755635	0
1	231	468.45014409572	0
1	232	469.037318171489	0
1	236	472.544172029421	0
1	237	474.520780189093	0
1	242	487.076176212721	0
1	243	490.253641201524	0
1	245	491.308263830936	0
1	250	512.800950206638	0
1	252	514.420445053881	0
1	253	523.040325683151	0
1	263	540.977110483324	0
1	265	551.819681983572	1
1	266	551.844893440903	1
1	268	554.511948886503	1
1	269	559.627597981661	1
1	270	563.61289266128	0
1	275	575.952425612315	0
1	276	578.681675845515	0
1	278	583.288797401775	0
1	279	585.345877422772	0
1	281	588.718100361583	0
1	282	589.340693991845	0
1	303	643.125925376857	0
1	305	645.586996621865	1
1	306	646.378293053179	1
1	309	649.331174104669	0
1	335	730.571370209296	0
1	337	734.350173070654	1
1	338	736.469515278467	1
1	351	770.652245674869	0
1	371	810.658340050417	0
1	372	813.031769987966	0
1	385	884.907727247863	0
1	387	887.721201712711	1
1	389	888.414522886148	2
1	391	888.512631947575	3
1	393	890.614748597704	4
1	394	892.588373542223	4
1	403	906.32278242816	3
1	404	918.996771588755	2
1	408	921.637319564409	2
1	412	933.050810641064	3
1	417	937.281813033594	3
1	418	937.806372729796	2
1	419	938.07393916767	1
1	420	939.749658524771	0
1	433	955.511706174683	0
1	434	958.253493975273	0
1	455	994.890497857697	0
1	457	1003.331701847225	1
1	462	1008.90175335707	1
1	463	1011.787508212368	0
1	467	1024.71278138575	0
1	469	1033.063840915732	1
1	470	1034.180785259319	1
1	471	1041.086062545713	0
1	473	1051.810539160986	0
1	476	1057.448935773852	0
1	481	1065.212657206365	0
1	483	1065.754729663329	1
1	484	1065.762043858283	1
1	488	1080.816328212444	1
1	499	1091.467514160572	1
1	501	1093.090213003979	1
1	502	1093.265523678052	1
1	503	1094.059710948324	0
1	554	1190.157796246335	0
1	558	1195.018006867426	1
1	561	1207.899719487224	1
1	562	1217.087562222307	0
1	566	1254.157083332267	0
1	567	1256.205257832154	0
1	581	1280.882010518192	0
1	582	1283.441683191312	0
1	584	1313.151903889802	0
1	592	1321.444395591257	1
1	594	1325.585896946281	2
1	597	1327.816995605918	2
1	598	1333.774987330173	1
1	600	1335.422098015786	1
1	601	1336.180608013204	1
1	602	1336.805790971205	0
1	604	1338.793171785704	0
1	605	1340.679550337228	0
1	610	1343.945698054676	0
1	612	1344.605648280557	1
1	614	1348.23718360817	2
1	615	1350.773021802074	2
1	616	1352.204266482912	1
1	617	1352.253640468724	0
1	620	1354.444723385226	0
1	621	1355.477866739847	0
1	624	1363.78207600242	0
1	625	1369.826096427796	0
1	627	1372.897775342055	0
1	628	1377.517041950187	0
1	631	1380.740144125913	0
1	636	1395.93037726704	0
1	653	1449.877692855951	0
1	654	1459.061002548659	0
1	656	1463.860393903988	0
1	657	1467.252336754517	0
1	661	1472.968465229854	0
1	662	1483.203606090854	0
1	668	1519.198196621634	0
1	672	1532.42682870514	1
1	675	1535.876091916759	1
1	678	1538.471460697433	0
1	683	1550.165412899953	0
1	687	1554.583269324379	1
1	688	1563.456793222134	1
1	695	1571.768838057235	0
1	698	1573.502541172078	0
1	699	1582.797804624467	0
1	719	1622.789686438765	0
1	721	1626.079452015312	1
1	725	1630.884862694327	2
1	727	1635.526245392597	3
1	728	1643.752730344855	3
1	729	1648.183378776825	2
1	730	1653.465042903798	1
1	731	1657.642073174195	0
1	734	1672.708889509399	0
1	735	1676.514427258874	0
1	745	1683.53909461402	0
1	746	1684.603040568596	0
1	748	1684.610946595907	0
1	752	1685.324302382972	1
1	753	1690.435280404929	1
1	755	1690.607090687069	1
1	757	1690.716656719464	2
1	758	1691.504776816729	2
1	763	1701.8451306096	1
1	764	1703.085413504167	0
1	773	1722.801084257979	0
1	774	1726.800684761132	0
1	782	1752.565669775121	0
1	783	1753.586089076418	0
1	785	1757.548582860074	0
1	786	1766.252141396065	0
1	806	1795.945836784854	0
1	809	1802.251019727868	0
1	811	1803.075119845715	0
1	812	1811.477898710267	0
1	836	1863.031907122048	0
1	837	1863.744751115359	0
1	839	1873.807397067592	0
1	840	1875.022187348812	0
1	842	1876.768904317585	0
1	845	1877.839091821627	0
1	855	1890.39997952919	0
1	856	1890.497084654316	0
1	859	1891.62937734553	0
1	860	1893.229049258121	0
1	864	1895.714537944116	0
1	870	1904.656803873486	1
1	874	1907.741361857288	2
1	876	1907.770545241994	3
1	877	1909.339719533344	3
1	878	1909.835102164456	2
1	880	1910.078089205621	2
1	883	1915.432556254644	2
1	886	1920.63718086206	1
1	887	1921.215373379006	0
1	892	1928.628792155236	0
1	895	1931.498317545448	0
1	903	1940.266183214219	0
1	904	1945.678224774417	0
1	922	1969.677378120698	0
1	925	1976.030923003605	0
1	941	2005.109057834261	0
1	942	2007.152351011106	0
1	956	2037.716048677079	0
1	967	2071.410223150773	0
1	974	2096.363142973599	0
1	976	2103.40630497504	1
1	982	2118.70735399252	2
1	983	2122.354472699264	2
1	989	2130.419533422778	2
1	990	2132.049555872398	2
1	991	2134.220217076936	1
1	992	2137.15094221361	0
1	1004	2149.699629152779	0
1	1007	2156.356388258299	0
1	1016	2180.406746134353	0
1	1021	2184.620196943336	0
1	1025	2189.056782590741	0
1	1026	2190.819028057314	0
1	1034	2208.817946604845	0
1	1035	2211.487650748762	0
1	1040	2249.007462530087	0
1	1041	2250.124072818802	0
1	1049	2267.540485069693	0
1	1052	2268.805706498484	0
1	1058	2284.914111308136	0
1	1059	2289.091535611229	0
1	1073	2303.01610025261	0
1	1074	2305.018943597468	0
1	1097	2370.815889430469	0
1	1099	2386.415765345996	1
1	1104	2395.763015271764	1
1	1105	2395.771309575194	0
1	1127	2426.057704019991	0
1	1129	2426.901955418237	1
1	1133	2436.157063888962	2
1	1138	2449.443689646393	2
1	1139	2452.866677947307	1
1	1140	2453.783341430192	0
1	1151	2467.123966566147	0
1	1154	2468.650933805032	0
1	1157	2473.867866227238	0
1	1158	2477.046395137934	0
1	1168	2489.726720628059	0
1	1169	2493.103311790017	0
2	155	352.42918485504	17
2	156	354.852387875355	18
2	157	356.715901566875	19
2	168	373.792816895814	20
2	169	376.517352961397	21
2	172	381.574598105539	22
2	181	390.402253370071	23
2	182	390.774904657723	24
2	185	391.534492804942	25
2	199	402.210371515389	26
2	213	414.996594194781	27
2	218	434.633495691554	28
2	219	435.65891161314	29
2	220	446.519922794743	30
2	223	462.841088755635	31
2	232	469.037318171489	32
2	237	474.520780189093	33
2	243	490.253641201524	34
2	250	512.800950206638	35
2	253	523.040325683151	36
2	266	551.844893440903	37
2	269	559.627597981661	38
2	270	563.61289266128	39
2	276	578.681675845515	40
2	279	585.345877422772	41
2	282	589.340693991845	42
2	306	646.378293053179	43
2	309	649.331174104669	44
2	338	736.469515278467	45
2	351	770.652245674869	46
2	372	813.031769987966	47
2	394	892.588373542223	48
2	403	906.32278242816	49
2	404	918.996771588755	50
2	417	937.281813033594	51
2	418	937.806372729796	52
2	419	938.07393916767	53
2	420	939.749658524771	54
2	434	958.253493975273	55
2	462	1008.90175335707	56
2	463	1011.787508212368	57
2	470	1034.180785259319	58
2	471	1041.086062545713	59
2	476	1057.448935773852	60
2	484	1065.762043858283	61
2	499	1091.467514160572	62
2	502	1093.265523678052	63
2	503	1094.059710948324	64
2	561	1207.899719487224	65
2	562	1217.087562222307	66
2	567	1256.205257832154	67
2	582	1283.441683191312	68
2	597	1327.816995605918	69
2	598	1333.774987330173	70
2	601	1336.180608013204	71
2	602	1336.805790971205	72
2	605	1340.679550337228	73
2	615	1350.773021802074	74
2	616	1352.204266482912	75
2	617	1352.253640468724	76
2	621	1355.477866739847	77
2	625	1369.826096427796	78
2	628	1377.517041950187	79
2	636	1395.93037726704	80
2	654	1459.061002548659	81
2	657	1467.252336754517	82
2	662	1483.203606090854	83
2	675	1535.876091916759	84
2	678	1538.471460697433	85
2	688	1563.456793222134	86
2	695	1571.768838057235	87
2	699	1582.797804624467	88
2	728	1643.752730344855	89
2	729	1648.183378776825	90
2	730	1653.465042903798	91
2	731	1657.642073174195	92
2	735	1676.514427258874	93
2	746	1684.603040568596	94
2	753	1690.435280404929	95
2	758	1691.504776816729	96
2	763	1701.8451306096	97
2	764	1703.085413504167	98
2	774	1726.800684761132	99
2	783	1753.586089076418	100
2	786	1766.252141396065	101
2	809	1802.251019727868	102
2	812	1811.477898710267	103
2	837	1863.744751115359	104
2	840	1875.022187348812	105
2	845	1877.839091821627	106
2	856	1890.497084654316	107
2	860	1893.229049258121	108
2	877	1909.339719533344	109
2	878	1909.835102164456	110
2	883	1915.432556254644	111
2	886	1920.63718086206	112
2	887	1921.215373379006	113
2	895	1931.498317545448	114
2	904	1945.678224774417	115
2	925	1976.030923003605	116
2	942	2007.152351011106	117
2	967	2071.410223150773	118
2	983	2122.354472699264	119
2	990	2132.049555872398	120
2	991	2134.220217076936	121
2	992	2137.15094221361	122
2	1007	2156.356388258299	123
2	1021	2184.620196943336	124
2	1026	2190.819028057314	125
2	1035	2211.487650748762	126
2	1041	2250.124072818802	127
2	1052	2268.805706498484	128
2	1059	2289.091535611229	129
2	1074	2305.018943597468	130
2	1104	2395.763015271764	131
2	1105	2395.771309575194	132
2	1138	2449.443689646393	133
2	1139	2452.866677947307	134
2	1140	2453.783341430192	135
2	1154	2468.650933805032	136
2	1158	2477.046395137934	137
2	1169	2493.103311790017	138
3	155	352.42918485504	31.013828899473
3	156	354.852387875355	30.719899013275
3	157	356.715901566875	20.533229434843
3	168	373.792816895814	32.645875140359
3	169	376.517352961397	26.345841750004
3	172	381.574598105539	22.397595784718
3	181	390.402253370071	25.141305933201
3	182	390.774904657723	22.676714895688
3	185	391.534492804942	5.539436869083
3	199	402.210371515389	1.050991369888
3	213	414.996594194781	6.415622181689
3	218	434.633495691554	22.650461788004
3	219	435.65891161314	22.782108309113
3	220	446.519922794743	24.373850079455
3	223	462.841088755635	16.066061560744
3	232	469.037318171489	0.587174075769
3	237	474.520780189093	1.976608159672
3	243	490.253641201524	3.177464988803
3	250	512.800950206638	21.492686375702
3	253	523.040325683151	8.61988062927
3	266	551.844893440903	10.867782957579
3	269	559.627597981661	7.807915998089
3	270	563.61289266128	9.100943774777
3	276	578.681675845515	2.7292502332
3	279	585.345877422772	2.057080020997
3	282	589.340693991845	0.622593630262
3	306	646.378293053179	3.252367676322
3	309	649.331174104669	3.744177482804
3	338	736.469515278467	5.898145069171
3	351	770.652245674869	36.302072604215
3	372	813.031769987966	2.373429937549
3	394	892.588373542223	7.68064629436
3	403	906.32278242816	18.601580715449
3	404	918.996771588755	30.582248702607
3	417	937.281813033594	48.769181086019
3	418	937.806372729796	47.191624132092
3	419	938.07393916767	16.436619603261
3	420	939.749658524771	6.698847883707
3	434	958.253493975273	2.74178780059
3	462	1008.90175335707	14.011255499373
3	463	1011.787508212368	8.455806365143
3	470	1034.180785259319	9.468003873569
3	471	1041.086062545713	8.022221629981
3	476	1057.448935773852	5.638396612866
3	484	1065.762043858283	0.549386651918
3	499	1091.467514160572	25.712784497243
3	502	1093.265523678052	12.449195465608
3	503	1094.059710948324	0.969497944345
3	561	1207.899719487224	17.741923240889
3	562	1217.087562222307	22.069555354881
3	567	1256.205257832154	2.048174499887
3	582	1283.441683191312	2.55967267312
3	597	1327.816995605918	14.665091716116
3	598	1333.774987330173	12.330591738916
3	601	1336.180608013204	10.594711066923
3	602	1336.805790971205	1.383692955419
3	605	1340.679550337228	1.886378551524
3	615	1350.773021802074	6.827323747398
3	616	1352.204266482912	7.598618202355
3	617	1352.253640468724	4.016456860554
3	621	1355.477866739847	1.033143354621
3	625	1369.826096427796	6.044020425376
3	628	1377.517041950187	4.619266608132
3	636	1395.93037726704	15.190233141127
3	654	1459.061002548659	9.183309692708
3	657	1467.252336754517	3.391942850529
3	662	1483.203606090854	10.235140861
3	675	1535.876091916759	16.677895295125
3	678	1538.471460697433	6.044631992293
3	688	1563.456793222134	13.291380322181
3	695	1571.768838057235	17.185568732856
3	699	1582.797804624467	9.295263452389
3	728	1643.752730344855	20.96304390609
3	729	1648.183378776825	22.103926761513
3	730	1653.465042903798	22.580180209471
3	731	1657.642073174195	22.115827781598
3	735	1676.514427258874	3.805537749475
3	746	1684.603040568596	1.063945954576
3	753	1690.435280404929	5.824333809022
3	758	1691.504776816729	6.180474433757
3	763	1701.8451306096	11.238039922531
3	764	1703.085413504167	12.368756784703
3	774	1726.800684761132	3.999600503153
3	783	1753.586089076418	1.020419301297
3	786	1766.252141396065	8.703558535991
3	809	1802.251019727868	6.305182943014
3	812	1811.477898710267	8.402778864552
3	837	1863.744751115359	0.712843993311
3	840	1875.022187348812	1.21479028122
3	845	1877.839091821627	1.070187504042
3	856	1890.497084654316	0.097105125126
3	860	1893.229049258121	1.599671912591
3	877	1909.339719533344	13.625181589228
3	878	1909.835102164456	5.17829829097
3	883	1915.432556254644	7.691194397356
3	886	1920.63718086206	12.866635620066
3	887	1921.215373379006	11.137284173385
3	895	1931.498317545448	2.869525390212
3	904	1945.678224774417	5.412041560198
3	925	1976.030923003605	6.353544882907
3	942	2007.152351011106	2.043293176845
3	967	2071.410223150773	33.694174473694
3	983	2122.354472699264	25.991329725665
3	990	2132.049555872398	28.643250897358
3	991	2134.220217076936	15.512863084416
3	992	2137.15094221361	6.731408790832
3	1007	2156.356388258299	6.65675910552
3	1021	2184.620196943336	4.213450808983
3	1026	2190.819028057314	1.762245466573
3	1035	2211.487650748762	2.669704143917
3	1041	2250.124072818802	1.116610288715
3	1052	2268.805706498484	1.265221428791
3	1059	2289.091535611229	4.177424303093
3	1074	2305.018943597468	2.002843344858
3	1104	2395.763015271764	24.947125841295
3	1105	2395.771309575194	9.355544229198
3	1138	2449.443689646393	23.385985626402
3	1139	2452.866677947307	25.96472252907
3	1140	2453.783341430192	17.62627754123
3	1154	2468.650933805032	1.526967238885
3	1158	2477.046395137934	3.178528910696
3	1169	2493.103311790017	3.376591161958
4	155	352.42918485504	28.29669599296
4	156	354.852387875355	18.669715743323
4	157	356.715901566875	15.56895981142
4	168	373.792816895814	23.621305684421
4	169	376.517352961397	17.340350640576
4	172	381.574598105539	16.313650668669
4	181	390.402253370071	22.304063608036
4	182	390.774904657723	4.779848721864
4	198	401.159380145501	0
4	208	408.580972013092	0
4	213	414.996594194781	3.013560291231
4	218	434.633495691554	21.756692387527
4	219	435.65891161314	13.512838897852
4	222	446.775027194891	0
4	231	468.45014409572	0
4	236	472.544172029421	0
4	242	487.076176212721	0
4	245	491.308263830936	0
4	252	514.420445053881	0
4	263	540.977110483324	0
4	266	551.844893440903	0.025211457331
4	269	559.627597981661	5.115649095158
4	275	575.952425612315	0
4	278	583.288797401775	0
4	281	588.718100361583	0
4	303	643.125925376857	0
4	306	646.378293053179	0.791296431314
4	335	730.571370209296	0
4	338	736.469515278467	2.119342207813
4	371	810.658340050417	0
4	385	884.907727247863	0
4	394	892.588373542223	4.867171829512
4	403	906.32278242816	17.908259542012
4	404	918.996771588755	30.48413964118
4	417	937.281813033594	46.66706443589
4	418	937.806372729796	16.169053165387
4	419	938.07393916767	5.023128526606
4	433	955.511706174683	0
4	455	994.890497857697	0
4	462	1008.90175335707	5.570051509845
4	467	1024.71278138575	0
4	470	1034.180785259319	1.116944343587
4	473	1051.810539160986	0
4	481	1065.212657206365	0
4	484	1065.762043858283	0.007314194954
4	499	1091.467514160572	10.651185948128
4	502	1093.265523678052	0.175310674073
4	554	1190.157796246335	0
4	561	1207.899719487224	12.881712619798
4	566	1254.157083332267	0
4	581	1280.882010518192	0
4	584	1313.151903889802	0
4	597	1327.816995605918	6.372600014661
4	598	1333.774987330173	8.189090383892
4	601	1336.180608013204	0.758509997418
4	604	1338.793171785704	0
4	610	1343.945698054676	0
4	615	1350.773021802074	6.167373521517
4	616	1352.204266482912	3.967082874742
4	620	1354.444723385226	0
4	624	1363.78207600242	0
4	627	1372.897775342055	0
4	631	1380.740144125913	0
4	653	1449.877692855951	0
4	656	1463.860393903988	0
4	661	1472.968465229854	0
4	668	1519.198196621634	0
4	675	1535.876091916759	3.449263211619
4	683	1550.165412899953	0
4	688	1563.456793222134	8.873523897755
4	698	1573.502541172078	0
4	719	1622.789686438765	0
4	728	1643.752730344855	17.673278329543
4	729	1648.183378776825	17.298516082498
4	730	1653.465042903798	17.938797511201
4	734	1672.708889509399	0
4	745	1683.53909461402	0
4	748	1684.610946595907	0
4	753	1690.435280404929	5.110978021957
4	758	1691.504776816729	0.89768612966
4	763	1701.8451306096	11.128473890136
4	773	1722.801084257979	0
4	782	1752.565669775121	0
4	785	1757.548582860074	0
4	806	1795.945836784854	0
4	811	1803.075119845715	0
4	836	1863.031907122048	0
4	839	1873.807397067592	0
4	842	1876.768904317585	0
4	855	1890.39997952919	0
4	859	1891.62937734553	0
4	864	1895.714537944116	0
4	877	1909.339719533344	4.682915659858
4	878	1909.835102164456	2.093740307168
4	883	1915.432556254644	7.66201101265
4	886	1920.63718086206	10.559091656439
4	892	1928.628792155236	0
4	903	1940.266183214219	0
4	922	1969.677378120698	0
4	941	2005.109057834261	0
4	956	2037.716048677079	0
4	974	2096.363142973599	0
4	983	2122.354472699264	18.948167724224
4	990	2132.049555872398	13.342201879878
4	991	2134.220217076936	3.800683654158
4	1004	2149.699629152779	0
4	1016	2180.406746134353	0
4	1025	2189.056782590741	0
4	1034	2208.817946604845	0
4	1040	2249.007462530087	0
4	1049	2267.540485069693	0
4	1058	2284.914111308136	0
4	1073	2303.01610025261	0
4	1097	2370.815889430469	0
4	1104	2395.763015271764	9.347249925768
4	1127	2426.057704019991	0
4	1138	2449.443689646393	22.541734228156
4	1139	2452.866677947307	16.709614058345
4	1151	2467.123966566147	0
4	1157	2473.867866227238	0
4	1168	2489.726720628059	0
5	161	361.587814466951	4
5	167	370.517362617564	5
5	171	381.15031939228	6
5	174	383.000106765623	7
5	176	385.205731859589	8
5	180	387.231673826958	9
5	184	391.467645020652	10
5	187	391.790327657756	11
5	195	400.240274676465	6
5	201	402.849031992676	6
5	206	408.277538686361	4
5	215	415.825879056699	5
5	229	468.003348668458	2
5	239	479.777162500302	1
5	247	497.643032871097	1
5	249	501.06747342256	2
5	257	529.720340730688	1
5	259	530.664543745399	2
5	272	564.630861679177	1
5	284	607.060157196228	1
5	287	608.817100002223	1
5	290	623.652681534036	1
5	293	626.268215411257	1
5	296	634.226339513972	1
5	299	641.269760757948	1
5	301	642.992641513097	2
5	308	649.251260264539	3
5	314	663.131940718352	1
5	316	670.373604627643	2
5	320	677.811581296454	1
5	323	681.325147848155	1
5	326	697.713954861291	1
5	329	705.670589228675	1
5	332	718.278332535994	1
5	340	739.370792297982	1
5	342	739.531013032072	2
5	344	741.885813294221	3
5	346	749.08452382733	4
5	348	755.707301090235	5
5	350	766.887371715564	6
5	355	771.70993267628	5
5	362	783.247208959	1
5	365	793.563616539954	1
5	368	800.22497064418	1
5	374	814.985995901723	1
5	377	876.737061601873	1
5	380	880.263351200228	1
5	383	884.715060646702	1
5	396	893.057995720692	2
5	398	897.621565833426	3
5	400	904.687267680435	4
5	402	906.148189442126	5
5	406	919.461424773194	6
5	410	923.468924505841	7
5	414	933.372035396762	8
5	416	935.239130551037	9
5	427	947.361177466021	5
5	437	965.713394902006	1
5	440	969.144301495477	1
5	443	978.446267412114	1
5	446	979.290949837497	1
5	449	985.367248631966	1
5	452	991.916379502635	1
5	459	1004.036309392494	1
5	461	1007.313294854891	2
5	475	1055.253222836611	1
5	479	1064.332896723178	1
5	486	1074.458734162069	2
5	490	1084.73509076389	3
5	492	1084.920010614221	4
5	494	1085.344176726577	5
5	496	1086.847302578806	6
5	498	1090.993272535036	7
5	508	1101.359118887311	5
5	512	1102.726871690193	4
5	514	1102.773859650864	5
5	516	1102.808703067666	6
5	518	1103.558692577001	7
5	520	1105.49852764354	8
5	524	1113.898576141939	7
5	529	1118.218172902397	5
5	536	1129.286243436009	1
5	539	1149.330667512377	1
5	542	1168.132939327389	1
5	545	1177.257572825815	1
5	548	1180.200759868871	1
5	550	1180.363532954243	2
5	556	1193.696432415785	1
5	560	1198.036362909496	2
5	569	1256.80320130424	1
5	572	1262.57149398774	1
5	574	1262.817832895913	2
5	578	1264.443793757312	1
5	586	1316.827869198588	1
5	588	1316.836966825172	2
5	590	1317.891645213725	3
5	596	1325.964751757203	4
5	607	1341.896319704022	5
5	633	1390.713665924599	2
5	635	1391.491145976173	3
5	641	1432.109599366781	1
5	644	1435.424498503776	1
5	646	1435.451453764455	2
5	650	1436.34740156385	1
5	659	1470.537153083715	1
5	665	1494.538245268396	1
5	670	1520.42257571502	1
5	674	1533.240568147096	2
5	677	1537.392676850934	3
5	685	1552.745797621676	1
5	690	1564.909420616986	2
5	692	1566.697454731817	3
5	694	1571.139574914787	4
5	704	1591.272968515485	1
5	707	1595.182544280602	1
5	709	1596.777140918567	2
5	713	1617.910615571711	1
5	716	1622.429547964932	1
5	723	1629.439667213029	1
5	737	1676.568257126997	1
5	740	1680.26691701325	1
5	743	1681.635368076538	1
5	750	1685.2420606866	2
5	760	1693.214085867151	3
5	762	1693.850338585547	4
5	767	1705.365906575477	4
5	776	1727.738594423032	1
5	779	1737.523578243873	1
5	788	1776.48107159176	1
5	791	1781.898375840307	1
5	793	1783.251380516264	2
5	796	1783.408564707176	2
5	799	1787.876282173172	2
5	803	1792.56691716898	1
5	808	1802.089588050119	1
5	815	1812.408404696471	1
5	818	1820.014028729581	1
5	820	1820.596842822519	2
5	824	1824.037007746774	1
5	827	1843.87114111351	1
5	830	1853.396838359014	1
5	833	1858.475513299252	1
5	844	1876.886942893869	1
5	848	1886.063619410735	1
5	851	1888.644437598973	1
5	853	1888.850596083817	2
5	862	1893.65186083956	2
5	866	1902.201910201055	3
5	868	1904.594850998163	4
5	872	1907.186420434709	5
5	882	1911.280504890157	6
5	885	1918.455621373657	7
5	890	1922.630736722385	7
5	894	1931.007132665202	8
5	898	1932.733605221341	8
5	901	1939.881984605495	8
5	909	1954.337475071124	6
5	917	1961.404136305048	1
5	920	1967.826872257726	1
5	924	1973.977769645519	2
5	929	1980.79880086202	1
5	932	1988.646059310834	1
5	934	1990.289519978881	2
5	938	1998.882624034751	1
5	944	2010.24701442697	1
5	946	2010.606594549351	2
5	950	2028.407657464782	1
5	953	2030.619084909051	1
5	958	2046.884535755182	1
5	960	2049.934755867752	2
5	962	2053.073870204826	3
5	964	2063.536240371679	4
5	966	2068.179391804684	5
5	978	2106.24467890276	1
5	980	2111.67201245948	2
5	985	2124.276576918475	3
5	987	2126.00628669928	4
5	994	2137.727488543402	5
5	1000	2145.095894681443	2
5	1006	2151.587321290818	1
5	1010	2157.587890184407	1
5	1013	2167.761515143486	1
5	1018	2181.83866788825	1
5	1020	2182.998930779226	2
5	1028	2191.379152475978	1
5	1031	2207.518507673308	1
5	1037	2218.373340417633	1
5	1043	2262.688833919648	1
5	1045	2266.771277960554	2
5	1051	2268.14123197056	1
5	1055	2274.229981918126	1
5	1061	2295.928009914854	1
5	1064	2299.367600235415	1
5	1067	2300.503154335507	1
5	1069	2301.724759587071	2
5	1071	2301.953157066354	3
5	1079	2314.502394381873	1
5	1082	2315.683588688348	1
5	1085	2339.842619891371	1
5	1087	2342.657497307074	2
5	1091	2344.823868400702	1
5	1094	2364.105097919066	1
5	1101	2391.771816139766	1
5	1103	2391.87833102605	2
5	1107	2397.644739807356	3
5	1109	2398.975566228828	4
5	1111	2399.368096068654	5
5	1113	2402.805214477881	6
5	1116	2409.673769388734	6
5	1120	2417.435661793298	5
5	1131	2436.107939185418	1
5	1135	2437.320281692505	2
5	1137	2440.299984748182	3
5	1142	2455.702516081559	4
5	1148	2465.779298357275	1
5	1153	2468.035048194316	1
5	1160	2480.2962639258	1
5	1163	2486.133993132066	1
5	1166	2488.977018924844	1
6	161	361.587814466951	3
6	167	370.517362617564	4
6	171	381.15031939228	5
6	174	383.000106765623	6
6	176	385.205731859589	7
6	180	387.231673826958	8
6	184	391.467645020652	9
6	187	391.790327657756	10
6	188	392.330958151352	10
6	189	392.543872096595	9
6	190	393.814177716447	8
6	191	397.193593901544	7
6	192	397.593145621442	6
6	193	399.464085781779	5
6	195	400.240274676465	5
6	196	400.245744442292	5
6	201	402.849031992676	5
6	202	403.423966131365	5
6	203	405.879833359874	4
6	204	407.388306877554	3
6	206	408.277538686361	3
6	215	415.825879056699	4
6	224	463.534624395306	4
6	225	464.822310011635	3
6	226	464.953534273359	2
6	227	465.602157657745	1
6	229	468.003348668458	1
6	233	469.163074010598	1
6	234	469.526512426817	0
6	239	479.777162500302	0
6	240	482.044520945324	0
6	247	497.643032871097	0
6	249	501.06747342256	1
6	254	523.572059087591	1
6	255	523.587052857221	0
6	257	529.720340730688	0
6	259	530.664543745399	1
6	260	530.667152641843	1
6	261	532.928940457285	0
6	272	564.630861679177	0
6	273	564.63325068451	0
6	284	607.060157196228	0
6	285	608.192596023958	0
6	287	608.817100002223	0
6	288	610.47725713337	0
6	290	623.652681534036	0
6	291	624.633637264601	0
6	293	626.268215411257	0
6	294	626.330316422648	0
6	296	634.226339513972	0
6	297	635.043618406738	0
6	299	641.269760757948	0
6	301	642.992641513097	1
6	308	649.251260264539	2
6	310	650.771068834134	2
6	311	651.97727175204	1
6	312	653.302647538329	0
6	314	663.131940718352	0
6	316	670.373604627643	1
6	317	671.926809220664	1
6	318	672.743203062492	0
6	320	677.811581296454	0
6	321	679.325521185853	0
6	323	681.325147848155	0
6	324	683.581071084971	0
6	326	697.713954861291	0
6	327	699.995551291184	0
6	329	705.670589228675	0
6	330	705.943424216405	0
6	332	718.278332535994	0
6	333	719.270649079201	0
6	340	739.370792297982	0
6	342	739.531013032072	1
6	344	741.885813294221	2
6	346	749.08452382733	3
6	348	755.707301090235	4
6	350	766.887371715564	5
6	352	771.194698551765	5
6	353	771.442553745133	4
6	355	771.70993267628	4
6	356	774.120251170266	4
6	357	776.57695791163	3
6	358	776.96521803768	2
6	359	778.032779175924	1
6	360	779.325582194472	0
6	362	783.247208959	0
6	363	784.464942481525	0
6	365	793.563616539954	0
6	366	794.789727074862	0
6	368	800.22497064418	0
6	369	801.031762760738	0
6	374	814.985995901723	0
6	375	815.332727632628	0
6	377	876.737061601873	0
6	378	876.933865052693	0
6	380	880.263351200228	0
6	381	880.338498500315	0
6	383	884.715060646702	0
6	396	893.057995720692	1
6	398	897.621565833426	2
6	400	904.687267680435	3
6	402	906.148189442126	4
6	406	919.461424773194	5
6	410	923.468924505841	6
6	414	933.372035396762	7
6	416	935.239130551037	8
6	421	940.94326318139	8
6	422	940.965955316438	7
6	423	944.243615749393	6
6	424	945.420808661009	5
6	425	945.850934253919	4
6	427	947.361177466021	4
6	428	948.444924014369	4
6	429	949.69600757538	3
6	430	951.38264668879	2
6	431	951.806355517185	1
6	435	964.435163060247	0
6	437	965.713394902006	0
6	438	965.871225189396	0
6	440	969.144301495477	0
6	441	971.199506612343	0
6	443	978.446267412114	0
6	444	978.511288408741	0
6	446	979.290949837497	0
6	447	979.415374046668	0
6	449	985.367248631966	0
6	450	985.698072612832	0
6	452	991.916379502635	0
6	453	993.295676501759	0
6	459	1004.036309392494	0
6	461	1007.313294854891	1
6	464	1012.381874389765	1
6	465	1014.173876809307	0
6	475	1055.253222836611	0
6	477	1057.592730877378	0
6	479	1064.332896723178	0
6	486	1074.458734162069	1
6	490	1084.73509076389	2
6	492	1084.920010614221	3
6	494	1085.344176726577	4
6	496	1086.847302578806	5
6	498	1090.993272535036	6
6	504	1094.79335737896	6
6	505	1100.033146059205	5
6	506	1100.5006965793	4
6	508	1101.359118887311	4
6	509	1102.082772002006	4
6	510	1102.212188765963	3
6	512	1102.726871690193	3
6	514	1102.773859650864	4
6	516	1102.808703067666	5
6	518	1103.558692577001	6
6	520	1105.49852764354	7
6	521	1109.052706634234	7
6	522	1110.007540387239	6
6	524	1113.898576141939	6
6	525	1114.559592770682	6
6	526	1115.006315384343	5
6	527	1115.998354325272	4
6	529	1118.218172902397	4
6	530	1119.016426011464	4
6	531	1119.968532922925	3
6	532	1122.145991631274	2
6	533	1124.25465274728	1
6	534	1126.138729080734	0
6	536	1129.286243436009	0
6	537	1133.165997262128	0
6	539	1149.330667512377	0
6	540	1150.718452926199	0
6	542	1168.132939327389	0
6	543	1169.303504059066	0
6	545	1177.257572825815	0
6	546	1178.058572033516	0
6	548	1180.200759868871	0
6	550	1180.363532954243	1
6	551	1181.722764583714	1
6	552	1182.951085004583	0
6	556	1193.696432415785	0
6	560	1198.036362909496	1
6	563	1217.443228109148	1
6	564	1221.739694400634	0
6	569	1256.80320130424	0
6	570	1258.423276096686	0
6	572	1262.57149398774	0
6	574	1262.817832895913	1
6	575	1263.4949534744	1
6	576	1263.766100765746	0
6	578	1264.443793757312	0
6	579	1265.610230338339	0
6	586	1316.827869198588	0
6	588	1316.836966825172	1
6	590	1317.891645213725	2
6	596	1325.964751757203	3
6	607	1341.896319704022	4
6	608	1342.893474833392	4
6	618	1354.124410150774	3
6	622	1356.195352688318	2
6	629	1378.260152843458	1
6	633	1390.713665924599	1
6	635	1391.491145976173	2
6	637	1397.352403318389	2
6	638	1399.419545851285	1
6	639	1402.355644512964	0
6	641	1432.109599366781	0
6	642	1433.044472316116	0
6	644	1435.424498503776	0
6	646	1435.451453764455	1
6	647	1436.172286112712	1
6	648	1436.230502959935	0
6	650	1436.34740156385	0
6	651	1443.996846223344	0
6	659	1470.537153083715	0
6	663	1483.601509911691	0
6	665	1494.538245268396	0
6	666	1495.198806970005	0
6	670	1520.42257571502	0
6	674	1533.240568147096	1
6	677	1537.392676850934	2
6	679	1542.580045144229	2
6	680	1544.820597716649	1
6	681	1548.362567741873	0
6	685	1552.745797621676	0
6	690	1564.909420616986	1
6	692	1566.697454731817	2
6	694	1571.139574914787	3
6	696	1572.903890274995	3
6	700	1583.835111704726	2
6	701	1584.435925417388	1
6	702	1585.722008897658	0
6	704	1591.272968515485	0
6	705	1593.012825490062	0
6	707	1595.182544280602	0
6	709	1596.777140918567	1
6	710	1598.258491892343	1
6	711	1600.04941588496	0
6	713	1617.910615571711	0
6	714	1619.456680590108	0
6	716	1622.429547964932	0
6	717	1622.549436995865	0
6	723	1629.439667213029	0
6	732	1657.818942503015	0
6	737	1676.568257126997	0
6	738	1677.660609283418	0
6	740	1680.26691701325	0
6	741	1680.95489397835	0
6	743	1681.635368076538	0
6	750	1685.2420606866	1
6	760	1693.214085867151	2
6	762	1693.850338585547	3
6	765	1703.931051910673	3
6	767	1705.365906575477	3
6	768	1706.479567974682	3
6	769	1706.523449958769	2
6	770	1709.640918757668	1
6	771	1712.010801421869	0
6	776	1727.738594423032	0
6	777	1728.48465919934	0
6	779	1737.523578243873	0
6	780	1738.12439698343	0
6	788	1776.48107159176	0
6	789	1777.692359265298	0
6	791	1781.898375840307	0
6	793	1783.251380516264	1
6	794	1783.360642273234	1
6	796	1783.408564707176	1
6	797	1786.675952712531	1
6	799	1787.876282173172	1
6	800	1788.261958034516	1
6	801	1788.570410188896	0
6	803	1792.56691716898	0
6	804	1793.471687374569	0
6	808	1802.089588050119	0
6	813	1812.391173459317	0
6	815	1812.408404696471	0
6	816	1813.438145936899	0
6	818	1820.014028729581	0
6	820	1820.596842822519	1
6	821	1821.401718470402	1
6	822	1821.539463571406	0
6	824	1824.037007746774	0
6	825	1824.101239581503	0
6	827	1843.87114111351	0
6	828	1844.391557191305	0
6	830	1853.396838359014	0
6	831	1858.310979473588	0
6	833	1858.475513299252	0
6	834	1858.477530190594	0
6	844	1876.886942893869	0
6	846	1882.41654160163	0
6	848	1886.063619410735	0
6	849	1886.497625848847	0
6	851	1888.644437598973	0
6	853	1888.850596083817	1
6	857	1890.739033477602	1
6	862	1893.65186083956	1
6	866	1902.201910201055	2
6	868	1904.594850998163	3
6	872	1907.186420434709	4
6	882	1911.280504890157	5
6	885	1918.455621373657	6
6	888	1921.522061293295	6
6	890	1922.630736722385	6
6	894	1931.007132665202	7
6	896	1932.612830055026	7
6	898	1932.733605221341	7
6	899	1937.565916361572	7
6	901	1939.881984605495	7
6	905	1948.199601831619	7
6	906	1950.737201949476	6
6	907	1950.752064157007	5
6	909	1954.337475071124	5
6	910	1956.810654331998	5
6	911	1958.733453904053	4
6	912	1959.282543400029	3
6	913	1959.89948066417	2
6	914	1960.205393099221	1
6	915	1960.948942287843	0
6	917	1961.404136305048	0
6	918	1963.650693633151	0
6	920	1967.826872257726	0
6	924	1973.977769645519	1
6	926	1976.556763597594	1
6	927	1976.976330987521	0
6	929	1980.79880086202	0
6	930	1981.087753957158	0
6	932	1988.646059310834	0
6	934	1990.289519978881	1
6	935	1991.222653374116	1
6	936	1995.419371032598	0
6	938	1998.882624034751	0
6	939	2000.804619573892	0
6	944	2010.24701442697	0
6	946	2010.606594549351	1
6	947	2013.828295215838	1
6	948	2015.69000647245	0
6	950	2028.407657464782	0
6	951	2028.530492373756	0
6	953	2030.619084909051	0
6	954	2032.967007933434	0
6	958	2046.884535755182	0
6	960	2049.934755867752	1
6	962	2053.073870204826	2
6	964	2063.536240371679	3
6	966	2068.179391804684	4
6	968	2072.757463320045	4
6	969	2074.312049402855	3
6	970	2075.335002538803	2
6	971	2077.090635629478	1
6	972	2081.481177458404	0
6	978	2106.24467890276	0
6	980	2111.67201245948	1
6	985	2124.276576918475	2
6	987	2126.00628669928	3
6	994	2137.727488543402	4
6	995	2139.004461475396	4
6	996	2139.864611516774	3
6	997	2140.597522275174	2
6	998	2143.413953055276	1
6	1000	2145.095894681443	1
6	1001	2147.339239380606	1
6	1002	2147.917641032335	0
6	1006	2151.587321290818	0
6	1008	2156.495400654187	0
6	1010	2157.587890184407	0
6	1011	2159.85750494496	0
6	1013	2167.761515143486	0
6	1014	2171.498930793546	0
6	1018	2181.83866788825	0
6	1020	2182.998930779226	1
6	1022	2184.672370447158	1
6	1023	2186.340797284432	0
6	1028	2191.379152475978	0
6	1029	2192.409294926678	0
6	1031	2207.518507673308	0
6	1032	2208.036593937147	0
6	1037	2218.373340417633	0
6	1038	2223.671807397903	0
6	1043	2262.688833919648	0
6	1045	2266.771277960554	1
6	1046	2267.112867904173	1
6	1047	2267.391295000336	0
6	1051	2268.14123197056	0
6	1053	2270.533914377338	0
6	1055	2274.229981918126	0
6	1056	2276.257138145137	0
6	1061	2295.928009914854	0
6	1062	2296.068387238717	0
6	1064	2299.367600235415	0
6	1065	2299.497771858339	0
6	1067	2300.503154335507	0
6	1069	2301.724759587071	1
6	1071	2301.953157066354	2
6	1075	2305.974571978369	2
6	1076	2310.522421592031	1
6	1077	2312.246330694311	0
6	1079	2314.502394381873	0
6	1080	2314.95443342703	0
6	1082	2315.683588688348	0
6	1083	2316.773621500434	0
6	1085	2339.842619891371	0
6	1087	2342.657497307074	1
6	1088	2342.97934385804	1
6	1089	2344.585664512099	0
6	1091	2344.823868400702	0
6	1092	2346.439746165589	0
6	1094	2364.105097919066	0
6	1095	2366.047520943253	0
6	1101	2391.771816139766	0
6	1103	2391.87833102605	1
6	1107	2397.644739807356	2
6	1109	2398.975566228828	3
6	1111	2399.368096068654	4
6	1113	2402.805214477881	5
6	1114	2404.664660475903	5
6	1116	2409.673769388734	5
6	1117	2411.573081536654	5
6	1118	2415.831661920177	4
6	1120	2417.435661793298	4
6	1121	2418.022502495808	4
6	1122	2419.267838629246	3
6	1123	2420.452150676393	2
6	1124	2422.237495667296	1
6	1125	2422.745869010456	0
6	1131	2436.107939185418	0
6	1135	2437.320281692505	1
6	1137	2440.299984748182	2
6	1142	2455.702516081559	3
6	1143	2456.688128185324	3
6	1144	2461.025605925914	2
6	1145	2462.249119733871	1
6	1146	2462.856838337339	0
6	1148	2465.779298357275	0
6	1149	2465.8454440556	0
6	1153	2468.035048194316	0
6	1155	2468.840651791589	0
6	1160	2480.2962639258	0
6	1161	2481.323361364907	0
6	1163	2486.133993132066	0
6	1164	2488.374827125667	0
6	1166	2488.977018924844	0
6	1170	2497.512844041099	0
7	185	391.534492804942	70.090984978148
7	188	392.330958151352	67.470708319889
7	189	392.543872096595	52.736057921781
7	190	393.814177716447	32.226363249496
7	191	397.193593901544	26.67623128398
7	192	397.593145621442	16.442826229162
7	193	399.464085781779	16.463979016156
7	196	400.245744442292	15.040012582703
7	199	402.210371515389	14.978697688431
7	202	403.423966131365	11.956321110713
7	203	405.879833359874	14.089505702118
7	204	407.388306877554	7.148032201089
7	220	446.519922794743	45.360542649242
7	223	462.841088755635	59.992056762959
7	224	463.534624395306	55.257085708945
7	225	464.822310011635	56.241337998543
7	226	464.953534273359	49.12765521666
7	227	465.602157657745	18.827130462854
7	232	469.037318171489	1.033969503031
7	233	469.163074010598	0.712929914878
7	239	479.777162500302	0
7	250	512.800950206638	15.157917335541
7	253	523.040325683151	21.972852260591
7	254	523.572059087591	9.15161403371
7	257	529.720340730688	0
7	260	530.667152641843	0.002608896444
7	272	564.630861679177	0
7	284	607.060157196228	0
7	287	608.817100002223	0
7	290	623.652681534036	0
7	293	626.268215411257	0
7	296	634.226339513972	0
7	299	641.269760757948	0
7	309	649.331174104669	6.338532591572
7	310	650.771068834134	7.645143457277
7	311	651.97727175204	2.726011487501
7	314	663.131940718352	0
7	317	671.926809220664	1.553204593021
7	320	677.811581296454	0
7	323	681.325147848155	0
7	326	697.713954861291	0
7	329	705.670589228675	0
7	332	718.278332535994	0
7	351	770.652245674869	31.281453376887
7	352	771.194698551765	31.663685519693
7	353	771.442553745133	29.556740450912
7	356	774.120251170266	25.035727342936
7	357	776.57695791163	20.869656821395
7	358	776.96521803768	10.077846322116
7	359	778.032779175924	6.322846499644
7	362	783.247208959	0
7	365	793.563616539954	0
7	368	800.22497064418	0
7	374	814.985995901723	0
7	377	876.737061601873	0
7	380	880.263351200228	0
7	383	884.715060646702	0
7	420	939.749658524771	54.841931276908
7	421	940.94326318139	47.885267460698
7	422	940.965955316438	43.344389483012
7	423	944.243615749393	39.556348068958
7	424	945.420808661009	39.272619218883
7	425	945.850934253919	26.389509480725
7	428	948.444924014369	24.975999508528
7	429	949.69600757538	16.323972178618
7	430	951.38264668879	16.143516137753
7	431	951.806355517185	4.445178051164
7	434	958.253493975273	2.74178780059
7	437	965.713394902006	0
7	440	969.144301495477	0
7	443	978.446267412114	0
7	446	979.290949837497	0
7	449	985.367248631966	0
7	452	991.916379502635	0
7	463	1011.787508212368	7.751198819874
7	464	1012.381874389765	5.068579534874
7	476	1057.448935773852	2.195712937241
7	479	1064.332896723178	0
7	503	1094.059710948324	28.847053741959
7	504	1094.79335737896	20.334623216891
7	505	1100.033146059205	15.298055295315
7	506	1100.5006965793	15.580685965079
7	509	1102.082772002006	16.738595275429
7	510	1102.212188765963	15.364886187157
7	521	1109.052706634234	18.059434099198
7	522	1110.007540387239	8.648421499928
7	525	1114.559592770682	11.832721080489
7	526	1115.006315384343	12.232455733479
7	527	1115.998354325272	13.189651257606
7	530	1119.016426011464	15.457733434463
7	531	1119.968532922925	14.470005279385
7	532	1122.145991631274	8.247415489335
7	533	1124.25465274728	6.036479844883
7	536	1129.286243436009	0
7	539	1149.330667512377	0
7	542	1168.132939327389	0
7	545	1177.257572825815	0
7	548	1180.200759868871	0
7	551	1181.722764583714	1.359231629471
7	562	1217.087562222307	23.391129806522
7	563	1217.443228109148	19.406865199652
7	569	1256.80320130424	0
7	572	1262.57149398774	0
7	575	1263.4949534744	0.677120578487
7	578	1264.443793757312	0
7	602	1336.805790971205	19.977921772617
7	605	1340.679550337228	23.842583512056
7	608	1342.893474833392	25.001829619667
7	617	1352.253640468724	26.288888711521
7	618	1354.124410150774	15.33123836507
7	621	1355.477866739847	13.581547035825
7	622	1356.195352688318	12.249654633642
7	625	1369.826096427796	15.38137304257
7	628	1377.517041950187	13.734965947767
7	629	1378.260152843458	5.362377501403
7	636	1395.93037726704	15.190233141127
7	637	1397.352403318389	6.63873739379
7	638	1399.419545851285	7.928399875112
7	641	1432.109599366781	0
7	644	1435.424498503776	0
7	647	1436.172286112712	0.720832348257
7	650	1436.34740156385	0
7	659	1470.537153083715	0
7	662	1483.203606090854	10.235140861
7	665	1494.538245268396	0
7	678	1538.471460697433	18.048884982413
7	679	1542.580045144229	9.339476997133
7	680	1544.820597716649	7.427920865715
7	695	1571.768838057235	19.023040435559
7	696	1572.903890274995	7.994469658009
7	699	1582.797804624467	16.10034989265
7	700	1583.835111704726	12.695536789939
7	701	1584.435925417388	10.93338424531
7	704	1591.272968515485	0
7	707	1595.182544280602	0
7	710	1598.258491892343	1.481350973776
7	713	1617.910615571711	0
7	716	1622.429547964932	0
7	731	1657.642073174195	28.202405961166
7	737	1676.568257126997	0
7	740	1680.26691701325	0
7	743	1681.635368076538	0
7	746	1684.603040568596	1.063945954576
7	764	1703.085413504167	18.47446690826
7	765	1703.931051910673	18.688991224073
7	768	1706.479567974682	13.265482107531
7	769	1706.523449958769	12.673111373222
7	770	1709.640918757668	4.275012182191
7	776	1727.738594423032	0
7	779	1737.523578243873	0
7	788	1776.48107159176	0
7	791	1781.898375840307	0
7	794	1783.360642273234	0.10926175697
7	797	1786.675952712531	3.267388005355
7	800	1788.261958034516	0.385675861344
7	803	1792.56691716898	0
7	809	1802.251019727868	0.161431677749
7	812	1811.477898710267	8.402778864552
7	815	1812.408404696471	0
7	818	1820.014028729581	0
7	821	1821.401718470402	0.804875647883
7	824	1824.037007746774	0
7	827	1843.87114111351	0
7	830	1853.396838359014	0
7	833	1858.475513299252	0
7	845	1877.839091821627	0.952148927758
7	848	1886.063619410735	0
7	851	1888.644437598973	0
7	856	1890.497084654316	1.646488570499
7	857	1890.739033477602	0.339053948412
7	860	1893.229049258121	1.599671912591
7	887	1921.215373379006	27.563512539446
7	888	1921.522061293295	25.807523349179
7	895	1931.498317545448	29.296407344393
7	896	1932.612830055026	28.017979056863
7	899	1937.565916361572	30.379495926863
7	904	1945.678224774417	34.39771988426
7	905	1948.199601831619	29.743980457962
7	906	1950.737201949476	28.106465227091
7	907	1950.752064157007	22.123272001771
7	910	1956.810654331998	25.803521666796
7	911	1958.733453904053	25.999848682712
7	912	1959.282543400029	19.400558794534
7	913	1959.89948066417	19.633297449951
7	914	1960.205393099221	5.867918028097
7	917	1961.404136305048	0
7	920	1967.826872257726	0
7	925	1976.030923003605	6.353544882907
7	926	1976.556763597594	2.578993952075
7	929	1980.79880086202	0
7	932	1988.646059310834	0
7	935	1991.222653374116	0.933133395235
7	938	1998.882624034751	0
7	944	2010.24701442697	0
7	947	2013.828295215838	3.221700666487
7	950	2028.407657464782	0
7	953	2030.619084909051	0
7	967	2071.410223150773	24.525687395591
7	968	2072.757463320045	22.822707452293
7	969	2074.312049402855	21.238179198029
7	970	2075.335002538803	11.798762167124
7	971	2077.090635629478	8.911243824794
7	992	2137.15094221361	30.90626331085
7	995	2139.004461475396	27.332449015916
7	996	2139.864611516774	15.588034598299
7	997	2140.597522275174	14.591235575894
7	998	2143.413953055276	5.686464511874
7	1001	2147.339239380606	2.243344699163
7	1007	2156.356388258299	4.769066967481
7	1010	2157.587890184407	0
7	1013	2167.761515143486	0
7	1021	2184.620196943336	2.781529055086
7	1022	2184.672370447158	1.673439667932
7	1028	2191.379152475978	0
7	1031	2207.518507673308	0
7	1037	2218.373340417633	0
7	1043	2262.688833919648	0
7	1046	2267.112867904173	0.341589943619
7	1052	2268.805706498484	0.664474527924
7	1055	2274.229981918126	0
7	1061	2295.928009914854	0
7	1064	2299.367600235415	0
7	1067	2300.503154335507	0
7	1074	2305.018943597468	3.294184010397
7	1075	2305.974571978369	4.021414912015
7	1076	2310.522421592031	7.506321339421
7	1079	2314.502394381873	0
7	1082	2315.683588688348	0
7	1085	2339.842619891371	0
7	1088	2342.97934385804	0.321846550966
7	1091	2344.823868400702	0
7	1094	2364.105097919066	0
7	1105	2395.771309575194	3.999493435428
7	1114	2404.664660475903	12.786329449853
7	1117	2411.573081536654	13.928341729298
7	1118	2415.831661920177	16.856095691349
7	1121	2418.022502495808	18.654406427154
7	1122	2419.267838629246	16.462624151365
7	1123	2420.452150676393	10.778381287659
7	1124	2422.237495667296	4.801833873998
7	1140	2453.783341430192	17.675402244774
7	1143	2456.688128185324	19.367846492819
7	1144	2461.025605925914	20.725621177732
7	1145	2462.249119733871	6.546603652312
7	1148	2465.779298357275	0
7	1154	2468.650933805032	0.615885610716
7	1160	2480.2962639258	0
7	1163	2486.133993132066	0
7	1166	2488.977018924844	0
7	1169	2493.103311790017	3.376591161958
8	188	392.330958151352	31
8	189	392.543872096595	32
8	190	393.814177716447	33
8	191	397.193593901544	34
8	192	397.593145621442	35
8	193	399.464085781779	36
8	196	400.245744442292	37
8	202	403.423966131365	38
8	203	405.879833359874	39
8	204	407.388306877554	40
8	224	463.534624395306	41
8	225	464.822310011635	42
8	226	464.953534273359	43
8	227	465.602157657745	44
8	233	469.163074010598	45
8	234	469.526512426817	46
8	240	482.044520945324	47
8	254	523.572059087591	48
8	255	523.587052857221	49
8	260	530.667152641843	50
8	261	532.928940457285	51
8	273	564.63325068451	52
8	285	608.192596023958	53
8	288	610.47725713337	54
8	291	624.633637264601	55
8	294	626.330316422648	56
8	297	635.043618406738	57
8	310	650.771068834134	58
8	311	651.97727175204	59
8	312	653.302647538329	60
8	317	671.926809220664	61
8	318	672.743203062492	62
8	321	679.325521185853	63
8	324	683.581071084971	64
8	327	699.995551291184	65
8	330	705.943424216405	66
8	333	719.270649079201	67
8	352	771.194698551765	68
8	353	771.442553745133	69
8	356	774.120251170266	70
8	357	776.57695791163	71
8	358	776.96521803768	72
8	359	778.032779175924	73
8	360	779.325582194472	74
8	363	784.464942481525	75
8	366	794.789727074862	76
8	369	801.031762760738	77
8	375	815.332727632628	78
8	378	876.933865052693	79
8	381	880.338498500315	80
8	421	940.94326318139	81
8	422	940.965955316438	82
8	423	944.243615749393	83
8	424	945.420808661009	84
8	425	945.850934253919	85
8	428	948.444924014369	86
8	429	949.69600757538	87
8	430	951.38264668879	88
8	431	951.806355517185	89
8	435	964.435163060247	90
8	438	965.871225189396	91
8	441	971.199506612343	92
8	444	978.511288408741	93
8	447	979.415374046668	94
8	450	985.698072612832	95
8	453	993.295676501759	96
8	464	1012.381874389765	97
8	465	1014.173876809307	98
8	477	1057.592730877378	99
8	504	1094.79335737896	100
8	505	1100.033146059205	101
8	506	1100.5006965793	102
8	509	1102.082772002006	103
8	510	1102.212188765963	104
8	521	1109.052706634234	105
8	522	1110.007540387239	106
8	525	1114.559592770682	107
8	526	1115.006315384343	108
8	527	1115.998354325272	109
8	530	1119.016426011464	110
8	531	1119.968532922925	111
8	532	1122.145991631274	112
8	533	1124.25465274728	113
8	534	1126.138729080734	114
8	537	1133.165997262128	115
8	540	1150.718452926199	116
8	543	1169.303504059066	117
8	546	1178.058572033516	118
8	551	1181.722764583714	119
8	552	1182.951085004583	120
8	563	1217.443228109148	121
8	564	1221.739694400634	122
8	570	1258.423276096686	123
8	575	1263.4949534744	124
8	576	1263.766100765746	125
8	579	1265.610230338339	126
8	608	1342.893474833392	127
8	618	1354.124410150774	128
8	622	1356.195352688318	129
8	629	1378.260152843458	130
8	637	1397.352403318389	131
8	638	1399.419545851285	132
8	639	1402.355644512964	133
8	642	1433.044472316116	134
8	647	1436.172286112712	135
8	648	1436.230502959935	136
8	651	1443.996846223344	137
8	663	1483.601509911691	138
8	666	1495.198806970005	139
8	679	1542.580045144229	140
8	680	1544.820597716649	141
8	681	1548.362567741873	142
8	696	1572.903890274995	143
8	700	1583.835111704726	144
8	701	1584.435925417388	145
8	702	1585.722008897658	146
8	705	1593.012825490062	147
8	710	1598.258491892343	148
8	711	1600.04941588496	149
8	714	1619.456680590108	150
8	717	1622.549436995865	151
8	732	1657.818942503015	152
8	738	1677.660609283418	153
8	741	1680.95489397835	154
8	765	1703.931051910673	155
8	768	1706.479567974682	156
8	769	1706.523449958769	157
8	770	1709.640918757668	158
8	771	1712.010801421869	159
8	777	1728.48465919934	160
8	780	1738.12439698343	161
8	789	1777.692359265298	162
8	794	1783.360642273234	163
8	797	1786.675952712531	164
8	800	1788.261958034516	165
8	801	1788.570410188896	166
8	804	1793.471687374569	167
8	813	1812.391173459317	168
8	816	1813.438145936899	169
8	821	1821.401718470402	170
8	822	1821.539463571406	171
8	825	1824.101239581503	172
8	828	1844.391557191305	173
8	831	1858.310979473588	174
8	834	1858.477530190594	175
8	846	1882.41654160163	176
8	849	1886.497625848847	177
8	857	1890.739033477602	178
8	888	1921.522061293295	179
8	896	1932.612830055026	180
8	899	1937.565916361572	181
8	905	1948.199601831619	182
8	906	1950.737201949476	183
8	907	1950.752064157007	184
8	910	1956.810654331998	185
8	911	1958.733453904053	186
8	912	1959.282543400029	187
8	913	1959.89948066417	188
8	914	1960.205393099221	189
8	915	1960.948942287843	190
8	918	1963.650693633151	191
8	926	1976.556763597594	192
8	927	1976.976330987521	193
8	930	1981.087753957158	194
8	935	1991.222653374116	195
8	936	1995.419371032598	196
8	939	2000.804619573892	197
8	947	2013.828295215838	198
8	948	2015.69000647245	199
8	951	2028.530492373756	200
8	954	2032.967007933434	201
8	968	2072.757463320045	202
8	969	2074.312049402855	203
8	970	2075.335002538803	204
8	971	2077.090635629478	205
8	972	2081.481177458404	206
8	995	2139.004461475396	207
8	996	2139.864611516774	208
8	997	2140.597522275174	209
8	998	2143.413953055276	210
8	1001	2147.339239380606	211
8	1002	2147.917641032335	212
8	1008	2156.495400654187	213
8	1011	2159.85750494496	214
8	1014	2171.498930793546	215
8	1022	2184.672370447158	216
8	1023	2186.340797284432	217
8	1029	2192.409294926678	218
8	1032	2208.036593937147	219
8	1038	2223.671807397903	220
8	1046	2267.112867904173	221
8	1047	2267.391295000336	222
8	1053	2270.533914377338	223
8	1056	2276.257138145137	224
8	1062	2296.068387238717	225
8	1065	2299.497771858339	226
8	1075	2305.974571978369	227
8	1076	2310.522421592031	228
8	1077	2312.246330694311	229
8	1080	2314.95443342703	230
8	1083	2316.773621500434	231
8	1088	2342.97934385804	232
8	1089	2344.585664512099	233
8	1092	2346.439746165589	234
8	1095	2366.047520943253	235
8	1114	2404.664660475903	236
8	1117	2411.573081536654	237
8	1118	2415.831661920177	238
8	1121	2418.022502495808	239
8	1122	2419.267838629246	240
8	1123	2420.452150676393	241
8	1124	2422.237495667296	242
8	1125	2422.745869010456	243
8	1143	2456.688128185324	244
8	1144	2461.025605925914	245
8	1145	2462.249119733871	246
8	1146	2462.856838337339	247
8	1149	2465.8454440556	248
8	1155	2468.840651791589	249
8	1161	2481.323361364907	250
8	1164	2488.374827125667	251
8	1170	2497.512844041099	252
9	188	392.330958151352	70.887450324558
9	189	392.543872096595	67.683622265132
9	190	393.814177716447	54.006363541633
9	191	397.193593901544	35.605779434593
9	192	397.593145621442	27.075783003878
9	193	399.464085781779	18.313766389499
9	196	400.245744442292	17.245637676669
9	202	403.423966131365	16.192292304407
9	203	405.879833359874	14.412188339222
9	204	407.388306877554	15.597979219798
9	224	463.534624395306	60.68559240263
9	225	464.822310011635	56.544771325274
9	226	464.953534273359	56.372562260267
9	227	465.602157657745	49.776278601046
9	233	469.163074010598	1.15972534214
9	234	469.526512426817	1.076368331097
9	240	482.044520945324	2.267358445022
9	254	523.572059087591	22.504585665031
9	255	523.587052857221	9.16660780334
9	260	530.667152641843	0.946811911155
9	261	532.928940457285	2.264396711886
9	273	564.63325068451	0.002389005333
9	285	608.192596023958	1.13243882773
9	288	610.47725713337	1.660157131147
9	291	624.633637264601	0.980955730565
9	294	626.330316422648	0.062101011391
9	297	635.043618406738	0.817278892766
9	310	650.771068834134	7.778427321037
9	311	651.97727175204	8.851346375183
9	312	653.302647538329	4.05138727379
9	317	671.926809220664	8.794868502312
9	318	672.743203062492	2.369598434849
9	321	679.325521185853	1.513939889399
9	324	683.581071084971	2.255923236816
9	327	699.995551291184	2.281596429893
9	330	705.943424216405	0.27283498773
9	333	719.270649079201	0.992316543207
9	352	771.194698551765	31.823906253783
9	353	771.442553745133	31.911540713061
9	356	774.120251170266	32.234437876045
9	357	776.57695791163	27.4924340843
9	358	776.96521803768	21.257916947445
9	359	778.032779175924	11.14540746036
9	360	779.325582194472	7.615649518192
9	363	784.464942481525	1.217733522525
9	366	794.789727074862	1.226110534908
9	369	801.031762760738	0.806792116558
9	375	815.332727632628	0.346731730905
9	378	876.933865052693	0.19680345082
9	381	880.338498500315	0.075147300087
9	421	940.94326318139	56.035535933527
9	422	940.965955316438	47.907959595746
9	423	944.243615749393	46.622049915967
9	424	945.420808661009	40.733540980574
9	425	945.850934253919	39.702744811793
9	428	948.444924014369	28.983499241175
9	429	949.69600757538	26.227083069539
9	430	951.38264668879	18.010611292028
9	431	951.806355517185	16.567224966148
9	435	964.435163060247	8.923456885564
9	438	965.871225189396	0.15783028739
9	441	971.199506612343	2.055205116866
9	444	978.511288408741	0.065020996627
9	447	979.415374046668	0.124424209171
9	450	985.698072612832	0.330823980866
9	453	993.295676501759	1.379296999124
9	464	1012.381874389765	8.345564997271
9	465	1014.173876809307	6.860581954416
9	477	1057.592730877378	2.339508040767
9	504	1094.79335737896	29.580700172595
9	505	1100.033146059205	25.574411897136
9	506	1100.5006965793	15.76560581541
9	509	1102.082772002006	17.162761387785
9	510	1102.212188765963	16.868012039386
9	521	1109.052706634234	22.205404055428
9	522	1110.007540387239	19.014267852203
9	525	1114.559592770682	13.200473883371
9	526	1115.006315384343	12.27944369415
9	527	1115.998354325272	13.224494674408
9	530	1119.016426011464	16.207722943798
9	531	1119.968532922925	16.409840345924
9	532	1122.145991631274	16.647463987734
9	533	1124.25465274728	10.356076605341
9	534	1126.138729080734	7.920556178337
9	537	1133.165997262128	3.879753826119
9	540	1150.718452926199	1.387785413822
9	543	1169.303504059066	1.170564731677
9	546	1178.058572033516	0.800999207701
9	551	1181.722764583714	1.522004714843
9	552	1182.951085004583	2.58755205034
9	563	1217.443228109148	23.746795693363
9	564	1221.739694400634	23.703331491138
9	570	1258.423276096686	1.620074792446
9	575	1263.4949534744	0.92345948666
9	576	1263.766100765746	0.948267869833
9	579	1265.610230338339	1.166436581027
9	608	1342.893474833392	26.05650800822
9	618	1354.124410150774	28.159658393571
9	622	1356.195352688318	14.299032984296
9	629	1378.260152843458	14.478076841038
9	637	1397.352403318389	16.612259192476
9	638	1399.419545851285	8.705879926686
9	639	1402.355644512964	10.864498536791
9	642	1433.044472316116	0.934872949335
9	647	1436.172286112712	0.747787608936
9	648	1436.230502959935	0.77904919548
9	651	1443.996846223344	7.649444659494
9	663	1483.601509911691	10.633044681837
9	666	1495.198806970005	0.660561701609
9	679	1542.580045144229	22.157469429209
9	680	1544.820597716649	11.580029569553
9	681	1548.362567741873	10.969890890939
9	696	1572.903890274995	20.158092653319
9	700	1583.835111704726	17.137656972909
9	701	1584.435925417388	13.296350502601
9	702	1585.722008897658	12.21946772558
9	705	1593.012825490062	1.739856974577
9	710	1598.258491892343	3.075947611741
9	711	1600.04941588496	3.272274966393
9	714	1619.456680590108	1.546065018397
9	717	1622.549436995865	0.119889030933
9	732	1657.818942503015	28.379275289986
9	738	1677.660609283418	1.092352156421
9	741	1680.95489397835	0.6879769651
9	765	1703.931051910673	19.320105314766
9	768	1706.479567974682	21.237507288082
9	769	1706.523449958769	13.309364091618
9	770	1709.640918757668	15.790580172121
9	771	1712.010801421869	6.644894846392
9	777	1728.48465919934	0.746064776308
9	780	1738.12439698343	0.600818739557
9	789	1777.692359265298	1.211287673538
9	794	1783.360642273234	1.462266432927
9	797	1786.675952712531	3.424572196267
9	800	1788.261958034516	4.85339332734
9	801	1788.570410188896	0.694128015724
9	804	1793.471687374569	0.904770205589
9	813	1812.391173459317	9.316053613602
9	816	1813.438145936899	1.029741240428
9	821	1821.401718470402	1.387689740821
9	822	1821.539463571406	0.942620748887
9	825	1824.101239581503	0.064231834729
9	828	1844.391557191305	0.520416077795
9	831	1858.310979473588	4.914141114574
9	834	1858.477530190594	0.002016891342
9	846	1882.41654160163	5.529598707761
9	849	1886.497625848847	0.434006438112
9	857	1890.739033477602	1.888437393785
9	888	1921.522061293295	27.870200453735
9	896	1932.612830055026	30.410919853971
9	899	1937.565916361572	32.971065363409
9	905	1948.199601831619	36.919096941462
9	906	1950.737201949476	32.281580575819
9	907	1950.752064157007	28.121327434622
9	910	1956.810654331998	28.181862176762
9	911	1958.733453904053	27.726321238851
9	912	1959.282543400029	26.548938178688
9	913	1959.89948066417	20.017496058675
9	914	1960.205393099221	19.939209885002
9	915	1960.948942287843	6.611467216719
9	918	1963.650693633151	2.246557328103
9	926	1976.556763597594	6.879385476896
9	927	1976.976330987521	2.998561342002
9	930	1981.087753957158	0.288953095138
9	935	1991.222653374116	2.576594063282
9	936	1995.419371032598	5.129851053717
9	939	2000.804619573892	1.921995539141
9	947	2013.828295215838	3.581280788868
9	948	2015.69000647245	5.083411923099
9	951	2028.530492373756	0.122834908974
9	954	2032.967007933434	2.347923024383
9	968	2072.757463320045	25.872927564863
9	969	2074.312049402855	24.377293535103
9	970	2075.335002538803	22.261132333977
9	971	2077.090635629478	13.554395257799
9	972	2081.481177458404	13.30178565372
9	995	2139.004461475396	32.759782572636
9	996	2139.864611516774	28.192599057294
9	997	2140.597522275174	16.320945356699
9	998	2143.413953055276	17.407666355996
9	1001	2147.339239380606	9.611750837204
9	1002	2147.917641032335	2.821746350892
9	1008	2156.495400654187	4.908079363369
9	1011	2159.85750494496	2.269614760553
9	1014	2171.498930793546	3.73741565006
9	1022	2184.672370447158	2.833702558908
9	1023	2186.340797284432	3.341866505206
9	1029	2192.409294926678	1.0301424507
9	1032	2208.036593937147	0.518086263839
9	1038	2223.671807397903	5.29846698027
9	1046	2267.112867904173	4.424033984525
9	1047	2267.391295000336	0.620017039782
9	1053	2270.533914377338	2.392682406778
9	1056	2276.257138145137	2.027156227011
9	1062	2296.068387238717	0.140377323863
9	1065	2299.497771858339	0.130171622924
9	1075	2305.974571978369	4.249812391298
9	1076	2310.522421592031	8.569264525677
9	1077	2312.246330694311	9.230230441701
9	1080	2314.95443342703	0.452039045157
9	1083	2316.773621500434	1.090032812086
9	1088	2342.97934385804	3.136723966669
9	1089	2344.585664512099	1.928167205025
9	1092	2346.439746165589	1.615877764887
9	1095	2366.047520943253	1.942423024187
9	1114	2404.664660475903	12.892844336137
9	1117	2411.573081536654	19.694750510604
9	1118	2415.831661920177	18.186922112821
9	1121	2418.022502495808	19.04693626698
9	1122	2419.267838629246	19.899742560592
9	1123	2420.452150676393	17.646936198512
9	1124	2422.237495667296	12.563726278562
9	1125	2422.745869010456	5.310207217158
9	1143	2456.688128185324	20.580188999906
9	1144	2461.025605925914	23.705324233409
9	1145	2462.249119733871	21.949134985689
9	1146	2462.856838337339	7.15432225578
9	1149	2465.8454440556	0.066145698325
9	1155	2468.840651791589	0.805603597273
9	1161	2481.323361364907	1.027097439107
9	1164	2488.374827125667	2.240833993601
9	1170	2497.512844041099	7.78612341304
10	198	401.159380145501	3
10	208	408.580972013092	4
10	222	446.775027194891	5
10	231	468.45014409572	6
10	252	514.420445053881	7
10	303	643.125925376857	8
10	385	884.907727247863	9
10	433	955.511706174683	10
10	481	1065.212657206365	11
10	604	1338.793171785704	12
10	610	1343.945698054676	13
10	620	1354.444723385226	14
10	624	1363.78207600242	15
10	627	1372.897775342055	16
10	631	1380.740144125913	17
10	661	1472.968465229854	18
10	698	1573.502541172078	19
10	745	1683.53909461402	20
10	748	1684.610946595907	21
10	811	1803.075119845715	22
10	855	1890.39997952919	23
10	859	1891.62937734553	24
10	864	1895.714537944116	25
10	892	1928.628792155236	26
10	903	1940.266183214219	27
10	922	1969.677378120698	28
10	1073	2303.01610025261	29
10	1168	2489.726720628059	30
11	1171	2500	0.1008
12	1171	2500	0.0552

