file 58220 1678273596                                           
version 2
run experiments_easy_game_mode1-1312-20230308-12:06:36-25345
attr configname experiments_easy_game_mode1
attr datetime 20230308-12:06:36
attr experiment experiments_easy_game_mode1
attr inifile omnetpp.ini
attr iterationvars "$0=6.5, $1=2.5, $2=100"
attr iterationvarsf 6.5,2.5,100-
attr measurement "$0=6.5, $1=2.5, $2=100"
attr network Network
attr processid 25345
attr repetition 22
attr replication #22
attr resultdir results
attr runnumber 1312
attr seedset 22
param *.boss.arrival_mean 20
param *.boss.service_mean 6.5
param *.minion.arrival_mean 10
param *.minion.service_mean 2.5
param *.player.recover_rate_x 100
param **.minion.arrival_distribution 0
param **.minion.service_distribution 0
param **.boss.arrival_distribution 0
param **.boss.service_distribution 0

vector 0 Network.player boss_jobs_number_stat:vector ETV
attr source signal_boss_jobs_number
vector 1 Network.player boss_jobs_queue_number_stat:vector ETV
attr source signal_boss_jobs_queue_number
vector 2 Network.player boss_waiting_time_stat:vector ETV
attr source signal_boss_waiting_time
vector 3 Network.player minion_jobs_number_stat:vector ETV
attr source signal_minion_jobs_number
vector 4 Network.player minion_jobs_queue_number_stat:vector ETV
attr source signal_minion_jobs_queue_number
vector 5 Network.player boss_defeated_stat:vector ETV
attr source signal_boss_defeated
vector 6 Network.player boss_response_time_stat:vector ETV
attr source signal_boss_response_time
vector 7 Network.player minion_waiting_time_stat:vector ETV
attr source signal_minion_waiting_time
vector 8 Network.player minion_defeated_stat:vector ETV
attr source signal_minion_defeated
vector 9 Network.player minion_response_time_stat:vector ETV
attr source signal_minion_response_time
vector 10 Network.player minion_recovered_stat:vector ETV
attr source signal_minion_recovered
vector 11 Network.player minion_throughput:vector ETV
attr source signal_minion_throughput
vector 12 Network.player boss_throughput:vector ETV
attr source signal_boss_throughput
0	2031 2455 149 1073 352.732720250375 2486.924382343612 96 1 3 118 168
1	4486 4915 149 1074 352.732720250375 2489.561266376125 192 0 2 44 56
2	9401 2707 149 1073 352.732720250375 2486.924382343612 96 0 14.482691365232 137.38111005536 1302.9123979699
3	12108 5499 153 1076 357.110273761727 2491.824172234539 214 1 7 395 1035
4	17607 10990 153 1077 357.110273761727 2492.883436602667 428 0 6 362 918
5	28597 2571 154 1074 359.149871666838 2489.561266376125 96 19 114 6384 498256
6	31168 3723 154 1074 359.149871666838 2489.561266376125 96 0.053259378827 31.620955915634 692.71753935065 9100.9402808365
7	34891 8258 159 1076 362.411941374061 2491.824172234539 246 0 36.935824142543 1289.3291131091 21289.765799217
8	43149 5851 160 1077 363.040823407823 2492.883436602667 214 32 245 29639 4921679
9	49000 8305 160 1077 363.040823407823 2492.883436602667 214 0.008932021404 38.54660810222 1572.5943011296 24783.748643724
10	57305 875 186 978 409.20090723275 2218.118859979382 32 7 38 720 18928
11	58180 19 1078 1078 2500 2500 1 0.098 0.098 0.098 0.009604
12	58199 20 1078 1078 2500 2500 1 0.0456 0.0456 0.0456 0.00207936

