file 57722 1678273751                                           
version 2
run experiments_easy_game_mode1-2115-20230308-12:09:11-29365
attr configname experiments_easy_game_mode1
attr datetime 20230308-12:09:11
attr experiment experiments_easy_game_mode1
attr inifile omnetpp.ini
attr iterationvars "$0=7.5, $1=3.5, $2=0"
attr iterationvarsf 7.5,3.5,0-
attr measurement "$0=7.5, $1=3.5, $2=0"
attr network Network
attr processid 29365
attr repetition 15
attr replication #15
attr resultdir results
attr runnumber 2115
attr seedset 15
param *.boss.arrival_mean 20
param *.boss.service_mean 7.5
param *.minion.arrival_mean 10
param *.minion.service_mean 3.5
param *.player.recover_rate_x 0
param **.minion.arrival_distribution 0
param **.minion.service_distribution 0
param **.boss.arrival_distribution 0
param **.boss.service_distribution 0

vector 0 Network.player minion_defeated_stat:vector ETV
attr source signal_minion_defeated
vector 1 Network.player minion_jobs_queue_number_stat:vector ETV
attr source signal_minion_jobs_queue_number
vector 2 Network.player minion_response_time_stat:vector ETV
attr source signal_minion_response_time
vector 3 Network.player minion_jobs_number_stat:vector ETV
attr source signal_minion_jobs_number
vector 4 Network.player minion_waiting_time_stat:vector ETV
attr source signal_minion_waiting_time
vector 5 Network.player boss_jobs_number_stat:vector ETV
attr source signal_boss_jobs_number
vector 6 Network.player boss_jobs_queue_number_stat:vector ETV
attr source signal_boss_jobs_queue_number
vector 7 Network.player boss_waiting_time_stat:vector ETV
attr source signal_boss_waiting_time
vector 8 Network.player boss_defeated_stat:vector ETV
attr source signal_boss_defeated
vector 9 Network.player boss_response_time_stat:vector ETV
attr source signal_boss_response_time
vector 10 Network.player minion_recovered_stat:vector ETV
attr source signal_minion_recovered
vector 11 Network.player minion_throughput:vector ETV
attr source signal_minion_throughput
vector 12 Network.player boss_throughput:vector ETV
attr source signal_boss_throughput
0	2023 4900 156 1067 354.860080407308 2496.468635712767 180 31 210 21690 3099630
1	6923 9898 156 1067 354.860080407308 2496.468635712767 381 0 26 2897 46457
2	16821 7055 156 1067 354.860080407308 2496.468635712767 180 0.098762391977 203.74560893519 11778.389716777 1514498.1152803
3	23876 5239 158 1062 371.826817875947 2485.321044617593 201 1 27 1765 28213
4	29115 8159 158 1067 371.826817875947 2496.468635712767 219 0 202.72233883116 13707.354917558 1764786.0378482
5	37274 2821 176 1042 390.19208526962 2439.323409864084 110 1 6 207 523
6	40095 5652 176 1059 390.19208526962 2482.464912851755 220 0 5 194 438
7	45747 3570 176 1054 390.19208526962 2472.449932804364 110 0 61.468064781414 901.00058414971 25324.613833519
8	49317 2973 179 1059 390.886670064108 2482.464912851755 110 22 131 8415 754655
9	52290 4322 179 1059 390.886670064108 2482.464912851755 110 0.039645719459 70.03526501683 2005.5169005741 61283.479133263
10	56612 1070 187 1015 407.439532221909 2370.716186367381 39 5 43 936 27404
11	57682 19 1068 1068 2500 2500 1 0.084 0.084 0.084 0.007056
12	57701 20 1068 1068 2500 2500 1 0.0524 0.0524 0.0524 0.00274576

