version 2
run experiments_easy_game_mode1-1798-20230308-12:08:32-27779
attr configname experiments_easy_game_mode1
attr datetime 20230308-12:08:32
attr experiment experiments_easy_game_mode1
attr inifile omnetpp.ini
attr iterationvars "$0=7, $1=3.5, $2=100"
attr iterationvarsf 7,3.5,100-
attr measurement "$0=7, $1=3.5, $2=100"
attr network Network
attr processid 27779
attr repetition 28
attr replication #28
attr resultdir results
attr runnumber 1798
attr seedset 28
param *.boss.arrival_mean 20
param *.boss.service_mean 7
param *.minion.arrival_mean 10
param *.minion.service_mean 3.5
param *.player.recover_rate_x 100
param **.minion.arrival_distribution 0
param **.minion.service_distribution 0
param **.boss.arrival_distribution 0
param **.boss.service_distribution 0

vector 0 Network.player minion_jobs_number_stat:vector ETV
attr source signal_minion_jobs_number
vector 1 Network.player minion_jobs_queue_number_stat:vector ETV
attr source signal_minion_jobs_queue_number
vector 2 Network.player minion_defeated_stat:vector ETV
attr source signal_minion_defeated
vector 3 Network.player minion_response_time_stat:vector ETV
attr source signal_minion_response_time
vector 4 Network.player minion_waiting_time_stat:vector ETV
attr source signal_minion_waiting_time
vector 5 Network.player boss_jobs_number_stat:vector ETV
attr source signal_boss_jobs_number
vector 6 Network.player boss_jobs_queue_number_stat:vector ETV
attr source signal_boss_jobs_queue_number
vector 7 Network.player boss_waiting_time_stat:vector ETV
attr source signal_boss_waiting_time
vector 8 Network.player boss_defeated_stat:vector ETV
attr source signal_boss_defeated
vector 9 Network.player boss_response_time_stat:vector ETV
attr source signal_boss_response_time
vector 10 Network.player minion_recovered_stat:vector ETV
attr source signal_minion_recovered
vector 11 Network.player minion_throughput:vector ETV
attr source signal_minion_throughput
vector 12 Network.player boss_throughput:vector ETV
attr source signal_boss_throughput
0	164	350.294513694894	7
0	170	363.639385191236	4
0	185	395.967732442049	1
0	191	427.159591447421	2
0	193	432.765782918222	3
0	201	449.947678496786	3
0	205	454.945726975953	2
0	210	459.176667775983	2
0	223	486.255948306324	1
0	227	491.012857394079	1
0	229	491.777575685855	2
0	235	507.137759544897	1
0	239	512.556181913125	1
0	241	513.4579622533	2
0	245	527.808006862067	1
0	248	535.706216348722	1
0	250	538.604951992273	2
0	254	540.375021267488	1
0	259	560.447999415621	1
0	261	563.873884554785	2
0	263	571.726134409241	3
0	265	572.186659351179	4
0	272	582.163489332664	1
0	275	586.200971562991	1
0	277	586.801018141556	2
0	283	600.139297678135	3
0	294	621.370227739097	4
0	299	639.646881293396	5
0	304	659.060776399104	6
0	310	671.417531041499	5
0	312	674.211585846454	6
0	314	676.299076244988	7
0	323	693.681225810529	1
0	329	736.134221527032	1
0	332	747.297448632487	1
0	335	752.207732643532	1
0	338	758.413090383666	1
0	341	765.407851661881	1
0	344	770.463541129355	1
0	347	784.88289423812	1
0	353	792.246328686303	1
0	356	803.757996106487	1
0	362	830.613305193708	1
0	365	843.413113944246	1
0	368	849.294871178456	1
0	371	851.704791292802	1
0	374	852.417378293355	1
0	379	866.818236715752	1
0	381	869.09392381702	2
0	383	869.875876308415	3
0	385	876.496034911976	4
0	389	885.934984987796	4
0	391	886.335462395712	5
0	395	891.880284731485	6
0	400	900.205063499668	7
0	402	902.875379046943	8
0	407	908.889970047335	9
0	413	916.853486259358	9
0	415	917.693032700502	10
0	417	926.294494189633	11
0	419	926.930844007641	12
0	424	934.871934789699	13
0	426	935.994326362746	14
0	429	937.677465601314	15
0	439	944.889580167609	8
0	448	954.901572751685	7
0	458	971.368637164473	8
0	460	972.524355441693	9
0	463	979.736233024576	10
0	465	980.954520292716	11
0	468	985.458950389984	12
0	471	992.314140590091	12
0	479	1011.689877239094	7
0	482	1016.425793707413	7
0	486	1023.747950625016	6
0	497	1062.408896828515	3
0	501	1073.920307508341	3
0	505	1086.412763685241	2
0	520	1129.504131067294	1
0	522	1130.137690966545	2
0	530	1142.125729052923	1
0	541	1165.179712411229	1
0	543	1165.298295139806	2
0	554	1194.743970844658	1
0	559	1217.401377583172	1
0	563	1235.076840789736	2
0	565	1237.656652970642	3
0	567	1239.329840174216	4
0	570	1242.417205123507	5
0	576	1253.007032138073	6
0	582	1270.715093928246	3
0	589	1287.140139812766	1
0	596	1311.575579480774	1
0	598	1312.641631723577	2
0	602	1316.994823514032	1
0	604	1318.060865432187	2
0	608	1328.019285020217	1
0	611	1330.670337975008	1
0	613	1333.970644627878	2
0	617	1340.742713307508	1
0	622	1346.771012237382	1
0	624	1351.270470131262	2
0	627	1359.232090685853	3
0	629	1359.562117816025	4
0	631	1360.141407267009	5
0	633	1362.380936788234	6
0	635	1362.446556802255	7
0	638	1364.573313357586	7
0	645	1371.430722611907	3
0	648	1376.481791297443	3
0	653	1388.535971260675	1
0	655	1390.92568428937	2
0	657	1396.260086775359	3
0	660	1398.526102203502	3
0	665	1413.164292923553	1
0	673	1438.443018201108	1
0	675	1446.242418118421	2
0	679	1452.889507469076	2
0	682	1454.61648399024	2
0	685	1457.106807366308	2
0	690	1463.341150504445	2
0	692	1464.518839651967	3
0	694	1465.471329612148	4
0	697	1465.677038760284	5
0	705	1474.210476258838	5
0	709	1476.798781879275	5
0	716	1482.087081506948	5
0	718	1482.241627916752	6
0	726	1490.828201086264	7
0	728	1491.60009994703	8
0	745	1528.860948272361	5
0	751	1535.771305000355	6
0	753	1542.574818051796	7
0	756	1546.140151323238	8
0	758	1550.28545153088	9
0	760	1550.620890325931	10
0	762	1550.911886505854	11
0	764	1551.388269856311	12
0	789	1610.406475456756	5
0	791	1619.737148409179	6
0	795	1623.255613144863	7
0	803	1636.170622927085	4
0	808	1647.276199399388	2
0	814	1653.367597601162	2
0	823	1677.043312469711	1
0	825	1677.669644042182	2
0	832	1696.856404307526	2
0	835	1700.616095823832	2
0	838	1703.81731854165	2
0	840	1703.958884704604	3
0	848	1721.840881323087	1
0	851	1738.639292207234	1
0	854	1740.28301290746	1
0	857	1741.94231495916	1
0	859	1746.278323822409	2
0	862	1747.132978468727	2
0	866	1763.744959369342	1
0	869	1766.832317197775	1
0	872	1781.194061412384	1
0	875	1784.007172870224	1
0	878	1791.444793225007	1
0	889	1818.767574374127	1
0	892	1823.912494308424	2
0	896	1825.031935837156	3
0	898	1826.742113535859	4
0	900	1829.177898004458	5
0	902	1830.475974871447	6
0	905	1832.727478097734	7
0	908	1837.836836424692	7
0	910	1849.063043979003	8
0	914	1855.172356944006	7
0	916	1857.001293247168	8
0	919	1858.512785288162	8
0	924	1865.0163181571	6
0	927	1870.890209302152	6
0	934	1882.319536835075	4
0	936	1894.652070974355	5
0	938	1897.0452703193	6
0	942	1901.13905651228	6
0	945	1906.165645035977	6
0	948	1911.414594258261	6
0	951	1913.696463255112	6
0	956	1918.988644349112	6
0	958	1921.236140018328	7
0	960	1925.822683503792	8
0	963	1930.040236147994	9
0	972	1942.644956077952	3
0	976	1954.128819601869	2
0	978	1954.985926865917	3
0	982	1976.050555183861	2
0	986	1988.908814795108	1
0	989	1994.899296821272	1
0	992	2000.710797375236	1
0	995	2017.872222831108	1
0	998	2023.586400580186	1
0	1001	2035.149372275751	1
0	1003	2036.383769932827	2
0	1009	2052.6402209119	1
0	1011	2053.438782548318	2
0	1013	2056.466399041406	3
0	1018	2067.862028175937	4
0	1020	2076.376692711629	5
0	1023	2081.776984030721	6
0	1026	2083.457158291611	6
0	1034	2105.145380865089	1
0	1037	2135.309728064205	1
0	1040	2154.455229077172	1
0	1042	2156.522746367308	2
0	1046	2169.554756261325	1
0	1049	2170.07863638295	1
0	1060	2198.576693982376	1
0	1062	2201.61030075626	2
0	1065	2203.10283473555	3
0	1068	2204.885680249809	3
0	1071	2212.638258954712	3
0	1073	2229.449308528692	4
0	1077	2233.203004793729	3
0	1079	2234.707007767304	4
0	1082	2242.872358595071	4
0	1091	2255.528460384978	1
0	1097	2271.690803451792	1
0	1100	2277.261690615057	1
0	1103	2286.562431843466	1
0	1106	2288.617014748565	1
0	1108	2290.195723633174	2
0	1110	2291.789356918091	3
0	1113	2294.486130733997	3
0	1117	2301.721929275329	2
0	1120	2304.632968356191	2
0	1128	2330.756959188175	1
0	1136	2347.337730131784	1
0	1138	2347.355279760539	2
0	1140	2347.821212135755	3
0	1144	2349.35594733363	2
0	1147	2353.101277890705	2
0	1150	2357.587073636544	2
0	1153	2360.550717446282	2
0	1157	2392.293092303921	1
0	1162	2398.988939380238	2
0	1165	2399.35765296574	2
0	1168	2405.934133730232	2
0	1172	2415.654602181887	1
0	1183	2440.870673671743	1
0	1185	2444.982830372601	2
0	1189	2454.204788739677	2
0	1193	2463.184025075622	1
0	1195	2463.460184766505	2
1	164	350.294513694894	6
1	165	354.991716546634	6
1	166	355.666935796173	5
1	167	356.068772390962	4
1	168	358.272857481457	3
1	170	363.639385191236	3
1	171	363.838405934144	3
1	172	368.615179496786	2
1	173	368.898306695642	1
1	174	375.1536822151	0
1	185	395.967732442049	0
1	191	427.159591447421	1
1	193	432.765782918222	2
1	199	449.405435659768	2
1	201	449.947678496786	2
1	202	450.487837435944	2
1	203	450.832637589537	1
1	205	454.945726975953	1
1	206	457.174906294582	1
1	210	459.176667775983	1
1	215	472.620049280798	1
1	216	477.498232554768	0
1	223	486.255948306324	0
1	225	488.345734826764	0
1	227	491.012857394079	0
1	229	491.777575685855	1
1	230	493.559272777827	1
1	231	500.009440373584	0
1	235	507.137759544897	0
1	237	508.336347823089	0
1	239	512.556181913125	0
1	241	513.4579622533	1
1	242	517.945015480566	1
1	243	526.735930760091	0
1	245	527.808006862067	0
1	246	533.029918352663	0
1	248	535.706216348722	0
1	250	538.604951992273	1
1	251	539.551273553638	1
1	252	539.984331982041	0
1	254	540.375021267488	0
1	255	541.047387472817	0
1	259	560.447999415621	0
1	261	563.873884554785	1
1	263	571.726134409241	2
1	265	572.186659351179	3
1	267	575.814804832636	3
1	268	576.674076301517	2
1	269	577.484608755791	1
1	270	579.692679630414	0
1	272	582.163489332664	0
1	273	582.725271661156	0
1	275	586.200971562991	0
1	277	586.801018141556	1
1	283	600.139297678135	2
1	294	621.370227739097	3
1	299	639.646881293396	4
1	304	659.060776399104	5
1	307	668.13960443251	5
1	308	669.666565564787	4
1	310	671.417531041499	4
1	312	674.211585846454	5
1	314	676.299076244988	6
1	315	677.371548525694	6
1	316	683.333174389317	5
1	317	684.214472006558	4
1	318	686.201774262097	3
1	319	689.314006439334	2
1	320	689.552605478401	1
1	321	690.688792630406	0
1	323	693.681225810529	0
1	324	693.712556863378	0
1	329	736.134221527032	0
1	330	738.745088628762	0
1	332	747.297448632487	0
1	333	747.452574047643	0
1	335	752.207732643532	0
1	336	753.258561090819	0
1	338	758.413090383666	0
1	339	758.983036527685	0
1	341	765.407851661881	0
1	342	768.042610101248	0
1	344	770.463541129355	0
1	345	772.268564382414	0
1	347	784.88289423812	0
1	351	791.708289347202	0
1	353	792.246328686303	0
1	354	795.704582802775	0
1	356	803.757996106487	0
1	357	806.507660267401	0
1	362	830.613305193708	0
1	363	833.7348500063	0
1	365	843.413113944246	0
1	366	844.383126492212	0
1	368	849.294871178456	0
1	369	849.472567257533	0
1	371	851.704791292802	0
1	372	852.051216837554	0
1	374	852.417378293355	0
1	375	854.754386914866	0
1	379	866.818236715752	0
1	381	869.09392381702	1
1	383	869.875876308415	2
1	385	876.496034911976	3
1	387	879.556135113288	3
1	389	885.934984987796	3
1	391	886.335462395712	4
1	395	891.880284731485	5
1	400	900.205063499668	6
1	402	902.875379046943	7
1	407	908.889970047335	8
1	409	913.507978261478	8
1	413	916.853486259358	8
1	415	917.693032700502	9
1	417	926.294494189633	10
1	419	926.930844007641	11
1	424	934.871934789699	12
1	426	935.994326362746	13
1	429	937.677465601314	14
1	430	937.899206502913	14
1	431	938.946157360071	13
1	432	940.198282200995	12
1	433	941.445149986218	11
1	434	942.560398366054	10
1	435	943.082692001105	9
1	436	944.072939941224	8
1	437	944.095692833732	7
1	439	944.889580167609	7
1	440	947.844398331486	7
1	441	951.034076669986	6
1	448	954.901572751685	6
1	458	971.368637164473	7
1	460	972.524355441693	8
1	463	979.736233024576	9
1	465	980.954520292716	10
1	468	985.458950389984	11
1	469	990.385314835813	11
1	471	992.314140590091	11
1	472	995.920858337415	11
1	473	998.617982580867	10
1	474	1001.812955233334	9
1	475	1005.562833143829	8
1	476	1006.122897698566	7
1	477	1009.463568511267	6
1	479	1011.689877239094	6
1	480	1013.037357248645	6
1	482	1016.425793707413	6
1	483	1020.180978884804	6
1	484	1023.084740516107	5
1	486	1023.747950625016	5
1	487	1027.660759397257	5
1	488	1038.873630203514	4
1	489	1043.944634716052	3
1	490	1051.974560053222	2
1	497	1062.408896828515	2
1	499	1068.248685505842	2
1	501	1073.920307508341	2
1	502	1080.840090636097	2
1	503	1083.418901657311	1
1	505	1086.412763685241	1
1	506	1086.455481018153	1
1	507	1089.134184725863	0
1	520	1129.504131067294	0
1	522	1130.137690966545	1
1	524	1133.134298270059	1
1	525	1133.437506534589	0
1	530	1142.125729052923	0
1	534	1146.653498488857	0
1	541	1165.179712411229	0
1	543	1165.298295139806	1
1	545	1167.077876820099	1
1	546	1167.198031636237	0
1	554	1194.743970844658	0
1	555	1195.817659793015	0
1	559	1217.401377583172	0
1	563	1235.076840789736	1
1	565	1237.656652970642	2
1	567	1239.329840174216	3
1	570	1242.417205123507	4
1	576	1253.007032138073	5
1	577	1255.217118406827	5
1	578	1256.057119688715	4
1	579	1268.288324186229	3
1	580	1268.296738828658	2
1	582	1270.715093928246	2
1	583	1274.03089072359	2
1	584	1275.35368745365	1
1	585	1276.522220881647	0
1	589	1287.140139812766	0
1	591	1291.742625787816	0
1	596	1311.575579480774	0
1	598	1312.641631723577	1
1	599	1313.560797239504	1
1	600	1314.356015762152	0
1	602	1316.994823514032	0
1	604	1318.060865432187	1
1	605	1319.287152057962	1
1	606	1323.321706430026	0
1	608	1328.019285020217	0
1	609	1328.702613274286	0
1	611	1330.670337975008	0
1	613	1333.970644627878	1
1	614	1337.020382383588	1
1	615	1337.673553638421	0
1	617	1340.742713307508	0
1	618	1345.942115300412	0
1	622	1346.771012237382	0
1	624	1351.270470131262	1
1	627	1359.232090685853	2
1	629	1359.562117816025	3
1	631	1360.141407267009	4
1	633	1362.380936788234	5
1	635	1362.446556802255	6
1	636	1363.31909801837	6
1	638	1364.573313357586	6
1	639	1364.732233955939	6
1	640	1367.086033029721	5
1	641	1367.613060857958	4
1	642	1370.56142064232	3
1	643	1371.262329976146	2
1	645	1371.430722611907	2
1	646	1373.28309607901	2
1	648	1376.481791297443	2
1	649	1378.459854131737	2
1	650	1383.80270044349	1
1	651	1384.270485865761	0
1	653	1388.535971260675	0
1	655	1390.92568428937	1
1	657	1396.260086775359	2
1	658	1397.643288384932	2
1	660	1398.526102203502	2
1	661	1403.481563850345	2
1	662	1405.075670749963	1
1	663	1409.283383428454	0
1	665	1413.164292923553	0
1	666	1414.14559912617	0
1	673	1438.443018201108	0
1	675	1446.242418118421	1
1	677	1450.953240593545	1
1	679	1452.889507469076	1
1	680	1453.186844739724	1
1	682	1454.61648399024	1
1	683	1456.9610113342	1
1	685	1457.106807366308	1
1	686	1457.138915665163	1
1	690	1463.341150504445	1
1	692	1464.518839651967	2
1	694	1465.471329612148	3
1	697	1465.677038760284	4
1	701	1468.479898809018	4
1	705	1474.210476258838	4
1	707	1476.030993607121	4
1	709	1476.798781879275	4
1	710	1477.213911519443	4
1	716	1482.087081506948	4
1	718	1482.241627916752	5
1	726	1490.828201086264	6
1	728	1491.60009994703	7
1	731	1502.99920040679	7
1	732	1507.57481922158	6
1	736	1514.23773443096	5
1	743	1528.297481499736	4
1	745	1528.860948272361	4
1	751	1535.771305000355	5
1	753	1542.574818051796	6
1	756	1546.140151323238	7
1	758	1550.28545153088	8
1	760	1550.620890325931	9
1	762	1550.911886505854	10
1	764	1551.388269856311	11
1	766	1558.205343074187	11
1	767	1564.595854085733	10
1	768	1566.389054756347	9
1	769	1569.213458810149	8
1	770	1572.010426594913	7
1	774	1575.294213611697	6
1	784	1602.177679382877	5
1	785	1602.512686630071	4
1	789	1610.406475456756	4
1	791	1619.737148409179	5
1	795	1623.255613144863	6
1	798	1631.169175664306	6
1	799	1631.594260520014	5
1	800	1633.852731790413	4
1	801	1634.649211124781	3
1	803	1636.170622927085	3
1	804	1639.363016279643	3
1	805	1639.677180058164	2
1	806	1646.001506502854	1
1	808	1647.276199399388	1
1	809	1648.327346871496	1
1	814	1653.367597601162	1
1	815	1653.787808464236	1
1	816	1654.777337810507	0
1	823	1677.043312469711	0
1	825	1677.669644042182	1
1	827	1687.48553597381	1
1	832	1696.856404307526	1
1	833	1698.335531708753	1
1	835	1700.616095823832	1
1	836	1700.991838746304	1
1	838	1703.81731854165	1
1	840	1703.958884704604	2
1	841	1707.078367469954	2
1	842	1707.756819414392	1
1	843	1708.445177569217	0
1	848	1721.840881323087	0
1	849	1724.479916293708	0
1	851	1738.639292207234	0
1	852	1738.709993844012	0
1	854	1740.28301290746	0
1	855	1740.483750647354	0
1	857	1741.94231495916	0
1	859	1746.278323822409	1
1	860	1746.567109899774	1
1	862	1747.132978468727	1
1	863	1750.021302853221	1
1	864	1754.026631464795	0
1	866	1763.744959369342	0
1	867	1766.058849954521	0
1	869	1766.832317197775	0
1	870	1772.449202568984	0
1	872	1781.194061412384	0
1	873	1781.379285789735	0
1	875	1784.007172870224	0
1	876	1784.838403624389	0
1	878	1791.444793225007	0
1	879	1791.676768690232	0
1	889	1818.767574374127	0
1	892	1823.912494308424	1
1	896	1825.031935837156	2
1	898	1826.742113535859	3
1	900	1829.177898004458	4
1	902	1830.475974871447	5
1	905	1832.727478097734	6
1	906	1836.88054744156	6
1	908	1837.836836424692	6
1	910	1849.063043979003	7
1	911	1850.640219290397	7
1	912	1852.752679983089	6
1	914	1855.172356944006	6
1	916	1857.001293247168	7
1	917	1857.88568755049	7
1	919	1858.512785288162	7
1	920	1861.479290496454	7
1	921	1861.604154860073	6
1	922	1863.057141006844	5
1	924	1865.0163181571	5
1	925	1869.528758570283	5
1	927	1870.890209302152	5
1	928	1872.738213313299	5
1	929	1873.031165782476	4
1	930	1879.852503971676	3
1	934	1882.319536835075	3
1	936	1894.652070974355	4
1	938	1897.0452703193	5
1	940	1898.978015531533	5
1	942	1901.13905651228	5
1	943	1905.49829786126	5
1	945	1906.165645035977	5
1	946	1910.380032458885	5
1	948	1911.414594258261	5
1	949	1912.314041894896	5
1	951	1913.696463255112	5
1	952	1915.980926432701	5
1	956	1918.988644349112	5
1	958	1921.236140018328	6
1	960	1925.822683503792	7
1	963	1930.040236147994	8
1	964	1931.048911122341	8
1	965	1933.970313995991	7
1	966	1934.060829959716	6
1	967	1935.867253204153	5
1	968	1939.295727177613	4
1	969	1939.884905698997	3
1	970	1939.919975258286	2
1	972	1942.644956077952	2
1	973	1945.941018683636	2
1	974	1953.638201572601	1
1	976	1954.128819601869	1
1	978	1954.985926865917	2
1	979	1957.008227426693	2
1	980	1972.067964863188	1
1	982	1976.050555183861	1
1	983	1977.61281586722	1
1	984	1978.593884875151	0
1	986	1988.908814795108	0
1	987	1992.803361535893	0
1	989	1994.899296821272	0
1	990	1995.792636288901	0
1	992	2000.710797375236	0
1	993	2002.17974466662	0
1	995	2017.872222831108	0
1	996	2019.320628533099	0
1	998	2023.586400580186	0
1	999	2024.581038974113	0
1	1001	2035.149372275751	0
1	1003	2036.383769932827	1
1	1004	2038.037744487956	1
1	1005	2044.010609434974	0
1	1009	2052.6402209119	0
1	1011	2053.438782548318	1
1	1013	2056.466399041406	2
1	1018	2067.862028175937	3
1	1020	2076.376692711629	4
1	1023	2081.776984030721	5
1	1024	2083.121142613752	5
1	1026	2083.457158291611	5
1	1027	2087.106262733486	5
1	1028	2087.21310329315	4
1	1029	2094.196393280412	3
1	1030	2097.827657020147	2
1	1031	2099.121437467031	1
1	1032	2101.684331589179	0
1	1034	2105.145380865089	0
1	1035	2106.676972132213	0
1	1037	2135.309728064205	0
1	1038	2136.114415003286	0
1	1040	2154.455229077172	0
1	1042	2156.522746367308	1
1	1043	2161.699371306279	1
1	1044	2162.938437337378	0
1	1046	2169.554756261325	0
1	1047	2169.947621083364	0
1	1049	2170.07863638295	0
1	1053	2189.774356843992	0
1	1060	2198.576693982376	0
1	1062	2201.61030075626	1
1	1065	2203.10283473555	2
1	1066	2204.870194730103	2
1	1068	2204.885680249809	2
1	1069	2208.457919011238	2
1	1071	2212.638258954712	2
1	1073	2229.449308528692	3
1	1074	2229.884873974551	3
1	1075	2231.700736379433	2
1	1077	2233.203004793729	2
1	1079	2234.707007767304	3
1	1080	2241.232256567656	3
1	1082	2242.872358595071	3
1	1083	2243.790903999464	3
1	1087	2247.57022515232	2
1	1088	2251.928721877324	1
1	1089	2253.203198718349	0
1	1091	2255.528460384978	0
1	1092	2255.871179955587	0
1	1097	2271.690803451792	0
1	1098	2275.30908649051	0
1	1100	2277.261690615057	0
1	1101	2284.11665258672	0
1	1103	2286.562431843466	0
1	1104	2286.707596266009	0
1	1106	2288.617014748565	0
1	1108	2290.195723633174	1
1	1110	2291.789356918091	2
1	1111	2293.861182794371	2
1	1113	2294.486130733997	2
1	1114	2296.570418662668	2
1	1115	2300.707322058444	1
1	1117	2301.721929275329	1
1	1118	2301.953633457741	1
1	1120	2304.632968356191	1
1	1121	2305.798336495527	1
1	1122	2308.416248251752	0
1	1128	2330.756959188175	0
1	1134	2340.894385603901	0
1	1136	2347.337730131784	0
1	1138	2347.355279760539	1
1	1140	2347.821212135755	2
1	1141	2348.646221653923	2
1	1142	2349.327011196677	1
1	1144	2349.35594733363	1
1	1145	2351.802510973538	1
1	1147	2353.101277890705	1
1	1148	2353.957198289245	1
1	1150	2357.587073636544	1
1	1151	2357.724870156861	1
1	1153	2360.550717446282	1
1	1154	2367.894341910355	1
1	1155	2375.812913760559	0
1	1157	2392.293092303921	0
1	1162	2398.988939380238	1
1	1163	2399.342039147697	1
1	1165	2399.35765296574	1
1	1166	2405.908167570618	1
1	1168	2405.934133730232	1
1	1169	2412.517867045921	1
1	1170	2412.657158051153	0
1	1172	2415.654602181887	0
1	1179	2432.257061315672	0
1	1183	2440.870673671743	0
1	1185	2444.982830372601	1
1	1187	2448.761923986337	1
1	1189	2454.204788739677	1
1	1190	2458.22145645399	1
1	1191	2460.894457551892	0
1	1193	2463.184025075622	0
1	1195	2463.460184766505	1
1	1196	2468.286005305125	1
1	1197	2471.353165419318	0
2	165	354.991716546634	26
2	166	355.666935796173	27
2	167	356.068772390962	28
2	168	358.272857481457	29
2	171	363.838405934144	30
2	172	368.615179496786	31
2	173	368.898306695642	32
2	174	375.1536822151	33
2	199	449.405435659768	34
2	202	450.487837435944	35
2	203	450.832637589537	36
2	206	457.174906294582	37
2	215	472.620049280798	38
2	216	477.498232554768	39
2	225	488.345734826764	40
2	230	493.559272777827	41
2	231	500.009440373584	42
2	237	508.336347823089	43
2	242	517.945015480566	44
2	243	526.735930760091	45
2	246	533.029918352663	46
2	251	539.551273553638	47
2	252	539.984331982041	48
2	255	541.047387472817	49
2	267	575.814804832636	50
2	268	576.674076301517	51
2	269	577.484608755791	52
2	270	579.692679630414	53
2	273	582.725271661156	54
2	307	668.13960443251	55
2	308	669.666565564787	56
2	315	677.371548525694	57
2	316	683.333174389317	58
2	317	684.214472006558	59
2	318	686.201774262097	60
2	319	689.314006439334	61
2	320	689.552605478401	62
2	321	690.688792630406	63
2	324	693.712556863378	64
2	330	738.745088628762	65
2	333	747.452574047643	66
2	336	753.258561090819	67
2	339	758.983036527685	68
2	342	768.042610101248	69
2	345	772.268564382414	70
2	351	791.708289347202	71
2	354	795.704582802775	72
2	357	806.507660267401	73
2	363	833.7348500063	74
2	366	844.383126492212	75
2	369	849.472567257533	76
2	372	852.051216837554	77
2	375	854.754386914866	78
2	387	879.556135113288	79
2	409	913.507978261478	80
2	430	937.899206502913	81
2	431	938.946157360071	82
2	432	940.198282200995	83
2	433	941.445149986218	84
2	434	942.560398366054	85
2	435	943.082692001105	86
2	436	944.072939941224	87
2	437	944.095692833732	88
2	440	947.844398331486	89
2	441	951.034076669986	90
2	469	990.385314835813	91
2	472	995.920858337415	92
2	473	998.617982580867	93
2	474	1001.812955233334	94
2	475	1005.562833143829	95
2	476	1006.122897698566	96
2	477	1009.463568511267	97
2	480	1013.037357248645	98
2	483	1020.180978884804	99
2	484	1023.084740516107	100
2	487	1027.660759397257	101
2	488	1038.873630203514	102
2	489	1043.944634716052	103
2	490	1051.974560053222	104
2	499	1068.248685505842	105
2	502	1080.840090636097	106
2	503	1083.418901657311	107
2	506	1086.455481018153	108
2	507	1089.134184725863	109
2	524	1133.134298270059	110
2	525	1133.437506534589	111
2	534	1146.653498488857	112
2	545	1167.077876820099	113
2	546	1167.198031636237	114
2	555	1195.817659793015	115
2	577	1255.217118406827	116
2	578	1256.057119688715	117
2	579	1268.288324186229	118
2	580	1268.296738828658	119
2	583	1274.03089072359	120
2	584	1275.35368745365	121
2	585	1276.522220881647	122
2	591	1291.742625787816	123
2	599	1313.560797239504	124
2	600	1314.356015762152	125
2	605	1319.287152057962	126
2	606	1323.321706430026	127
2	609	1328.702613274286	128
2	614	1337.020382383588	129
2	615	1337.673553638421	130
2	618	1345.942115300412	131
2	636	1363.31909801837	132
2	639	1364.732233955939	133
2	640	1367.086033029721	134
2	641	1367.613060857958	135
2	642	1370.56142064232	136
2	643	1371.262329976146	137
2	646	1373.28309607901	138
2	649	1378.459854131737	139
2	650	1383.80270044349	140
2	651	1384.270485865761	141
2	658	1397.643288384932	142
2	661	1403.481563850345	143
2	662	1405.075670749963	144
2	663	1409.283383428454	145
2	666	1414.14559912617	146
2	677	1450.953240593545	147
2	680	1453.186844739724	148
2	683	1456.9610113342	149
2	686	1457.138915665163	150
2	701	1468.479898809018	151
2	707	1476.030993607121	152
2	710	1477.213911519443	153
2	731	1502.99920040679	154
2	732	1507.57481922158	155
2	736	1514.23773443096	156
2	743	1528.297481499736	157
2	766	1558.205343074187	158
2	767	1564.595854085733	159
2	768	1566.389054756347	160
2	769	1569.213458810149	161
2	770	1572.010426594913	162
2	774	1575.294213611697	163
2	784	1602.177679382877	164
2	785	1602.512686630071	165
2	798	1631.169175664306	166
2	799	1631.594260520014	167
2	800	1633.852731790413	168
2	801	1634.649211124781	169
2	804	1639.363016279643	170
2	805	1639.677180058164	171
2	806	1646.001506502854	172
2	809	1648.327346871496	173
2	815	1653.787808464236	174
2	816	1654.777337810507	175
2	827	1687.48553597381	176
2	833	1698.335531708753	177
2	836	1700.991838746304	178
2	841	1707.078367469954	179
2	842	1707.756819414392	180
2	843	1708.445177569217	181
2	849	1724.479916293708	182
2	852	1738.709993844012	183
2	855	1740.483750647354	184
2	860	1746.567109899774	185
2	863	1750.021302853221	186
2	864	1754.026631464795	187
2	867	1766.058849954521	188
2	870	1772.449202568984	189
2	873	1781.379285789735	190
2	876	1784.838403624389	191
2	879	1791.676768690232	192
2	906	1836.88054744156	193
2	911	1850.640219290397	194
2	912	1852.752679983089	195
2	917	1857.88568755049	196
2	920	1861.479290496454	197
2	921	1861.604154860073	198
2	922	1863.057141006844	199
2	925	1869.528758570283	200
2	928	1872.738213313299	201
2	929	1873.031165782476	202
2	930	1879.852503971676	203
2	940	1898.978015531533	204
2	943	1905.49829786126	205
2	946	1910.380032458885	206
2	949	1912.314041894896	207
2	952	1915.980926432701	208
2	964	1931.048911122341	209
2	965	1933.970313995991	210
2	966	1934.060829959716	211
2	967	1935.867253204153	212
2	968	1939.295727177613	213
2	969	1939.884905698997	214
2	970	1939.919975258286	215
2	973	1945.941018683636	216
2	974	1953.638201572601	217
2	979	1957.008227426693	218
2	980	1972.067964863188	219
2	983	1977.61281586722	220
2	984	1978.593884875151	221
2	987	1992.803361535893	222
2	990	1995.792636288901	223
2	993	2002.17974466662	224
2	996	2019.320628533099	225
2	999	2024.581038974113	226
2	1004	2038.037744487956	227
2	1005	2044.010609434974	228
2	1024	2083.121142613752	229
2	1027	2087.106262733486	230
2	1028	2087.21310329315	231
2	1029	2094.196393280412	232
2	1030	2097.827657020147	233
2	1031	2099.121437467031	234
2	1032	2101.684331589179	235
2	1035	2106.676972132213	236
2	1038	2136.114415003286	237
2	1043	2161.699371306279	238
2	1044	2162.938437337378	239
2	1047	2169.947621083364	240
2	1053	2189.774356843992	241
2	1066	2204.870194730103	242
2	1069	2208.457919011238	243
2	1074	2229.884873974551	244
2	1075	2231.700736379433	245
2	1080	2241.232256567656	246
2	1083	2243.790903999464	247
2	1087	2247.57022515232	248
2	1088	2251.928721877324	249
2	1089	2253.203198718349	250
2	1092	2255.871179955587	251
2	1098	2275.30908649051	252
2	1101	2284.11665258672	253
2	1104	2286.707596266009	254
2	1111	2293.861182794371	255
2	1114	2296.570418662668	256
2	1115	2300.707322058444	257
2	1118	2301.953633457741	258
2	1121	2305.798336495527	259
2	1122	2308.416248251752	260
2	1134	2340.894385603901	261
2	1141	2348.646221653923	262
2	1142	2349.327011196677	263
2	1145	2351.802510973538	264
2	1148	2353.957198289245	265
2	1151	2357.724870156861	266
2	1154	2367.894341910355	267
2	1155	2375.812913760559	268
2	1163	2399.342039147697	269
2	1166	2405.908167570618	270
2	1169	2412.517867045921	271
2	1170	2412.657158051153	272
2	1179	2432.257061315672	273
2	1187	2448.761923986337	274
2	1190	2458.22145645399	275
2	1191	2460.894457551892	276
2	1196	2468.286005305125	277
2	1197	2471.353165419318	278
3	165	354.991716546634	28.136922166851
3	166	355.666935796173	26.253440141723
3	167	356.068772390962	24.194615663204
3	168	358.272857481457	16.546062683381
3	171	363.838405934144	22.062039257905
3	172	368.615179496786	20.157112159053
3	173	368.898306695642	18.603793000748
3	174	375.1536822151	11.514297023864
3	199	449.405435659768	53.437703217719
3	202	450.487837435944	23.328245988523
3	203	450.832637589537	18.066854671315
3	206	457.174906294582	7.227227797796
3	215	472.620049280798	13.443381504815
3	216	477.498232554768	8.699168409477
3	225	488.345734826764	2.08978652044
3	230	493.559272777827	2.546415383748
3	231	500.009440373584	8.231864687729
3	237	508.336347823089	1.198588278192
3	242	517.945015480566	5.388833567441
3	243	526.735930760091	13.277968506791
3	246	533.029918352663	5.221911490596
3	251	539.551273553638	3.845057204916
3	252	539.984331982041	1.379379989768
3	255	541.047387472817	0.672366205329
3	267	575.814804832636	15.366805417015
3	268	576.674076301517	12.800191746732
3	269	577.484608755791	5.75847434655
3	270	579.692679630414	7.506020279235
3	273	582.725271661156	0.561782328492
3	307	668.13960443251	81.338586290954
3	308	669.666565564787	82.488129420678
3	315	677.371548525694	77.232250847559
3	316	683.333174389317	61.96294665022
3	317	684.214472006558	44.567590713162
3	318	686.201774262097	27.140997862993
3	319	689.314006439334	17.896475397835
3	320	689.552605478401	15.341019631947
3	321	690.688792630406	14.389716385418
3	324	693.712556863378	0.031331052849
3	330	738.745088628762	2.61086710173
3	333	747.452574047643	0.155125415156
3	336	753.258561090819	1.050828447287
3	339	758.983036527685	0.569946144019
3	342	768.042610101248	2.634758439367
3	345	772.268564382414	1.805023253059
3	351	791.708289347202	6.609752773202
3	354	795.704582802775	3.458254116472
3	357	806.507660267401	2.749664160914
3	363	833.7348500063	3.121544812592
3	366	844.383126492212	0.970012547966
3	369	849.472567257533	0.177696079077
3	372	852.051216837554	0.346425544752
3	375	854.754386914866	2.337008621511
3	387	879.556135113288	12.737898397536
3	409	913.507978261478	43.632101953063
3	430	937.899206502913	51.563744107201
3	431	938.946157360071	48.078065275604
3	432	940.198282200995	48.31799746951
3	433	941.445149986218	41.24008648655
3	434	942.560398366054	39.685019319111
3	435	943.082692001105	34.19272195377
3	436	944.072939941224	30.048932227065
3	437	944.095692833732	27.242206574374
3	440	947.844398331486	30.151365630984
3	441	951.034076669986	24.739582480353
3	469	990.385314835813	61.997467099702
3	472	995.920858337415	61.048923547716
3	473	998.617982580867	62.623656218121
3	474	1001.812955233334	64.13548963202
3	475	1005.562833143829	60.67325297622
3	476	1006.122897698566	54.811986636073
3	477	1009.463568511267	54.561995759582
3	480	1013.037357248645	41.668720084172
3	483	1020.180978884804	47.656623443111
3	484	1023.084740516107	43.348507491531
3	487	1027.660759397257	46.706239104541
3	488	1038.873630203514	53.41467981353
3	489	1043.944634716052	51.630494125961
3	490	1051.974560053222	40.284682814128
3	499	1068.248685505842	44.500734880826
3	502	1080.840090636097	24.593178989162
3	503	1083.418901657311	21.010004828796
3	506	1086.455481018153	12.535173509812
3	507	1089.134184725863	2.721421040622
3	524	1133.134298270059	3.630167202765
3	525	1133.437506534589	3.299815568044
3	534	1146.653498488857	3.429386013096
3	545	1167.077876820099	1.89816440887
3	546	1167.198031636237	1.899736496431
3	555	1195.817659793015	1.073688948357
3	577	1255.217118406827	20.140277617091
3	578	1256.057119688715	18.400466718073
3	579	1268.288324186229	28.958484012013
3	580	1268.296738828658	25.879533705151
3	583	1274.03089072359	24.830512975857
3	584	1275.35368745365	22.346655315577
3	585	1276.522220881647	5.807126953401
3	591	1291.742625787816	4.60248597505
3	599	1313.560797239504	1.98521775873
3	600	1314.356015762152	1.714384038575
3	605	1319.287152057962	2.29232854393
3	606	1323.321706430026	5.260840997839
3	609	1328.702613274286	0.683328254069
3	614	1337.020382383588	6.35004440858
3	615	1337.673553638421	3.702909010543
3	618	1345.942115300412	5.199401992904
3	636	1363.31909801837	16.548085780988
3	639	1364.732233955939	13.461763824677
3	640	1367.086033029721	7.853942343868
3	641	1367.613060857958	8.050943041933
3	642	1370.56142064232	10.420013375311
3	643	1371.262329976146	8.881393187912
3	646	1373.28309607901	10.836539276755
3	649	1378.459854131737	13.886540774151
3	650	1383.80270044349	12.371977831583
3	651	1384.270485865761	7.788694568318
3	658	1397.643288384932	9.107317124257
3	661	1403.481563850345	12.555879560975
3	662	1405.075670749963	8.815583974604
3	663	1409.283383428454	10.757281224952
3	666	1414.14559912617	0.981306202617
3	677	1450.953240593545	12.510222392437
3	680	1453.186844739724	6.944426621303
3	683	1456.9610113342	4.071503865124
3	686	1457.138915665163	2.522431674923
3	701	1468.479898809018	5.138748304573
3	707	1476.030993607121	10.559663994973
3	710	1477.213911519443	11.536872759159
3	731	1502.99920040679	28.788724147952
3	732	1507.57481922158	30.776037342305
3	736	1514.23773443096	32.150652924012
3	743	1528.297481499736	39.834259337233
3	766	1558.205343074187	66.605243127157
3	767	1564.595854085733	54.966687797136
3	768	1566.389054756347	51.869667196552
3	769	1569.213458810149	40.352510537788
3	770	1572.010426594913	40.108566432964
3	774	1575.294213611697	32.719395559901
3	784	1602.177679382877	51.892227851997
3	785	1602.512686630071	51.89179630414
3	798	1631.169175664306	79.780905807995
3	799	1631.594260520014	58.607439382627
3	800	1633.852731790413	55.67677814306
3	801	1634.649211124781	26.782310894713
3	804	1639.363016279643	28.956540822887
3	805	1639.677180058164	19.940031648985
3	806	1646.001506502854	22.745893357991
3	809	1648.327346871496	12.156723944411
3	815	1653.787808464236	2.13059700605
3	816	1654.777337810507	1.409740209345
3	827	1687.48553597381	10.442223504099
3	833	1698.335531708753	8.477207909294
3	836	1700.991838746304	4.135434438778
3	841	1707.078367469954	6.462271646122
3	842	1707.756819414392	3.939500872742
3	843	1708.445177569217	4.486292864613
3	849	1724.479916293708	2.639034970621
3	852	1738.709993844012	0.070701636778
3	855	1740.483750647354	0.200737739894
3	860	1746.567109899774	4.624794940614
3	863	1750.021302853221	3.742979030812
3	864	1754.026631464795	6.893652996068
3	867	1766.058849954521	2.313890585179
3	870	1772.449202568984	5.616885371209
3	873	1781.379285789735	0.185224377351
3	876	1784.838403624389	0.831230754165
3	879	1791.676768690232	0.231975465225
3	906	1836.88054744156	12.968053133136
3	911	1850.640219290397	26.251321350138
3	912	1852.752679983089	27.720744145933
3	917	1857.88568755049	31.143574014631
3	920	1861.479290496454	32.301392491996
3	921	1861.604154860073	31.128179988626
3	922	1863.057141006844	30.32966290911
3	925	1869.528758570283	31.691922145591
3	928	1872.738213313299	23.675169334296
3	929	1873.031165782476	17.85880883847
3	930	1879.852503971676	22.851210724508
3	940	1898.978015531533	33.961697374433
3	943	1905.49829786126	34.608088559108
3	946	1910.380032458885	28.432591293763
3	949	1912.314041894896	29.994505059821
3	952	1915.980926432701	21.328855458346
3	964	1931.048911122341	29.909854610061
3	965	1933.970313995991	27.804668960014
3	966	1934.060829959716	22.646235701455
3	967	1935.867253204153	22.170789949041
3	968	1939.295727177613	23.173328949187
3	969	1939.884905698997	20.896261349885
3	970	1939.919975258286	18.683835239958
3	973	1945.941018683636	20.118335179844
3	974	1953.638201572601	23.597965424607
3	979	1957.008227426693	14.363271348741
3	980	1972.067964863188	17.939145261319
3	983	1977.61281586722	22.626889001303
3	984	1978.593884875151	2.54332969129
3	987	1992.803361535893	3.894546740785
3	990	1995.792636288901	0.893339467629
3	993	2002.17974466662	1.468947291384
3	996	2019.320628533099	1.448405701991
3	999	2024.581038974113	0.994638393927
3	1004	2038.037744487956	2.888372212205
3	1005	2044.010609434974	7.626839502147
3	1024	2083.121142613752	30.480921701852
3	1027	2087.106262733486	33.667480185168
3	1028	2087.21310329315	30.746704251744
3	1029	2094.196393280412	26.334365104475
3	1030	2097.827657020147	21.450964308518
3	1031	2099.121437467031	17.34445343631
3	1032	2101.684331589179	18.227173297568
3	1035	2106.676972132213	1.531591267124
3	1038	2136.114415003286	0.804686939081
3	1043	2161.699371306279	7.244142229107
3	1044	2162.938437337378	6.41569097007
3	1047	2169.947621083364	0.392864822039
3	1053	2189.774356843992	3.727417361887
3	1066	2204.870194730103	6.293500747727
3	1069	2208.457919011238	6.847618254978
3	1074	2229.884873974551	26.782039239001
3	1075	2231.700736379433	26.815056129624
3	1080	2241.232256567656	28.593997612944
3	1083	2243.790903999464	14.341595470772
3	1087	2247.57022515232	12.863217385016
3	1088	2251.928721877324	9.056363282253
3	1089	2253.203198718349	9.105856220229
3	1092	2255.871179955587	0.342719570609
3	1098	2275.30908649051	3.618283038718
3	1101	2284.11665258672	6.854961971663
3	1104	2286.707596266009	0.145164422543
3	1111	2293.861182794371	5.244168045806
3	1114	2296.570418662668	6.374695029494
3	1115	2300.707322058444	8.917965140353
3	1118	2301.953633457741	7.467502723744
3	1121	2305.798336495527	4.076407220198
3	1122	2308.416248251752	3.783279895561
3	1134	2340.894385603901	2.797909015836
3	1141	2348.646221653923	1.308491522139
3	1142	2349.327011196677	1.971731436138
3	1145	2351.802510973538	3.981298837783
3	1148	2353.957198289245	4.601250955615
3	1151	2357.724870156861	4.623592266156
3	1154	2367.894341910355	10.307268273811
3	1155	2375.812913760559	15.262196314277
3	1163	2399.342039147697	3.984622132021
3	1166	2405.908167570618	6.91922819038
3	1169	2412.517867045921	13.160214080181
3	1170	2412.657158051153	6.723024320921
3	1179	2432.257061315672	5.517786346694
3	1187	2448.761923986337	7.891250314594
3	1190	2458.22145645399	13.238626081389
3	1191	2460.894457551892	6.689668812215
3	1196	2468.286005305125	5.101980229503
3	1197	2471.353165419318	7.892980652813
4	165	354.991716546634	25.578220892184
4	166	355.666935796173	23.792779068415
4	167	356.068772390962	14.341977592886
4	168	358.272857481457	16.496490805218
4	171	363.838405934144	15.380338596411
4	172	368.615179496786	18.320665801892
4	173	368.898306695642	5.258921504406
4	198	449.046173752962	53.078441310913
4	199	449.405435659768	22.245844212347
4	202	450.487837435944	17.722054517722
4	203	450.832637589537	0.884959092751
4	206	457.174906294582	2.229179318629
4	211	459.919923033145	2.500899798583
4	214	469.961595627325	10.784927851342
4	215	472.620049280798	3.820985135507
4	224	486.526113505973	0.270165199649
4	227	491.012857394079	0
4	230	493.559272777827	1.781697091972
4	236	507.973073964404	0.835314419507
4	239	512.556181913125	0
4	242	517.945015480566	4.487053227266
4	245	527.808006862067	0
4	248	535.706216348722	0
4	251	539.551273553638	0.946321561365
4	254	540.375021267488	0
4	266	573.390499501122	12.942500085501
4	267	575.814804832636	11.940920277851
4	268	576.674076301517	4.947941892276
4	269	577.484608755791	5.297949404612
4	272	582.163489332664	0
4	275	586.200971562991	0
4	306	667.428242152451	80.627224010895
4	307	668.13960443251	80.961168288401
4	308	669.666565564787	69.527267886652
4	315	677.371548525694	56.001320786597
4	316	683.333174389317	43.686293095921
4	317	684.214472006558	25.153695607454
4	318	686.201774262097	14.784243220598
4	319	689.314006439334	15.10242059288
4	320	689.552605478401	13.253529233413
4	323	693.681225810529	0
4	329	736.134221527032	0
4	332	747.297448632487	0
4	335	752.207732643532	0
4	338	758.413090383666	0
4	341	765.407851661881	0
4	344	770.463541129355	0
4	347	784.88289423812	0
4	350	790.434199043576	5.335662469576
4	353	792.246328686303	0
4	356	803.757996106487	0
4	362	830.613305193708	0
4	365	843.413113944246	0
4	368	849.294871178456	0
4	371	851.704791292802	0
4	374	852.417378293355	0
4	386	878.820916540899	12.002679825147
4	387	879.556135113288	10.462211296268
4	408	912.937986938508	43.062110630093
4	409	913.507978261478	37.011943349502
4	420	927.631794743047	41.696809755251
4	427	937.007234726159	50.671772330447
4	430	937.899206502913	47.031114418446
4	431	938.946157360071	47.065872628586
4	432	940.198282200995	39.993218701327
4	433	941.445149986218	38.569770939275
4	434	942.560398366054	33.670428318719
4	435	943.082692001105	29.058684286946
4	436	944.072939941224	27.219453681866
4	437	944.095692833732	26.40266013323
4	440	947.844398331486	21.549904141853
4	441	951.034076669986	24.103232662345
4	466	982.588056255362	54.200208519251
4	469	990.385314835813	55.513380046114
4	472	995.920858337415	59.926531974669
4	473	998.617982580867	60.940516979553
4	474	1001.812955233334	56.923375065725
4	475	1005.562833143829	54.251922081336
4	476	1006.122897698566	51.221324946881
4	477	1009.463568511267	38.094931346794
4	480	1013.037357248645	40.513001806952
4	483	1020.180978884804	40.444745860228
4	484	1023.084740516107	42.130220223391
4	487	1027.660759397257	42.201809007273
4	488	1038.873630203514	46.559489613423
4	489	1043.944634716052	32.254757476958
4	490	1051.974560053222	35.548766345809
4	498	1065.492905288927	41.744954663911
4	499	1068.248685505842	12.001773858907
4	502	1080.840090636097	18.431193807582
4	503	1083.418901657311	9.49859414897
4	506	1086.455481018153	0.042717332912
4	523	1130.983211516893	1.479080449599
4	524	1133.134298270059	2.996607303514
4	530	1142.125729052923	0
4	533	1144.870112236545	1.645999760784
4	544	1167.010529176708	1.830816765479
4	545	1167.077876820099	1.779581680293
4	554	1194.743970844658	0
4	571	1247.406001571505	30.004623988333
4	574	1250.06224420923	14.985403419494
4	577	1255.217118406827	17.560465436185
4	578	1256.057119688715	16.727279514499
4	579	1268.288324186229	25.871119062722
4	580	1268.296738828658	19.096361080925
4	583	1274.03089072359	21.023858585517
4	584	1275.35368745365	4.638593525404
4	590	1289.327280199972	2.187140387206
4	596	1311.575579480774	0
4	599	1313.560797239504	0.919165515927
4	602	1316.994823514032	0
4	605	1319.287152057962	1.226286625775
4	608	1328.019285020217	0
4	611	1330.670337975008	0
4	614	1337.020382383588	3.04973775571
4	617	1340.742713307508	0
4	625	1358.595437896056	11.824425658674
4	636	1363.31909801837	12.048627887108
4	639	1364.732233955939	5.500143270086
4	640	1367.086033029721	7.523915213696
4	641	1367.613060857958	7.471653590949
4	642	1370.56142064232	8.180483854086
4	643	1371.262329976146	8.815773173891
4	646	1373.28309607901	8.709782721424
4	649	1378.459854131737	7.02913151983
4	650	1383.80270044349	7.320909146047
4	653	1388.535971260675	0
4	658	1397.643288384932	6.717604095562
4	661	1403.481563850345	7.221477074986
4	662	1405.075670749963	6.549568546461
4	665	1413.164292923553	0
4	676	1446.820779973221	8.377761772113
4	677	1450.953240593545	4.710822475124
4	680	1453.186844739724	0.297337270648
4	683	1456.9610113342	2.34452734396
4	686	1457.138915665163	0.032108298855
4	695	1465.652586230435	3.420944881974
4	700	1466.927314276571	3.586163772126
4	701	1468.479898809018	3.961059157051
4	706	1475.30264567675	9.831316064602
4	707	1476.030993607121	10.353954846837
4	710	1477.213911519443	10.872306616456
4	720	1485.261532002955	14.296875202775
4	730	1500.193517197138	25.9830409383
4	731	1502.99920040679	26.200418527515
4	732	1507.57481922158	29.79657397262
4	735	1512.500146500794	30.413064993846
4	736	1514.23773443096	31.996106514208
4	742	1524.53727951922	36.074057356717
4	743	1528.297481499736	37.469280413472
4	765	1553.960987215171	62.360887268141
4	766	1558.205343074187	48.57617678559
4	767	1564.595854085733	50.076466525938
4	768	1566.389054756347	37.528106483986
4	769	1569.213458810149	37.3115986482
4	770	1572.010426594913	36.239121594558
4	773	1573.607505723116	31.03268767132
4	774	1575.294213611697	29.154062288459
4	783	1601.206476467426	50.921024936546
4	784	1602.177679382877	51.556789056946
4	785	1602.512686630071	51.600800124217
4	797	1629.607126882043	78.218857025732
4	798	1631.169175664306	58.182354526919
4	799	1631.594260520014	53.418306872661
4	800	1633.852731790413	25.985831560345
4	801	1634.649211124781	24.242735668025
4	804	1639.363016279643	19.625867870464
4	805	1639.677180058164	16.421566913301
4	806	1646.001506502854	9.830883575769
4	809	1648.327346871496	1.051147472108
4	812	1651.659692131474	0.002480673288
4	815	1653.787808464236	0.420210863074
4	826	1678.13443436097	1.091121891259
4	827	1687.48553597381	9.815891931628
4	830	1695.813369597314	5.955045797855
4	833	1698.335531708753	1.479127401227
4	836	1700.991838746304	0.375742922472
4	841	1707.078367469954	3.261048928304
4	842	1707.756819414392	3.797934709788
4	848	1721.840881323087	0
4	851	1738.639292207234	0
4	854	1740.28301290746	0
4	857	1741.94231495916	0
4	860	1746.567109899774	0.288786077365
4	863	1750.021302853221	2.888324384494
4	866	1763.744959369342	0
4	869	1766.832317197775	0
4	872	1781.194061412384	0
4	875	1784.007172870224	0
4	878	1791.444793225007	0
4	890	1821.956266790574	3.188692416447
4	903	1831.481298205242	7.568803896818
4	906	1836.88054744156	12.491649501301
4	911	1850.640219290397	25.608283453241
4	912	1852.752679983089	26.01056644723
4	917	1857.88568755049	28.707789546032
4	920	1861.479290496454	31.003315625007
4	921	1861.604154860073	28.876676762339
4	922	1863.057141006844	25.220304582152
4	925	1869.528758570283	20.46571459128
4	928	1872.738213313299	17.565856369293
4	929	1873.031165782476	16.029872535308
4	930	1879.852503971676	21.339718683514
4	939	1898.847141894704	33.830823737604
4	940	1898.978015531533	28.087806229381
4	943	1905.49829786126	23.550856696138
4	946	1910.380032458885	28.06049562381
4	949	1912.314041894896	17.661970920541
4	952	1915.980926432701	18.935656113401
4	961	1929.895891004412	28.756834492132
4	964	1931.048911122341	24.883266086364
4	965	1933.970313995991	22.55571973773
4	966	1934.060829959716	20.364366704604
4	967	1935.867253204153	19.744854975727
4	968	1939.295727177613	20.307082828501
4	969	1939.884905698997	18.648765680669
4	970	1939.919975258286	14.097291754494
4	973	1945.941018683636	15.900782535642
4	974	1953.638201572601	10.993245494649
4	979	1957.008227426693	2.879407824824
4	980	1972.067964863188	17.082037997271
4	983	1977.61281586722	1.562260683359
4	986	1988.908814795108	0
4	989	1994.899296821272	0
4	992	2000.710797375236	0
4	995	2017.872222831108	0
4	998	2023.586400580186	0
4	1001	2035.149372275751	0
4	1004	2038.037744487956	1.653974555129
4	1021	2076.985001041337	24.344780129437
4	1024	2083.121142613752	29.682360065434
4	1027	2087.106262733486	30.63986369208
4	1028	2087.21310329315	19.351075117213
4	1029	2094.196393280412	17.819700568783
4	1030	2097.827657020147	16.050672989426
4	1031	2099.121437467031	15.66427917542
4	1034	2105.145380865089	0
4	1037	2135.309728064205	0
4	1040	2154.455229077172	0
4	1043	2161.699371306279	5.176624938971
4	1046	2169.554756261325	0
4	1049	2170.07863638295	0
4	1052	2186.243819973711	0.196880491606
4	1063	2201.935500490686	3.35880650831
4	1066	2204.870194730103	3.259893973843
4	1069	2208.457919011238	5.355084275688
4	1074	2229.884873974551	24.999193724742
4	1075	2231.700736379433	19.062477424721
4	1080	2241.232256567656	11.782948038964
4	1083	2243.790903999464	10.587899205735
4	1086	2245.556128183456	10.849120416152
4	1087	2247.57022515232	4.697866557249
4	1088	2251.928721877324	7.831379379204
4	1091	2255.528460384978	0
4	1097	2271.690803451792	0
4	1100	2277.261690615057	0
4	1103	2286.562431843466	0
4	1106	2288.617014748565	0
4	1111	2293.861182794371	3.665459161197
4	1114	2296.570418662668	4.781061744577
4	1115	2300.707322058444	6.221191324447
4	1118	2301.953633457741	0.231704182412
4	1121	2305.798336495527	1.165368139336
4	1130	2330.990536406921	0.233577218746
4	1133	2340.417390065918	2.320913477853
4	1136	2347.337730131784	0
4	1141	2348.646221653923	1.290941893384
4	1142	2349.327011196677	1.505799060922
4	1145	2351.802510973538	2.446563639908
4	1148	2353.957198289245	0.85592039854
4	1151	2357.724870156861	0.137796520317
4	1154	2367.894341910355	7.343624464073
4	1157	2392.293092303921	0
4	1160	2395.845929452091	0.488512436415
4	1163	2399.342039147697	0.353099767459
4	1166	2405.908167570618	6.550514604878
4	1169	2412.517867045921	6.583733315689
4	1172	2415.654602181887	0
4	1175	2419.019734344025	1.307672059584
4	1178	2429.910417302472	3.171142333494
4	1186	2447.0461351253	6.175461453557
4	1187	2448.761923986337	3.779093613736
4	1190	2458.22145645399	4.016667714313
4	1193	2463.184025075622	0
4	1196	2468.286005305125	4.82582053862
5	176	378.709152250134	1
5	178	380.27431564241	2
5	181	389.235505617551	2
5	183	390.977351324658	3
5	189	418.365243161892	2
5	196	440.53012720774	2
5	208	457.419023234562	1
5	213	468.799064145291	1
5	218	480.318230797203	1
5	221	484.90952384887	1
5	233	505.961850649434	1
5	257	554.110108776546	1
5	279	587.178436144109	1
5	281	592.643012636746	2
5	285	600.245437869745	3
5	287	600.66151758005	4
5	290	608.864634039198	4
5	296	628.992075770935	3
5	302	655.198673069575	2
5	326	721.458044270898	1
5	349	785.098536574	1
5	359	813.085741460761	1
5	377	854.831562937981	1
5	393	890.868092084467	1
5	397	892.822221156924	2
5	404	904.440978452057	2
5	411	914.024007714159	1
5	422	928.387847736111	1
5	443	951.310911062493	1
5	445	951.721988495665	2
5	450	954.912534915324	2
5	452	963.443723202907	3
5	454	968.301676543182	4
5	492	1056.246911646935	1
5	494	1057.563382410452	2
5	509	1093.973552858002	1
5	512	1101.54876270529	1
5	515	1111.932910573383	1
5	518	1127.786404134727	1
5	527	1138.483016837908	1
5	532	1143.224112475761	1
5	536	1151.149186355431	1
5	539	1161.456839193517	1
5	548	1173.797537388465	1
5	551	1191.368243655724	1
5	557	1216.415934965837	1
5	561	1217.598482219436	2
5	573	1249.200377747733	1
5	587	1277.083159288513	1
5	593	1303.717692866975	1
5	620	1346.153180175218	1
5	668	1418.001472486213	1
5	671	1436.179366792582	1
5	688	1462.231641348461	1
5	699	1466.341604902987	1
5	703	1470.96465680018	1
5	712	1477.77824524896	1
5	714	1478.053095075698	2
5	722	1488.463222162503	1
5	724	1490.418657299978	2
5	734	1509.629166288597	1
5	738	1514.519387559795	1
5	740	1522.483703326391	2
5	747	1531.901860161949	1
5	749	1535.646236770744	2
5	772	1572.986821137387	1
5	776	1578.175953647353	1
5	778	1585.241753050579	2
5	780	1587.132978603985	3
5	787	1607.866900230068	1
5	793	1620.858746337915	2
5	811	1651.657211458186	1
5	818	1663.458451971507	1
5	820	1669.807579158733	2
5	829	1689.858323799459	1
5	845	1718.415691489493	1
5	881	1800.015885119056	1
5	884	1808.0803409936	1
5	886	1810.341179370831	2
5	894	1824.388897940259	1
5	932	1881.947441165122	1
5	954	1916.122398228426	1
5	1007	2045.666673793756	1
5	1015	2059.687067641443	2
5	1051	2186.046939482105	1
5	1055	2194.833129946157	1
5	1057	2196.299699915596	2
5	1085	2244.09734249812	1
5	1094	2265.22514778348	1
5	1124	2316.970532866741	1
5	1126	2323.784024738193	2
5	1132	2338.096476588065	1
5	1159	2395.357417015676	1
5	1174	2417.712062284441	1
5	1177	2426.739274968978	1
5	1181	2439.090611052453	1
5	1199	2480.174805911224	1
5	1202	2495.979355742821	1
6	176	378.709152250134	0
6	178	380.27431564241	1
6	179	387.26412998612	1
6	181	389.235505617551	1
6	183	390.977351324658	2
6	186	396.069604089576	2
6	187	400.791103077098	1
6	189	418.365243161892	1
6	194	438.822991891783	1
6	196	440.53012720774	1
6	197	447.969807367296	1
6	198	449.046173752962	0
6	208	457.419023234562	0
6	211	459.919923033145	0
6	213	468.799064145291	0
6	214	469.961595627325	0
6	218	480.318230797203	0
6	219	481.498616872754	0
6	221	484.90952384887	0
6	224	486.526113505973	0
6	233	505.961850649434	0
6	236	507.973073964404	0
6	257	554.110108776546	0
6	266	573.390499501122	0
6	279	587.178436144109	0
6	281	592.643012636746	1
6	285	600.245437869745	2
6	287	600.66151758005	3
6	288	607.234690201813	3
6	290	608.864634039198	3
6	291	618.572193971186	3
6	292	621.302742480293	2
6	296	628.992075770935	2
6	297	638.079881241853	2
6	300	641.087722141145	1
6	302	655.198673069575	1
6	305	664.970739726196	1
6	306	667.428242152451	0
6	326	721.458044270898	0
6	327	731.995760041766	0
6	349	785.098536574	0
6	350	790.434199043576	0
6	359	813.085741460761	0
6	360	828.726445459528	0
6	377	854.831562937981	0
6	386	878.820916540899	0
6	393	890.868092084467	0
6	397	892.822221156924	1
6	398	893.485602941111	1
6	404	904.440978452057	1
6	405	908.283721521449	1
6	408	912.937986938508	0
6	411	914.024007714159	0
6	420	927.631794743047	0
6	422	928.387847736111	0
6	427	937.007234726159	0
6	443	951.310911062493	0
6	445	951.721988495665	1
6	446	952.692968754605	1
6	450	954.912534915324	1
6	452	963.443723202907	2
6	454	968.301676543182	3
6	455	968.550029607032	3
6	456	968.694572678521	2
6	461	979.172617728926	1
6	466	982.588056255362	0
6	492	1056.246911646935	0
6	494	1057.563382410452	1
6	495	1058.337912760866	1
6	498	1065.492905288927	0
6	509	1093.973552858002	0
6	510	1096.148053909966	0
6	512	1101.54876270529	0
6	513	1105.460217195216	0
6	515	1111.932910573383	0
6	516	1112.431829716918	0
6	518	1127.786404134727	0
6	523	1130.983211516893	0
6	527	1138.483016837908	0
6	528	1140.210507682986	0
6	532	1143.224112475761	0
6	533	1144.870112236545	0
6	536	1151.149186355431	0
6	537	1155.6717204243	0
6	539	1161.456839193517	0
6	544	1167.010529176708	0
6	548	1173.797537388465	0
6	549	1174.583047917537	0
6	551	1191.368243655724	0
6	552	1193.589655772503	0
6	557	1216.415934965837	0
6	561	1217.598482219436	1
6	568	1241.370638880433	1
6	571	1247.406001571505	0
6	573	1249.200377747733	0
6	574	1250.06224420923	0
6	587	1277.083159288513	0
6	590	1289.327280199972	0
6	593	1303.717692866975	0
6	594	1307.075915783547	0
6	620	1346.153180175218	0
6	625	1358.595437896056	0
6	668	1418.001472486213	0
6	669	1424.218594617786	0
6	671	1436.179366792582	0
6	676	1446.820779973221	0
6	688	1462.231641348461	0
6	695	1465.652586230435	0
6	699	1466.341604902987	0
6	700	1466.927314276571	0
6	703	1470.96465680018	0
6	706	1475.30264567675	0
6	712	1477.77824524896	0
6	714	1478.053095075698	1
6	719	1484.548419427029	1
6	720	1485.261532002955	0
6	722	1488.463222162503	0
6	724	1490.418657299978	1
6	729	1492.743952240616	1
6	730	1500.193517197138	0
6	734	1509.629166288597	0
6	735	1512.500146500794	0
6	738	1514.519387559795	0
6	740	1522.483703326391	1
6	741	1523.052648195821	1
6	742	1524.53727951922	0
6	747	1531.901860161949	0
6	749	1535.646236770744	1
6	754	1543.415402602147	1
6	765	1553.960987215171	0
6	772	1572.986821137387	0
6	773	1573.607505723116	0
6	776	1578.175953647353	0
6	778	1585.241753050579	1
6	780	1587.132978603985	2
6	781	1597.24420944856	2
6	782	1600.306697106528	1
6	783	1601.206476467426	0
6	787	1607.866900230068	0
6	793	1620.858746337915	1
6	796	1624.110468908895	1
6	797	1629.607126882043	0
6	811	1651.657211458186	0
6	812	1651.659692131474	0
6	818	1663.458451971507	0
6	820	1669.807579158733	1
6	821	1675.900248708249	1
6	826	1678.13443436097	0
6	829	1689.858323799459	0
6	830	1695.813369597314	0
6	845	1718.415691489493	0
6	846	1719.892979864709	0
6	881	1800.015885119056	0
6	882	1801.443848512824	0
6	884	1808.0803409936	0
6	886	1810.341179370831	1
6	887	1811.251639922561	1
6	890	1821.956266790574	0
6	894	1824.388897940259	0
6	903	1831.481298205242	0
6	932	1881.947441165122	0
6	939	1898.847141894704	0
6	954	1916.122398228426	0
6	961	1929.895891004412	0
6	1007	2045.666673793756	0
6	1015	2059.687067641443	1
6	1016	2064.409202794855	1
6	1021	2076.985001041337	0
6	1051	2186.046939482105	0
6	1052	2186.243819973711	0
6	1055	2194.833129946157	0
6	1057	2196.299699915596	1
6	1058	2196.527599140706	1
6	1063	2201.935500490686	0
6	1085	2244.09734249812	0
6	1086	2245.556128183456	0
6	1094	2265.22514778348	0
6	1095	2265.508482671545	0
6	1124	2316.970532866741	0
6	1126	2323.784024738193	1
6	1129	2330.803701978794	1
6	1130	2330.990536406921	0
6	1132	2338.096476588065	0
6	1133	2340.417390065918	0
6	1159	2395.357417015676	0
6	1160	2395.845929452091	0
6	1174	2417.712062284441	0
6	1175	2419.019734344025	0
6	1177	2426.739274968978	0
6	1178	2429.910417302472	0
6	1181	2439.090611052453	0
6	1186	2447.0461351253	0
6	1199	2480.174805911224	0
6	1200	2489.412421547904	0
6	1202	2495.979355742821	0
6	1203	2498.083814736786	0
7	176	378.709152250134	0
7	179	387.26412998612	6.98981434371
7	186	396.069604089576	6.834098472025
7	187	400.791103077098	9.81375175244
7	194	438.822991891783	20.457748729891
7	197	447.969807367296	7.439680159556
7	208	457.419023234562	0
7	213	468.799064145291	0
7	218	480.318230797203	0
7	221	484.90952384887	0
7	233	505.961850649434	0
7	257	554.110108776546	0
7	279	587.178436144109	0
7	288	607.234690201813	14.591677565067
7	291	618.572193971186	18.326756101441
7	292	621.302742480293	20.641224900243
7	297	638.079881241853	29.215247202655
7	300	641.087722141145	12.09564637021
7	305	664.970739726196	9.772066656621
7	326	721.458044270898	0
7	349	785.098536574	0
7	359	813.085741460761	0
7	377	854.831562937981	0
7	393	890.868092084467	0
7	398	893.485602941111	0.663381784187
7	405	908.283721521449	3.842743069392
7	411	914.024007714159	0
7	422	928.387847736111	0
7	443	951.310911062493	0
7	446	952.692968754605	0.97098025894
7	455	968.550029607032	13.637494691708
7	456	968.694572678521	5.250849475614
7	461	979.172617728926	10.870941185744
7	492	1056.246911646935	0
7	495	1058.337912760866	0.774530350414
7	509	1093.973552858002	0
7	512	1101.54876270529	0
7	515	1111.932910573383	0
7	518	1127.786404134727	0
7	527	1138.483016837908	0
7	532	1143.224112475761	0
7	536	1151.149186355431	0
7	539	1161.456839193517	0
7	548	1173.797537388465	0
7	551	1191.368243655724	0
7	557	1216.415934965837	0
7	568	1241.370638880433	23.772156660997
7	573	1249.200377747733	0
7	587	1277.083159288513	0
7	593	1303.717692866975	0
7	620	1346.153180175218	0
7	668	1418.001472486213	0
7	671	1436.179366792582	0
7	688	1462.231641348461	0
7	699	1466.341604902987	0
7	703	1470.96465680018	0
7	712	1477.77824524896	0
7	719	1484.548419427029	6.495324351331
7	722	1488.463222162503	0
7	729	1492.743952240616	2.325294940638
7	734	1509.629166288597	0
7	738	1514.519387559795	0
7	741	1523.052648195821	0.56894486943
7	747	1531.901860161949	0
7	754	1543.415402602147	7.769165831403
7	772	1572.986821137387	0
7	776	1578.175953647353	0
7	781	1597.24420944856	12.002456397981
7	782	1600.306697106528	13.173718502543
7	787	1607.866900230068	0
7	796	1624.110468908895	3.25172257098
7	811	1651.657211458186	0
7	818	1663.458451971507	0
7	821	1675.900248708249	6.092669549516
7	829	1689.858323799459	0
7	845	1718.415691489493	0
7	881	1800.015885119056	0
7	884	1808.0803409936	0
7	887	1811.251639922561	0.91046055173
7	894	1824.388897940259	0
7	932	1881.947441165122	0
7	954	1916.122398228426	0
7	1007	2045.666673793756	0
7	1016	2064.409202794855	4.722135153412
7	1051	2186.046939482105	0
7	1055	2194.833129946157	0
7	1058	2196.527599140706	0.22789922511
7	1085	2244.09734249812	0
7	1094	2265.22514778348	0
7	1124	2316.970532866741	0
7	1129	2330.803701978794	7.019677240601
7	1132	2338.096476588065	0
7	1159	2395.357417015676	0
7	1174	2417.712062284441	0
7	1177	2426.739274968978	0
7	1181	2439.090611052453	0
7	1199	2480.174805911224	0
7	1202	2495.979355742821	0
8	179	387.26412998612	26
8	186	396.069604089576	27
8	187	400.791103077098	28
8	194	438.822991891783	29
8	197	447.969807367296	30
8	198	449.046173752962	31
8	211	459.919923033145	32
8	214	469.961595627325	33
8	219	481.498616872754	34
8	224	486.526113505973	35
8	236	507.973073964404	36
8	266	573.390499501122	37
8	288	607.234690201813	38
8	291	618.572193971186	39
8	292	621.302742480293	40
8	297	638.079881241853	41
8	300	641.087722141145	42
8	305	664.970739726196	43
8	306	667.428242152451	44
8	327	731.995760041766	45
8	350	790.434199043576	46
8	360	828.726445459528	47
8	386	878.820916540899	48
8	398	893.485602941111	49
8	405	908.283721521449	50
8	408	912.937986938508	51
8	420	927.631794743047	52
8	427	937.007234726159	53
8	446	952.692968754605	54
8	455	968.550029607032	55
8	456	968.694572678521	56
8	461	979.172617728926	57
8	466	982.588056255362	58
8	495	1058.337912760866	59
8	498	1065.492905288927	60
8	510	1096.148053909966	61
8	513	1105.460217195216	62
8	516	1112.431829716918	63
8	523	1130.983211516893	64
8	528	1140.210507682986	65
8	533	1144.870112236545	66
8	537	1155.6717204243	67
8	544	1167.010529176708	68
8	549	1174.583047917537	69
8	552	1193.589655772503	70
8	568	1241.370638880433	71
8	571	1247.406001571505	72
8	574	1250.06224420923	73
8	590	1289.327280199972	74
8	594	1307.075915783547	75
8	625	1358.595437896056	76
8	669	1424.218594617786	77
8	676	1446.820779973221	78
8	695	1465.652586230435	79
8	700	1466.927314276571	80
8	706	1475.30264567675	81
8	719	1484.548419427029	82
8	720	1485.261532002955	83
8	729	1492.743952240616	84
8	730	1500.193517197138	85
8	735	1512.500146500794	86
8	741	1523.052648195821	87
8	742	1524.53727951922	88
8	754	1543.415402602147	89
8	765	1553.960987215171	90
8	773	1573.607505723116	91
8	781	1597.24420944856	92
8	782	1600.306697106528	93
8	783	1601.206476467426	94
8	796	1624.110468908895	95
8	797	1629.607126882043	96
8	812	1651.659692131474	97
8	821	1675.900248708249	98
8	826	1678.13443436097	99
8	830	1695.813369597314	100
8	846	1719.892979864709	101
8	882	1801.443848512824	102
8	887	1811.251639922561	103
8	890	1821.956266790574	104
8	903	1831.481298205242	105
8	939	1898.847141894704	106
8	961	1929.895891004412	107
8	1016	2064.409202794855	108
8	1021	2076.985001041337	109
8	1052	2186.243819973711	110
8	1058	2196.527599140706	111
8	1063	2201.935500490686	112
8	1086	2245.556128183456	113
8	1095	2265.508482671545	114
8	1129	2330.803701978794	115
8	1130	2330.990536406921	116
8	1133	2340.417390065918	117
8	1160	2395.845929452091	118
8	1175	2419.019734344025	119
8	1178	2429.910417302472	120
8	1186	2447.0461351253	121
8	1200	2489.412421547904	122
8	1203	2498.083814736786	123
9	179	387.26412998612	8.554977735986
9	186	396.069604089576	15.795288447166
9	187	400.791103077098	11.555597459547
9	194	438.822991891783	47.845640567125
9	197	447.969807367296	29.604564205404
9	198	449.046173752962	8.516046545222
9	211	459.919923033145	2.500899798583
9	214	469.961595627325	1.162531482034
9	219	481.498616872754	1.180386075551
9	224	486.526113505973	1.616589657103
9	236	507.973073964404	2.01122331497
9	266	573.390499501122	19.280390724576
9	288	607.234690201813	20.056254057704
9	291	618.572193971186	25.92918133444
9	292	621.302742480293	21.057304610548
9	297	638.079881241853	37.418363661803
9	300	641.087722141145	32.223088101947
9	305	664.970739726196	35.978663955261
9	306	667.428242152451	12.229569082876
9	327	731.995760041766	10.537715770868
9	350	790.434199043576	5.335662469576
9	360	828.726445459528	15.640703998767
9	386	878.820916540899	23.989353602918
9	398	893.485602941111	2.617510856644
9	405	908.283721521449	15.461500364525
9	408	912.937986938508	8.497008486451
9	420	927.631794743047	13.607787028888
9	427	937.007234726159	8.619386990048
9	446	952.692968754605	1.382057692112
9	455	968.550029607032	16.828041111367
9	456	968.694572678521	13.782037763197
9	461	979.172617728926	15.728894526019
9	466	982.588056255362	14.28637971218
9	495	1058.337912760866	2.091001113931
9	498	1065.492905288927	7.929522878475
9	510	1096.148053909966	2.174501051964
9	513	1105.460217195216	3.911454489926
9	516	1112.431829716918	0.498919143535
9	523	1130.983211516893	3.196807382166
9	528	1140.210507682986	1.727490845078
9	533	1144.870112236545	1.645999760784
9	537	1155.6717204243	4.522534068869
9	544	1167.010529176708	5.553689983191
9	549	1174.583047917537	0.785510529072
9	552	1193.589655772503	2.221412116779
9	568	1241.370638880433	24.954703914596
9	571	1247.406001571505	29.807519352069
9	574	1250.06224420923	0.861866461497
9	590	1289.327280199972	12.244120911459
9	594	1307.075915783547	3.358222916572
9	625	1358.595437896056	12.442257720838
9	669	1424.218594617786	6.217122131573
9	676	1446.820779973221	10.641413180639
9	695	1465.652586230435	3.420944881974
9	700	1466.927314276571	0.585709373584
9	706	1475.30264567675	4.33798887657
9	719	1484.548419427029	6.770174178069
9	720	1485.261532002955	7.208436927257
9	729	1492.743952240616	4.280730078113
9	730	1500.193517197138	9.77485989716
9	735	1512.500146500794	2.870980212197
9	741	1523.052648195821	8.533260636026
9	742	1524.53727951922	2.053576192829
9	754	1543.415402602147	11.513542440198
9	765	1553.960987215171	18.314750444427
9	773	1573.607505723116	0.620684585729
9	781	1597.24420944856	19.068255801207
9	782	1600.306697106528	15.064944055949
9	783	1601.206476467426	14.073497863441
9	796	1624.110468908895	16.243568678827
9	797	1629.607126882043	8.748380544128
9	812	1651.659692131474	0.002480673288
9	821	1675.900248708249	12.441796736742
9	826	1678.13443436097	8.326855202237
9	830	1695.813369597314	5.955045797855
9	846	1719.892979864709	1.477288375216
9	882	1801.443848512824	1.427963393768
9	887	1811.251639922561	3.171298928961
9	890	1821.956266790574	11.615087419743
9	903	1831.481298205242	7.092400264983
9	939	1898.847141894704	16.899700729582
9	961	1929.895891004412	13.773492775986
9	1016	2064.409202794855	18.742529001099
9	1021	2076.985001041337	17.297933399894
9	1052	2186.243819973711	0.196880491606
9	1058	2196.527599140706	1.694469194549
9	1063	2201.935500490686	5.63580057509
9	1086	2245.556128183456	1.458785685336
9	1095	2265.508482671545	0.283334888065
9	1129	2330.803701978794	13.833169112053
9	1130	2330.990536406921	7.206511668728
9	1133	2340.417390065918	2.320913477853
9	1160	2395.845929452091	0.488512436415
9	1175	2419.019734344025	1.307672059584
9	1178	2429.910417302472	3.171142333494
9	1186	2447.0461351253	7.955524072847
9	1200	2489.412421547904	9.23761563668
9	1203	2498.083814736786	2.104458993965
10	208	457.419023234562	15
10	213	468.799064145291	16
10	279	587.178436144109	17
10	349	785.098536574	18
10	393	890.868092084467	19
10	411	914.024007714159	20
10	422	928.387847736111	21
10	443	951.310911062493	22
10	492	1056.246911646935	23
10	532	1143.224112475761	24
10	573	1249.200377747733	25
10	688	1462.231641348461	26
10	699	1466.341604902987	27
10	703	1470.96465680018	28
10	712	1477.77824524896	29
10	722	1488.463222162503	30
10	734	1509.629166288597	31
10	738	1514.519387559795	32
10	747	1531.901860161949	33
10	772	1572.986821137387	34
10	776	1578.175953647353	35
10	787	1607.866900230068	36
10	811	1651.657211458186	37
10	829	1689.858323799459	38
10	894	1824.388897940259	39
10	932	1881.947441165122	40
10	954	1916.122398228426	41
10	1051	2186.046939482105	42
10	1085	2244.09734249812	43
10	1132	2338.096476588065	44
10	1159	2395.357417015676	45
10	1174	2417.712062284441	46
10	1177	2426.739274968978	47
11	1204	2500	0.1112
12	1204	2500	0.0492

