version 2
run experiments_easy_game_mode1-1924-20230308-12:08:48-28409
attr configname experiments_easy_game_mode1
attr datetime 20230308-12:08:48
attr experiment experiments_easy_game_mode1
attr inifile omnetpp.ini
attr iterationvars "$0=7.5, $1=2, $2=0"
attr iterationvarsf 7.5,2,0-
attr measurement "$0=7.5, $1=2, $2=0"
attr network Network
attr processid 28409
attr repetition 4
attr replication #4
attr resultdir results
attr runnumber 1924
attr seedset 4
param *.boss.arrival_mean 20
param *.boss.service_mean 7.5
param *.minion.arrival_mean 10
param *.minion.service_mean 2
param *.player.recover_rate_x 0
param **.minion.arrival_distribution 0
param **.minion.service_distribution 0
param **.boss.arrival_distribution 0
param **.boss.service_distribution 0

vector 0 Network.player boss_defeated_stat:vector ETV
attr source signal_boss_defeated
vector 1 Network.player boss_jobs_queue_number_stat:vector ETV
attr source signal_boss_jobs_queue_number
vector 2 Network.player boss_response_time_stat:vector ETV
attr source signal_boss_response_time
vector 3 Network.player minion_jobs_number_stat:vector ETV
attr source signal_minion_jobs_number
vector 4 Network.player minion_jobs_queue_number_stat:vector ETV
attr source signal_minion_jobs_queue_number
vector 5 Network.player minion_waiting_time_stat:vector ETV
attr source signal_minion_waiting_time
vector 6 Network.player minion_defeated_stat:vector ETV
attr source signal_minion_defeated
vector 7 Network.player minion_response_time_stat:vector ETV
attr source signal_minion_response_time
vector 8 Network.player boss_jobs_number_stat:vector ETV
attr source signal_boss_jobs_number
vector 9 Network.player boss_waiting_time_stat:vector ETV
attr source signal_boss_waiting_time
vector 10 Network.player minion_recovered_stat:vector ETV
attr source signal_minion_recovered
vector 11 Network.player minion_throughput:vector ETV
attr source signal_minion_throughput
vector 12 Network.player boss_throughput:vector ETV
attr source signal_boss_throughput
0	192	352.064049225192	15
0	204	356.642687665543	16
0	215	392.967718111735	17
0	228	429.942746501394	18
0	229	437.515269952665	19
0	256	485.198871289009	20
0	267	500.286579714802	21
0	273	520.453402744385	22
0	287	549.833941162375	23
0	291	565.931844772775	24
0	296	592.606469810357	25
0	303	605.133961123978	26
0	306	607.155820987178	27
0	319	621.432590850196	28
0	320	622.338057921247	29
0	328	636.812230589548	30
0	339	646.782536603397	31
0	340	653.607167627347	32
0	348	670.607566991094	33
0	358	691.226677272519	34
0	374	721.351116296981	35
0	395	739.866418255326	36
0	396	743.53692868324	37
0	402	751.005430879881	38
0	405	779.658188958513	39
0	410	792.664179012638	40
0	426	814.667398352422	41
0	452	866.116521611086	42
0	463	889.001490171987	43
0	466	895.148017945927	44
0	479	924.284705480124	45
0	489	975.956553305137	46
0	492	1009.543138625212	47
0	499	1038.367410989164	48
0	502	1045.530772236547	49
0	503	1046.691610638529	50
0	518	1107.213942634449	51
0	526	1138.070746804877	52
0	527	1140.415513165828	53
0	548	1197.253614902299	54
0	566	1226.592096517297	55
0	571	1244.714908052656	56
0	572	1247.250179126965	57
0	575	1254.333446597441	58
0	587	1282.86280922768	59
0	594	1298.278048474712	60
0	595	1298.780403922409	61
0	605	1336.821987137071	62
0	610	1345.602436389136	63
0	621	1365.287859031591	64
0	622	1371.312884651917	65
0	627	1400.874048949812	66
0	657	1441.469548762007	67
0	671	1468.028288398775	68
0	672	1471.219212622738	69
0	681	1479.830675734144	70
0	684	1481.953238068923	71
0	698	1515.578211615484	72
0	705	1543.52965206762	73
0	725	1598.826271573816	74
0	735	1616.50277168511	75
0	744	1635.609721368094	76
0	752	1660.891177878937	77
0	759	1682.125403550246	78
0	773	1706.721230890398	79
0	782	1726.665298530297	80
0	783	1727.004090784828	81
0	786	1731.200135713767	82
0	800	1753.119925078262	83
0	806	1796.731131045781	84
0	810	1808.299541895156	85
0	818	1821.720021273583	86
0	831	1861.336599996914	87
0	848	1888.319860360389	88
0	851	1895.181621144714	89
0	859	1921.071775788286	90
0	860	1922.557769178731	91
0	869	1945.523297712777	92
0	906	2057.735889363654	93
0	909	2072.632831071072	94
0	922	2090.601010599737	95
0	929	2105.713983836623	96
0	930	2110.201246222558	97
0	931	2113.533052326732	98
0	938	2140.182743977589	99
0	939	2143.69504867875	100
0	940	2144.788464798934	101
0	941	2144.876750717191	102
0	948	2158.656002020599	103
0	951	2159.087763640725	104
0	956	2178.120157508183	105
0	959	2190.16836840703	106
0	995	2234.859237258271	107
0	998	2242.65627863606	108
0	1031	2333.331464192952	109
0	1034	2334.533116538038	110
0	1041	2342.911399056848	111
0	1044	2353.670688158276	112
0	1069	2393.748119399343	113
0	1070	2394.860611514291	114
0	1081	2409.535768596474	115
0	1099	2451.017035653936	116
0	1100	2455.486124249863	117
0	1103	2463.445474533355	118
0	1106	2467.546455616368	119
0	1113	2482.566805014882	120
1	192	352.064049225192	0
1	203	356.5813254123	0
1	204	356.642687665543	0
1	206	362.521660136066	0
1	215	392.967718111735	0
1	221	400.41477839754	0
1	223	400.989063535264	1
1	228	429.942746501394	1
1	229	437.515269952665	0
1	255	478.265615825747	0
1	256	485.198871289009	0
1	266	498.462216923946	0
1	267	500.286579714802	0
1	272	506.274101154578	0
1	273	520.453402744385	0
1	284	543.861325420206	0
1	287	549.833941162375	0
1	290	560.04194327393	0
1	291	565.931844772775	0
1	293	586.69130007823	0
1	296	592.606469810357	0
1	302	604.735245203313	0
1	303	605.133961123978	0
1	305	605.155777816588	0
1	306	607.155820987178	0
1	308	611.966540144215	0
1	310	614.333274271427	1
1	319	621.432590850196	1
1	320	622.338057921247	0
1	327	634.520473617099	0
1	328	636.812230589548	0
1	334	641.589042052045	0
1	338	646.140911074391	1
1	339	646.782536603397	1
1	340	653.607167627347	0
1	347	669.370048180619	0
1	348	670.607566991094	0
1	355	676.089550307947	0
1	358	691.226677272519	0
1	371	715.645460968857	0
1	374	721.351116296981	0
1	392	735.110182554916	0
1	394	739.538941641431	1
1	395	739.866418255326	1
1	396	743.53692868324	0
1	401	749.503152676415	0
1	402	751.005430879881	0
1	404	770.914674302833	0
1	405	779.658188958513	0
1	409	787.110693257764	0
1	410	792.664179012638	0
1	425	811.167204134008	0
1	426	814.667398352422	0
1	449	858.399036366918	0
1	452	866.116521611086	0
1	454	867.088444874552	0
1	460	881.809084173332	1
1	463	889.001490171987	1
1	466	895.148017945927	0
1	478	913.018282051986	0
1	479	924.284705480124	0
1	488	968.873454385473	0
1	489	975.956553305137	0
1	491	1002.51878157638	0
1	492	1009.543138625212	0
1	494	1029.242586038515	0
1	498	1033.641092825581	1
1	499	1038.367410989164	1
1	501	1039.791114202476	1
1	502	1045.530772236547	1
1	503	1046.691610638529	0
1	515	1099.489056947826	0
1	518	1107.213942634449	0
1	521	1110.541336198966	0
1	523	1123.489536725241	1
1	526	1138.070746804877	1
1	527	1140.415513165828	0
1	545	1194.221935883371	0
1	548	1197.253614902299	0
1	557	1216.190203000085	0
1	561	1220.406967291869	1
1	563	1225.154657742576	2
1	566	1226.592096517297	2
1	570	1240.638952913731	2
1	571	1244.714908052656	2
1	572	1247.250179126965	1
1	575	1254.333446597441	0
1	584	1273.59487077883	0
1	587	1282.86280922768	0
1	589	1286.95495848667	0
1	593	1294.658978465549	1
1	594	1298.278048474712	1
1	595	1298.780403922409	0
1	602	1324.434619982293	0
1	604	1331.395607018128	1
1	605	1336.821987137071	1
1	610	1345.602436389136	0
1	616	1355.60478524757	0
1	620	1362.793164268834	1
1	621	1365.287859031591	1
1	622	1371.312884651917	0
1	626	1400.224333753695	0
1	627	1400.874048949812	0
1	652	1435.416693770565	0
1	657	1441.469548762007	0
1	662	1451.229788169275	0
1	670	1467.31286884861	1
1	671	1468.028288398775	1
1	672	1471.219212622738	0
1	680	1476.276237015556	0
1	681	1479.830675734144	0
1	683	1480.532117879222	0
1	684	1481.953238068923	0
1	695	1512.620878371213	0
1	698	1515.578211615484	0
1	704	1537.674109379175	0
1	705	1543.52965206762	0
1	722	1595.678269176451	0
1	725	1598.826271573816	0
1	734	1616.104092815001	0
1	735	1616.50277168511	0
1	743	1632.557720265987	0
1	744	1635.609721368094	0
1	749	1647.794972004337	0
1	752	1660.891177878937	0
1	758	1680.412202636077	0
1	759	1682.125403550246	0
1	770	1697.409528314427	0
1	773	1706.721230890398	0
1	779	1724.988876512068	0
1	781	1725.23706083006	1
1	782	1726.665298530297	1
1	783	1727.004090784828	0
1	785	1728.758263676249	0
1	786	1731.200135713767	0
1	797	1752.522744556116	0
1	800	1753.119925078262	0
1	805	1792.921853419995	0
1	806	1796.731131045781	0
1	809	1808.22155861746	0
1	810	1808.299541895156	0
1	815	1820.926754352695	0
1	818	1821.720021273583	0
1	820	1822.575584828858	0
1	831	1861.336599996914	0
1	845	1886.804862313205	0
1	847	1887.079489260505	1
1	848	1888.319860360389	1
1	851	1895.181621144714	0
1	854	1900.930256248978	0
1	858	1907.440788448399	1
1	859	1921.071775788286	1
1	860	1922.557769178731	0
1	866	1935.405271074888	0
1	869	1945.523297712777	0
1	905	2054.337250358517	0
1	906	2057.735889363654	0
1	908	2070.533405052142	0
1	909	2072.632831071072	0
1	911	2075.646756539144	0
1	913	2076.914782185927	1
1	915	2079.133756545541	2
1	917	2081.549383941071	3
1	919	2081.878085919375	4
1	922	2090.601010599737	4
1	926	2095.149543605838	4
1	928	2103.509230131846	5
1	929	2105.713983836623	5
1	930	2110.201246222558	4
1	931	2113.533052326732	3
1	935	2116.197895522037	3
1	938	2140.182743977589	3
1	939	2143.69504867875	2
1	940	2144.788464798934	1
1	941	2144.876750717191	0
1	943	2149.223735525897	0
1	947	2154.144608735228	1
1	948	2158.656002020599	1
1	950	2159.045226232794	1
1	951	2159.087763640725	1
1	953	2159.7706300103	1
1	956	2178.120157508183	1
1	959	2190.16836840703	0
1	986	2214.316810083452	0
1	992	2223.374868222643	1
1	995	2234.859237258271	1
1	998	2242.65627863606	0
1	1022	2312.67934090531	0
1	1024	2313.820088273974	1
1	1026	2314.04164474955	2
1	1031	2333.331464192952	2
1	1034	2334.533116538038	1
1	1040	2342.03911326403	1
1	1041	2342.911399056848	1
1	1044	2353.670688158276	0
1	1060	2372.772414252373	0
1	1062	2380.837896134975	1
1	1069	2393.748119399343	1
1	1070	2394.860611514291	0
1	1080	2403.964648935548	0
1	1081	2409.535768596474	0
1	1094	2433.433079546767	0
1	1098	2447.93178109452	1
1	1099	2451.017035653936	1
1	1100	2455.486124249863	0
1	1102	2461.038193796627	0
1	1103	2463.445474533355	0
1	1105	2467.308126790654	0
1	1106	2467.546455616368	0
1	1112	2475.318419721545	0
1	1113	2482.566805014882	0
1	1121	2497.177872175454	0
2	192	352.064049225192	12.322219724629
2	204	356.642687665543	0.061362253243
2	215	392.967718111735	30.446057975669
2	228	429.942746501394	29.527968103854
2	229	437.515269952665	36.526206417401
2	256	485.198871289009	6.933255463262
2	267	500.286579714802	1.824362790856
2	273	520.453402744385	14.179301589807
2	287	549.833941162375	5.972615742169
2	291	565.931844772775	5.889901498845
2	296	592.606469810357	5.915169732127
2	303	605.133961123978	0.398715920665
2	306	607.155820987178	2.00004317059
2	319	621.432590850196	9.466050705981
2	320	622.338057921247	8.00478364982
2	328	636.812230589548	2.291756972449
2	339	646.782536603397	5.193494551352
2	340	653.607167627347	7.466256552956
2	348	670.607566991094	1.237518810475
2	358	691.226677272519	15.137126964572
2	374	721.351116296981	5.705655328124
2	395	739.866418255326	4.75623570041
2	396	743.53692868324	3.997987041809
2	402	751.005430879881	1.502278203466
2	405	779.658188958513	8.74351465568
2	410	792.664179012638	5.553485754874
2	426	814.667398352422	3.500194218414
2	452	866.116521611086	7.717485244168
2	463	889.001490171987	21.913045297435
2	466	895.148017945927	13.338933772595
2	479	924.284705480124	11.266423428138
2	489	975.956553305137	7.083098919664
2	492	1009.543138625212	7.024357048832
2	499	1038.367410989164	9.124824950649
2	502	1045.530772236547	11.889679410966
2	503	1046.691610638529	6.900496436053
2	518	1107.213942634449	7.724885686623
2	526	1138.070746804877	27.529410605911
2	527	1140.415513165828	16.925976440587
2	548	1197.253614902299	3.031679018928
2	566	1226.592096517297	10.401893517212
2	571	1244.714908052656	24.307940760787
2	572	1247.250179126965	22.095521384389
2	575	1254.333446597441	13.69449368371
2	587	1282.86280922768	9.26793844885
2	594	1298.278048474712	11.323089988042
2	595	1298.780403922409	4.12142545686
2	605	1336.821987137071	12.387367154778
2	610	1345.602436389136	14.206829371008
2	621	1365.287859031591	9.683073784021
2	622	1371.312884651917	8.519720383083
2	627	1400.874048949812	0.649715196117
2	657	1441.469548762007	6.052854991442
2	671	1468.028288398775	16.7985002295
2	672	1471.219212622738	3.906343774128
2	681	1479.830675734144	3.554438718588
2	684	1481.953238068923	1.421120189701
2	698	1515.578211615484	2.957333244271
2	705	1543.52965206762	5.855542688445
2	725	1598.826271573816	3.148002397365
2	735	1616.50277168511	0.398678870109
2	744	1635.609721368094	3.052001102107
2	752	1660.891177878937	13.0962058746
2	759	1682.125403550246	1.713200914169
2	773	1706.721230890398	9.311702575971
2	782	1726.665298530297	1.676422018229
2	783	1727.004090784828	1.767029954768
2	786	1731.200135713767	2.441872037518
2	800	1753.119925078262	0.597180522146
2	806	1796.731131045781	3.809277625786
2	810	1808.299541895156	0.077983277696
2	818	1821.720021273583	0.793266920888
2	831	1861.336599996914	38.761015168056
2	848	1888.319860360389	1.514998047184
2	851	1895.181621144714	8.102131884209
2	859	1921.071775788286	20.141519539308
2	860	1922.557769178731	15.116980730332
2	869	1945.523297712777	10.118026637889
2	906	2057.735889363654	3.398639005137
2	909	2072.632831071072	2.09942601893
2	922	2090.601010599737	14.954254060593
2	929	2105.713983836623	28.799201650696
2	930	2110.201246222558	31.067489677017
2	931	2113.533052326732	31.983668385661
2	938	2140.182743977589	58.304658058214
2	939	2143.69504867875	48.545505072912
2	940	2144.788464798934	41.279234667088
2	941	2144.876750717191	28.678855195154
2	948	2158.656002020599	9.432266494702
2	951	2159.087763640725	4.943154905497
2	956	2178.120157508183	19.074931275389
2	959	2190.16836840703	30.39773839673
2	995	2234.859237258271	20.542427174819
2	998	2242.65627863606	19.281410413417
2	1031	2333.331464192952	20.652123287642
2	1034	2334.533116538038	20.713028264064
2	1041	2342.911399056848	28.869754307298
2	1044	2353.670688158276	11.631574894246
2	1069	2393.748119399343	20.97570514697
2	1070	2394.860611514291	14.022715379316
2	1081	2409.535768596474	5.571119660926
2	1099	2451.017035653936	17.583956107169
2	1100	2455.486124249863	7.554343155343
2	1103	2463.445474533355	2.407280736728
2	1106	2467.546455616368	0.238328825714
2	1113	2482.566805014882	7.248385293337
3	194	352.978059280825	1
3	196	353.419832700556	2
3	199	354.029144478105	2
3	208	367.990366123876	1
3	210	370.215756671625	2
3	212	378.052364412856	3
3	214	392.371167949294	4
3	225	406.946512179946	1
3	227	428.383531803711	2
3	233	444.011401927085	1
3	236	450.98066652757	1
3	239	451.73028784658	1
3	242	457.757667197246	1
3	245	468.537409541898	1
3	248	473.982018299906	1
3	250	474.529741610902	2
3	252	475.544180612483	3
3	258	487.096783251574	3
3	263	498.149657772508	1
3	269	504.007860976143	1
3	275	521.612487774395	1
3	278	527.923533215532	1
3	281	537.445084178704	1
3	286	548.264386181192	1
3	295	590.493629256602	1
3	299	602.20438266908	1
3	312	615.409528465206	1
3	314	618.465673972245	2
3	316	619.717847794858	3
3	318	619.833301056846	4
3	324	625.095285653623	3
3	330	639.848484542895	3
3	336	642.658770506067	2
3	344	659.594703833646	1
3	350	673.829436125857	1
3	353	675.333498500462	1
3	357	690.910142428003	2
3	361	699.537802025186	2
3	364	701.278112949638	2
3	368	705.443488769669	1
3	373	720.668128982073	1
3	376	723.310590708142	2
3	378	724.755192015371	3
3	381	726.969688862878	3
3	385	730.360630098194	2
3	389	733.528179951936	1
3	398	747.957665793117	1
3	407	785.616464863021	1
3	413	794.197517599841	1
3	415	796.623699401966	2
3	417	796.72708907059	3
3	420	801.133982897773	3
3	428	815.422787032409	1
3	430	815.608500370594	2
3	432	815.934585411496	3
3	437	825.526313810085	1
3	440	835.67500919863	1
3	443	838.293922995647	1
3	446	849.288132877701	1
3	451	862.849732286948	1
3	456	867.819189508284	2
3	458	876.595906204156	3
3	462	884.676733301921	4
3	465	890.125790668226	5
3	473	899.84808513181	1
3	476	912.201097435126	1
3	481	924.745328877657	2
3	485	960.517106469297	1
3	496	1033.384009707371	1
3	506	1049.993380740303	1
3	509	1082.984639060615	1
3	512	1088.617329153541	1
3	517	1103.125587623014	1
3	525	1134.762032603282	1
3	530	1147.048587206214	1
3	533	1147.537948956536	1
3	536	1164.904607599407	1
3	539	1178.101504796177	1
3	542	1183.818427798031	1
3	547	1195.078255801779	1
3	551	1207.401156566698	1
3	554	1214.887864769734	1
3	559	1217.974748432124	1
3	565	1226.344634059431	2
3	568	1235.378878174354	3
3	574	1248.214279567109	4
3	579	1265.493396779247	3
3	586	1276.969427052902	1
3	591	1292.311340785742	2
3	599	1308.17405787577	1
3	607	1344.116104056895	1
3	609	1345.313465627111	2
3	614	1354.599587035081	1
3	618	1356.820560843841	2
3	629	1405.804050851196	1
3	632	1418.580934377472	1
3	635	1419.365251027381	1
3	638	1424.371814798071	1
3	640	1426.080754246227	2
3	644	1430.223573916927	1
3	647	1432.174455560598	1
3	650	1433.840264766058	1
3	654	1438.239809209698	2
3	656	1439.299794285302	3
3	664	1452.654154888627	1
3	666	1457.883931666083	2
3	668	1463.273812668466	3
3	674	1472.018476230275	4
3	678	1474.9858238411	3
3	689	1488.484311171099	1
3	692	1493.700703597856	1
3	697	1514.130707624126	1
3	701	1526.978937178612	1
3	707	1560.94884828646	1
3	710	1564.5415027936	1
3	713	1570.621567227446	1
3	716	1589.074637641165	1
3	719	1594.189946417285	1
3	724	1596.105758401379	1
3	727	1599.657371185126	2
3	729	1600.459363741868	3
3	737	1618.082927982142	1
3	739	1619.408985688684	2
3	746	1643.470809558966	1
3	751	1654.772490570587	1
3	755	1669.302674711366	1
3	761	1691.348428581574	1
3	764	1692.056031350476	1
3	766	1693.557577111194	2
3	772	1702.87229380948	1
3	775	1712.519235799934	2
3	788	1740.523544655067	1
3	791	1745.556817795269	1
3	793	1746.634258612059	2
3	799	1752.693400708012	1
3	803	1790.6533783296	1
3	812	1816.797479941983	1
3	817	1821.20874573268	1
3	822	1823.300686946975	2
3	824	1833.919262889088	3
3	826	1839.387629554969	4
3	828	1840.697669255105	5
3	830	1848.201262330267	6
3	839	1880.733915395693	1
3	841	1883.06317196079	2
3	850	1893.595205370134	1
3	856	1904.705244863345	1
3	863	1932.300439084964	1
3	868	1939.475494742049	1
3	872	1963.425493522929	1
3	874	1964.026110923123	2
3	878	1969.771006203081	1
3	881	1977.582003380281	1
3	884	2004.651654727298	1
3	887	2013.816493378783	1
3	890	2026.065640661776	1
3	893	2034.283285546739	1
3	896	2037.391245495991	1
3	899	2047.716138571191	1
3	902	2049.697799527098	1
3	921	2084.366810896809	1
3	924	2095.024971664933	2
3	933	2115.576932845457	3
3	937	2132.838212740182	4
3	945	2151.954268436023	5
3	955	2175.804034837298	6
3	958	2180.444845152746	7
3	961	2190.28453943741	8
3	969	2201.54298104968	3
3	971	2203.319575982824	4
3	975	2205.190997088893	3
3	978	2208.498927757079	3
3	981	2210.034316746444	3
3	988	2218.906711902633	1
3	990	2223.371926576437	2
3	994	2224.556940303423	3
3	997	2242.344369738812	4
3	1002	2245.484935265308	3
3	1006	2250.531878277508	2
3	1008	2250.551742008903	3
3	1013	2266.636445813813	1
3	1016	2289.324407733636	1
3	1019	2290.078142997807	1
3	1028	2316.717632951859	1
3	1030	2330.117065585829	2
3	1033	2334.275765462892	3
3	1036	2335.764180382884	4
3	1038	2341.256052364237	5
3	1043	2349.061370327206	6
3	1047	2360.153948864617	6
3	1049	2362.081870274283	7
3	1056	2371.529764969959	3
3	1058	2371.729467480541	4
3	1064	2382.54474823165	5
3	1066	2385.63005962926	6
3	1068	2392.703794730356	7
3	1076	2399.773344757494	4
3	1083	2409.851191240822	3
3	1088	2419.522145450243	1
3	1090	2420.667741845603	2
3	1096	2439.880233104867	1
3	1109	2470.080629290396	1
3	1115	2494.914627525382	1
3	1117	2495.254658704516	2
4	194	352.978059280825	0
4	196	353.419832700556	1
4	197	354.015103288126	1
4	199	354.029144478105	1
4	200	354.32584862686	1
4	201	355.029952825186	0
4	208	367.990366123876	0
4	210	370.215756671625	1
4	212	378.052364412856	2
4	214	392.371167949294	3
4	216	393.294890511708	3
4	217	395.482937562246	2
4	218	395.596589120348	1
4	219	397.054636087211	0
4	225	406.946512179946	0
4	227	428.383531803711	1
4	230	440.047230175793	1
4	231	442.888167550516	0
4	233	444.011401927085	0
4	234	444.702920994341	0
4	236	450.98066652757	0
4	237	451.369088958178	0
4	239	451.73028784658	0
4	240	452.173511984843	0
4	242	457.757667197246	0
4	243	459.194566050063	0
4	245	468.537409541898	0
4	246	472.097434088325	0
4	248	473.982018299906	0
4	250	474.529741610902	1
4	252	475.544180612483	2
4	253	477.13873659417	2
4	258	487.096783251574	2
4	259	487.100718320786	2
4	260	487.652457363426	1
4	261	487.8243134781	0
4	263	498.149657772508	0
4	264	498.280632182304	0
4	269	504.007860976143	0
4	270	505.582770426347	0
4	275	521.612487774395	0
4	276	522.49328832347	0
4	278	527.923533215532	0
4	279	528.269762345352	0
4	281	537.445084178704	0
4	282	539.004901243549	0
4	286	548.264386181192	0
4	288	552.092676306234	0
4	295	590.493629256602	0
4	297	595.87506898935	0
4	299	602.20438266908	0
4	300	602.456580293484	0
4	312	615.409528465206	0
4	314	618.465673972245	1
4	316	619.717847794858	2
4	318	619.833301056846	3
4	321	622.842903598651	3
4	322	624.020463743938	2
4	324	625.095285653623	2
4	325	630.64537703528	2
4	330	639.848484542895	2
4	331	640.203190325097	2
4	332	640.706292861225	1
4	336	642.658770506067	1
4	341	655.916156496395	1
4	342	656.710221979082	0
4	344	659.594703833646	0
4	345	659.735503122394	0
4	350	673.829436125857	0
4	351	675.061339292905	0
4	353	675.333498500462	0
4	357	690.910142428003	1
4	359	696.948157702481	1
4	361	699.537802025186	1
4	362	699.829137509145	1
4	364	701.278112949638	1
4	365	701.982088146621	1
4	366	702.084797179731	0
4	368	705.443488769669	0
4	369	707.980696877457	0
4	373	720.668128982073	0
4	376	723.310590708142	1
4	378	724.755192015371	2
4	379	724.908280149941	2
4	381	726.969688862878	2
4	382	727.630132064381	2
4	383	727.650006598841	1
4	385	730.360630098194	1
4	386	732.023816987042	1
4	387	732.503121916854	0
4	389	733.528179951936	0
4	390	733.815795220533	0
4	398	747.957665793117	0
4	399	748.348397207451	0
4	407	785.616464863021	0
4	411	794.170889659853	0
4	413	794.197517599841	0
4	415	796.623699401966	1
4	417	796.72708907059	2
4	418	799.315929579703	2
4	420	801.133982897773	2
4	421	802.956142612664	2
4	422	806.752261160988	1
4	423	810.288012335196	0
4	428	815.422787032409	0
4	430	815.608500370594	1
4	432	815.934585411496	2
4	433	815.949066837567	2
4	434	816.008247856125	1
4	435	819.531010936457	0
4	437	825.526313810085	0
4	438	826.516134675429	0
4	440	835.67500919863	0
4	441	836.355203990309	0
4	443	838.293922995647	0
4	444	839.443769653917	0
4	446	849.288132877701	0
4	447	855.372449984664	0
4	451	862.849732286948	0
4	456	867.819189508284	1
4	458	876.595906204156	2
4	462	884.676733301921	3
4	465	890.125790668226	4
4	467	895.646680900141	4
4	468	896.482647174829	3
4	469	897.840633502778	2
4	470	899.30774882248	1
4	471	899.587260046429	0
4	473	899.84808513181	0
4	474	904.968509963066	0
4	476	912.201097435126	0
4	481	924.745328877657	1
4	482	931.786380179835	1
4	483	931.807886677901	0
4	485	960.517106469297	0
4	486	960.653026832087	0
4	496	1033.384009707371	0
4	504	1047.622582391857	0
4	506	1049.993380740303	0
4	507	1051.72497560779	0
4	509	1082.984639060615	0
4	510	1086.025520134257	0
4	512	1088.617329153541	0
4	513	1090.356023348568	0
4	517	1103.125587623014	0
4	519	1108.611219254582	0
4	525	1134.762032603282	0
4	528	1146.588484941674	0
4	530	1147.048587206214	0
4	531	1147.171104012166	0
4	533	1147.537948956536	0
4	534	1147.977855686865	0
4	536	1164.904607599407	0
4	537	1165.416000442521	0
4	539	1178.101504796177	0
4	540	1178.275510231018	0
4	542	1183.818427798031	0
4	543	1190.125668609626	0
4	547	1195.078255801779	0
4	549	1201.559605420611	0
4	551	1207.401156566698	0
4	552	1207.76097131951	0
4	554	1214.887864769734	0
4	555	1214.919506134236	0
4	559	1217.974748432124	0
4	565	1226.344634059431	1
4	568	1235.378878174354	2
4	574	1248.214279567109	3
4	576	1255.213948836215	3
4	577	1258.389249266941	2
4	579	1265.493396779247	2
4	580	1265.912257409539	2
4	581	1268.835935632737	1
4	582	1270.036669431929	0
4	586	1276.969427052902	0
4	591	1292.311340785742	1
4	596	1298.800388975754	1
4	597	1301.000532874608	0
4	599	1308.17405787577	0
4	600	1313.130557667499	0
4	607	1344.116104056895	0
4	609	1345.313465627111	1
4	611	1346.601185387647	1
4	612	1347.241081362229	0
4	614	1354.599587035081	0
4	618	1356.820560843841	1
4	623	1372.406477758356	1
4	624	1372.945850703505	0
4	629	1405.804050851196	0
4	630	1408.387134906341	0
4	632	1418.580934377472	0
4	633	1419.324569094421	0
4	635	1419.365251027381	0
4	636	1424.248926356382	0
4	638	1424.371814798071	0
4	640	1426.080754246227	1
4	641	1426.886866203868	1
4	642	1427.517804230659	0
4	644	1430.223573916927	0
4	645	1430.396292714293	0
4	647	1432.174455560598	0
4	648	1433.171460028803	0
4	650	1433.840264766058	0
4	654	1438.239809209698	1
4	656	1439.299794285302	2
4	658	1442.143975672069	2
4	659	1444.390947648527	1
4	660	1448.302207447712	0
4	664	1452.654154888627	0
4	666	1457.883931666083	1
4	668	1463.273812668466	2
4	674	1472.018476230275	3
4	675	1472.560786743736	3
4	676	1474.921930168584	2
4	678	1474.9858238411	2
4	685	1482.758071825018	2
4	686	1482.890107467632	1
4	687	1485.263678480575	0
4	689	1488.484311171099	0
4	690	1489.355998726988	0
4	692	1493.700703597856	0
4	693	1500.088616827868	0
4	697	1514.130707624126	0
4	699	1516.075626878629	0
4	701	1526.978937178612	0
4	702	1527.503406623078	0
4	707	1560.94884828646	0
4	708	1561.511910051384	0
4	710	1564.5415027936	0
4	711	1567.407742540318	0
4	713	1570.621567227446	0
4	714	1573.221158613563	0
4	716	1589.074637641165	0
4	717	1589.421292847307	0
4	719	1594.189946417285	0
4	720	1594.322499049812	0
4	724	1596.105758401379	0
4	727	1599.657371185126	1
4	729	1600.459363741868	2
4	730	1606.714790917608	2
4	731	1607.924102078189	1
4	732	1608.500451731879	0
4	737	1618.082927982142	0
4	739	1619.408985688684	1
4	740	1619.420529262479	1
4	741	1619.765373138772	0
4	746	1643.470809558966	0
4	747	1645.518978145078	0
4	751	1654.772490570587	0
4	753	1662.446095465302	0
4	755	1669.302674711366	0
4	756	1669.527151507341	0
4	761	1691.348428581574	0
4	762	1691.670115761529	0
4	764	1692.056031350476	0
4	766	1693.557577111194	1
4	767	1693.760832767647	1
4	768	1695.643417000904	0
4	772	1702.87229380948	0
4	775	1712.519235799934	1
4	776	1713.176347523562	1
4	777	1714.856225878472	0
4	788	1740.523544655067	0
4	789	1741.973565915402	0
4	791	1745.556817795269	0
4	793	1746.634258612059	1
4	794	1749.32240533062	1
4	795	1751.009531896077	0
4	799	1752.693400708012	0
4	801	1753.155239171365	0
4	803	1790.6533783296	0
4	807	1803.30946414585	0
4	812	1816.797479941983	0
4	813	1817.705683044755	0
4	817	1821.20874573268	0
4	822	1823.300686946975	1
4	824	1833.919262889088	2
4	826	1839.387629554969	3
4	828	1840.697669255105	4
4	830	1848.201262330267	5
4	832	1864.059014289776	5
4	833	1866.005822085459	4
4	834	1867.384704939164	3
4	835	1867.906272831722	2
4	836	1868.07336507766	1
4	837	1869.321616809694	0
4	839	1880.733915395693	0
4	841	1883.06317196079	1
4	842	1884.830529828875	1
4	843	1886.317848212036	0
4	850	1893.595205370134	0
4	852	1897.678769495858	0
4	856	1904.705244863345	0
4	861	1924.848993886956	0
4	863	1932.300439084964	0
4	864	1934.934812044259	0
4	868	1939.475494742049	0
4	870	1945.789573621934	0
4	872	1963.425493522929	0
4	874	1964.026110923123	1
4	875	1966.895722383571	1
4	876	1967.894887026954	0
4	878	1969.771006203081	0
4	879	1972.503826647493	0
4	881	1977.582003380281	0
4	882	1977.876109583978	0
4	884	2004.651654727298	0
4	885	2005.717329035963	0
4	887	2013.816493378783	0
4	888	2015.066480031141	0
4	890	2026.065640661776	0
4	891	2027.511638690655	0
4	893	2034.283285546739	0
4	894	2035.678666949199	0
4	896	2037.391245495991	0
4	897	2041.139895654372	0
4	899	2047.716138571191	0
4	900	2048.000034471376	0
4	902	2049.697799527098	0
4	903	2053.613834521565	0
4	921	2084.366810896809	0
4	924	2095.024971664933	1
4	933	2115.576932845457	2
4	937	2132.838212740182	3
4	945	2151.954268436023	4
4	955	2175.804034837298	5
4	958	2180.444845152746	6
4	961	2190.28453943741	7
4	962	2190.911956045126	7
4	963	2192.740762483234	6
4	964	2192.995035156405	5
4	965	2194.127048824151	4
4	966	2195.741537249428	3
4	967	2197.213477435729	2
4	969	2201.54298104968	2
4	971	2203.319575982824	3
4	972	2203.875229083976	3
4	973	2205.067088789962	2
4	975	2205.190997088893	2
4	976	2205.397479686981	2
4	978	2208.498927757079	2
4	979	2209.949118188976	2
4	981	2210.034316746444	2
4	982	2210.986359340143	2
4	983	2212.345251646302	1
4	984	2213.971683853901	0
4	988	2218.906711902633	0
4	990	2223.371926576437	1
4	994	2224.556940303423	2
4	997	2242.344369738812	3
4	999	2244.060563752883	3
4	1000	2244.75093327653	2
4	1002	2245.484935265308	2
4	1003	2245.6595833075	2
4	1004	2247.818667313229	1
4	1006	2250.531878277508	1
4	1008	2250.551742008903	2
4	1009	2250.874439596258	2
4	1010	2252.624161548874	1
4	1011	2258.534225910759	0
4	1013	2266.636445813813	0
4	1014	2272.933001954633	0
4	1016	2289.324407733636	0
4	1017	2289.602966379198	0
4	1019	2290.078142997807	0
4	1020	2292.239587298693	0
4	1028	2316.717632951859	0
4	1030	2330.117065585829	1
4	1033	2334.275765462892	2
4	1036	2335.764180382884	3
4	1038	2341.256052364237	4
4	1043	2349.061370327206	5
4	1045	2355.83486331164	5
4	1047	2360.153948864617	5
4	1049	2362.081870274283	6
4	1050	2365.667778560839	6
4	1051	2366.025391588584	5
4	1052	2367.205653984754	4
4	1053	2367.944707669746	3
4	1054	2368.047073077327	2
4	1056	2371.529764969959	2
4	1058	2371.729467480541	3
4	1064	2382.54474823165	4
4	1066	2385.63005962926	5
4	1068	2392.703794730356	6
4	1071	2395.122550026302	6
4	1072	2396.441412737705	5
4	1073	2397.422724758806	4
4	1074	2399.497588956906	3
4	1076	2399.773344757494	3
4	1077	2401.053898942235	3
4	1078	2402.504341297237	2
4	1083	2409.851191240822	2
4	1084	2410.569368783953	2
4	1085	2411.592916878926	1
4	1086	2413.918781687409	0
4	1088	2419.522145450243	0
4	1090	2420.667741845603	1
4	1091	2423.233539789864	1
4	1092	2423.308879440037	0
4	1096	2439.880233104867	0
4	1107	2467.858620781463	0
4	1109	2470.080629290396	0
4	1110	2474.46219022283	0
4	1115	2494.914627525382	0
4	1117	2495.254658704516	1
4	1118	2496.07094330556	1
4	1119	2496.488892627918	0
5	194	352.978059280825	0
5	197	354.015103288126	0.59527058757
5	200	354.32584862686	0.296704148755
5	215	392.967718111735	24.977351987859
5	216	393.294890511708	23.079133840083
5	217	395.482937562246	17.43057314939
5	218	395.596589120348	3.225421171054
5	229	437.515269952665	30.568757772719
5	230	440.047230175793	11.663698372082
5	233	444.011401927085	0
5	236	450.98066652757	0
5	239	451.73028784658	0
5	242	457.757667197246	0
5	245	468.537409541898	0
5	248	473.982018299906	0
5	253	477.13873659417	2.608994983268
5	256	485.198871289009	9.654690676526
5	259	487.100718320786	8.835102495039
5	260	487.652457363426	0.555674111852
5	263	498.149657772508	0
5	269	504.007860976143	0
5	275	521.612487774395	0
5	278	527.923533215532	0
5	281	537.445084178704	0
5	287	549.833941162375	1.569554981183
5	296	592.606469810357	2.112840553755
5	299	602.20438266908	0
5	320	622.338057921247	6.928529456041
5	321	622.842903598651	4.377229626406
5	322	624.020463743938	4.30261594908
5	325	630.64537703528	10.812075978434
5	328	636.812230589548	11.716944935925
5	331	640.203190325097	5.682716707998
5	332	640.706292861225	0.85780831833
5	340	653.607167627347	12.018125575302
5	341	655.916156496395	13.257385990328
5	344	659.594703833646	0
5	350	673.829436125857	0
5	353	675.333498500462	0
5	358	691.226677272519	15.137126964572
5	359	696.948157702481	6.038015274478
5	362	699.829137509145	0.291335483959
5	365	701.982088146621	0.703975196983
5	368	705.443488769669	0
5	374	721.351116296981	0.682987314908
5	379	724.908280149941	1.597689441799
5	382	727.630132064381	2.87494004901
5	383	727.650006598841	0.680317735963
5	386	732.023816987042	1.663186888848
5	389	733.528179951936	0
5	398	747.957665793117	0
5	407	785.616464863021	0
5	410	792.664179012638	5.553485754874
5	413	794.197517599841	0
5	418	799.315929579703	2.692230177737
5	421	802.956142612664	6.229053542074
5	422	806.752261160988	5.618278263215
5	428	815.422787032409	0
5	433	815.949066837567	0.340566466973
5	434	816.008247856125	0.073662444629
5	437	825.526313810085	0
5	440	835.67500919863	0
5	443	838.293922995647	0
5	446	849.288132877701	0
5	452	866.116521611086	3.266789324138
5	466	895.148017945927	28.059573071375
5	467	895.646680900141	27.827491391857
5	468	896.482647174829	19.886740970673
5	469	897.840633502778	13.163900200857
5	470	899.30774882248	9.181958154254
5	473	899.84808513181	0
5	476	912.201097435126	0
5	479	924.284705480124	11.266423428138
5	482	931.786380179835	7.041051302178
5	485	960.517106469297	0
5	503	1046.691610638529	13.307600931158
5	506	1049.993380740303	0
5	509	1082.984639060615	0
5	512	1088.617329153541	0
5	518	1107.213942634449	4.088355011435
5	527	1140.415513165828	5.653480562546
5	530	1147.048587206214	0
5	533	1147.537948956536	0
5	536	1164.904607599407	0
5	539	1178.101504796177	0
5	542	1183.818427798031	0
5	548	1197.253614902299	2.17535910052
5	551	1207.401156566698	0
5	554	1214.887864769734	0
5	575	1254.333446597441	36.358698165317
5	576	1255.213948836215	28.869314776784
5	577	1258.389249266941	23.010371092587
5	580	1265.912257409539	17.69797784243
5	581	1268.835935632737	3.34253885349
5	587	1282.86280922768	5.893382174778
5	595	1298.780403922409	11.825445435739
5	596	1298.800388975754	6.489048190012
5	599	1308.17405787577	0
5	610	1345.602436389136	1.486332332241
5	611	1346.601185387647	1.287719760536
5	614	1354.599587035081	0
5	622	1371.312884651917	15.708099404347
5	623	1372.406477758356	15.585916914515
5	629	1405.804050851196	0
5	632	1418.580934377472	0
5	635	1419.365251027381	0
5	638	1424.371814798071	0
5	641	1426.886866203868	0.806111957641
5	644	1430.223573916927	0
5	647	1432.174455560598	0
5	650	1433.840264766058	0
5	657	1441.469548762007	6.052854991442
5	658	1442.143975672069	3.904166462371
5	659	1444.390947648527	5.091153363225
5	672	1471.219212622738	18.565057734111
5	675	1472.560786743736	14.676855077653
5	676	1474.921930168584	11.648117500118
5	681	1479.830675734144	7.812199503869
5	684	1481.953238068923	6.967414227823
5	685	1482.758071825018	6.481834809462
5	686	1482.890107467632	2.35798958841
5	689	1488.484311171099	0
5	692	1493.700703597856	0
5	698	1515.578211615484	1.447503991358
5	701	1526.978937178612	0
5	707	1560.94884828646	0
5	710	1564.5415027936	0
5	713	1570.621567227446	0
5	716	1589.074637641165	0
5	719	1594.189946417285	0
5	725	1598.826271573816	2.720513172437
5	730	1606.714790917608	7.057419732482
5	731	1607.924102078189	7.464738336321
5	737	1618.082927982142	0
5	740	1619.420529262479	0.011543573795
5	746	1643.470809558966	0
5	752	1660.891177878937	6.11868730835
5	755	1669.302674711366	0
5	761	1691.348428581574	0
5	764	1692.056031350476	0
5	767	1693.760832767647	0.203255656453
5	773	1706.721230890398	3.848937080918
5	776	1713.176347523562	0.657111723628
5	788	1740.523544655067	0
5	791	1745.556817795269	0
5	794	1749.32240533062	2.688146718561
5	800	1753.119925078262	0.42652437025
5	803	1790.6533783296	0
5	806	1796.731131045781	3.809277625786
5	812	1816.797479941983	0
5	818	1821.720021273583	0.511275540903
5	831	1861.336599996914	38.761015168056
5	832	1864.059014289776	40.758327342801
5	833	1866.005822085459	32.086559196371
5	834	1867.384704939164	27.997075384195
5	835	1867.906272831722	27.208603576617
5	836	1868.07336507766	19.872102747393
5	839	1880.733915395693	0
5	842	1884.830529828875	1.767357868085
5	851	1895.181621144714	1.58641577458
5	860	1922.557769178731	17.852524315386
5	863	1932.300439084964	0
5	869	1945.523297712777	6.047802970728
5	872	1963.425493522929	0
5	875	1966.895722383571	2.869611460448
5	878	1969.771006203081	0
5	881	1977.582003380281	0
5	884	2004.651654727298	0
5	887	2013.816493378783	0
5	890	2026.065640661776	0
5	893	2034.283285546739	0
5	896	2037.391245495991	0
5	899	2047.716138571191	0
5	902	2049.697799527098	0
5	941	2144.876750717191	60.509939820382
5	959	2190.16836840703	95.143396742097
5	962	2190.911956045126	75.335023199669
5	963	2192.740762483234	59.902549743052
5	964	2192.995035156405	43.771299630508
5	965	2194.127048824151	42.172780388128
5	966	2195.741537249428	19.93750241213
5	967	2197.213477435729	16.768632282983
5	972	2203.875229083976	13.590689646566
5	973	2205.067088789962	3.524107740282
5	976	2205.397479686981	2.077903704157
5	979	2209.949118188976	4.758121100083
5	982	2210.986359340143	2.487431583064
5	983	2212.345251646302	2.310934899858
5	998	2242.65627863606	23.749566733427
5	999	2244.060563752883	20.688637176446
5	1000	2244.75093327653	20.193992973107
5	1003	2245.6595833075	3.315213568688
5	1004	2247.818667313229	2.333732047921
5	1009	2250.874439596258	0.34256131875
5	1010	2252.624161548874	2.072419539971
5	1013	2266.636445813813	0
5	1016	2289.324407733636	0
5	1019	2290.078142997807	0
5	1044	2353.670688158276	36.953055206417
5	1045	2355.83486331164	25.717797725811
5	1050	2365.667778560839	31.392013097947
5	1051	2366.025391588584	30.2612112057
5	1052	2367.205653984754	25.949601620517
5	1053	2367.944707669746	18.88333734254
5	1054	2368.047073077327	7.89312421271
5	1070	2394.860611514291	32.778741240008
5	1071	2395.122550026302	23.592785056343
5	1072	2396.441412737705	24.711945257164
5	1073	2397.422724758806	24.650310506433
5	1074	2399.497588956906	16.952840725256
5	1077	2401.053898942235	15.423839312975
5	1078	2402.504341297237	9.800546566881
5	1081	2409.535768596474	9.76242383898
5	1084	2410.569368783953	6.604719848405
5	1085	2411.592916878926	1.741725638104
5	1088	2419.522145450243	0
5	1091	2423.233539789864	2.565797944261
5	1100	2455.486124249863	15.605891144996
5	1103	2463.445474533355	2.407280736728
5	1106	2467.546455616368	0.238328825714
5	1109	2470.080629290396	0
5	1115	2494.914627525382	0
5	1118	2496.07094330556	0.816284601044
6	197	354.015103288126	50
6	200	354.32584862686	51
6	201	355.029952825186	52
6	216	393.294890511708	53
6	217	395.482937562246	54
6	218	395.596589120348	55
6	219	397.054636087211	56
6	230	440.047230175793	57
6	231	442.888167550516	58
6	234	444.702920994341	59
6	237	451.369088958178	60
6	240	452.173511984843	61
6	243	459.194566050063	62
6	246	472.097434088325	63
6	253	477.13873659417	64
6	259	487.100718320786	65
6	260	487.652457363426	66
6	261	487.8243134781	67
6	264	498.280632182304	68
6	270	505.582770426347	69
6	276	522.49328832347	70
6	279	528.269762345352	71
6	282	539.004901243549	72
6	288	552.092676306234	73
6	297	595.87506898935	74
6	300	602.456580293484	75
6	321	622.842903598651	76
6	322	624.020463743938	77
6	325	630.64537703528	78
6	331	640.203190325097	79
6	332	640.706292861225	80
6	341	655.916156496395	81
6	342	656.710221979082	82
6	345	659.735503122394	83
6	351	675.061339292905	84
6	359	696.948157702481	85
6	362	699.829137509145	86
6	365	701.982088146621	87
6	366	702.084797179731	88
6	369	707.980696877457	89
6	379	724.908280149941	90
6	382	727.630132064381	91
6	383	727.650006598841	92
6	386	732.023816987042	93
6	387	732.503121916854	94
6	390	733.815795220533	95
6	399	748.348397207451	96
6	411	794.170889659853	97
6	418	799.315929579703	98
6	421	802.956142612664	99
6	422	806.752261160988	100
6	423	810.288012335196	101
6	433	815.949066837567	102
6	434	816.008247856125	103
6	435	819.531010936457	104
6	438	826.516134675429	105
6	441	836.355203990309	106
6	444	839.443769653917	107
6	447	855.372449984664	108
6	467	895.646680900141	109
6	468	896.482647174829	110
6	469	897.840633502778	111
6	470	899.30774882248	112
6	471	899.587260046429	113
6	474	904.968509963066	114
6	482	931.786380179835	115
6	483	931.807886677901	116
6	486	960.653026832087	117
6	504	1047.622582391857	118
6	507	1051.72497560779	119
6	510	1086.025520134257	120
6	513	1090.356023348568	121
6	519	1108.611219254582	122
6	528	1146.588484941674	123
6	531	1147.171104012166	124
6	534	1147.977855686865	125
6	537	1165.416000442521	126
6	540	1178.275510231018	127
6	543	1190.125668609626	128
6	549	1201.559605420611	129
6	552	1207.76097131951	130
6	555	1214.919506134236	131
6	576	1255.213948836215	132
6	577	1258.389249266941	133
6	580	1265.912257409539	134
6	581	1268.835935632737	135
6	582	1270.036669431929	136
6	596	1298.800388975754	137
6	597	1301.000532874608	138
6	600	1313.130557667499	139
6	611	1346.601185387647	140
6	612	1347.241081362229	141
6	623	1372.406477758356	142
6	624	1372.945850703505	143
6	630	1408.387134906341	144
6	633	1419.324569094421	145
6	636	1424.248926356382	146
6	641	1426.886866203868	147
6	642	1427.517804230659	148
6	645	1430.396292714293	149
6	648	1433.171460028803	150
6	658	1442.143975672069	151
6	659	1444.390947648527	152
6	660	1448.302207447712	153
6	675	1472.560786743736	154
6	676	1474.921930168584	155
6	685	1482.758071825018	156
6	686	1482.890107467632	157
6	687	1485.263678480575	158
6	690	1489.355998726988	159
6	693	1500.088616827868	160
6	699	1516.075626878629	161
6	702	1527.503406623078	162
6	708	1561.511910051384	163
6	711	1567.407742540318	164
6	714	1573.221158613563	165
6	717	1589.421292847307	166
6	720	1594.322499049812	167
6	730	1606.714790917608	168
6	731	1607.924102078189	169
6	732	1608.500451731879	170
6	740	1619.420529262479	171
6	741	1619.765373138772	172
6	747	1645.518978145078	173
6	753	1662.446095465302	174
6	756	1669.527151507341	175
6	762	1691.670115761529	176
6	767	1693.760832767647	177
6	768	1695.643417000904	178
6	776	1713.176347523562	179
6	777	1714.856225878472	180
6	789	1741.973565915402	181
6	794	1749.32240533062	182
6	795	1751.009531896077	183
6	801	1753.155239171365	184
6	807	1803.30946414585	185
6	813	1817.705683044755	186
6	832	1864.059014289776	187
6	833	1866.005822085459	188
6	834	1867.384704939164	189
6	835	1867.906272831722	190
6	836	1868.07336507766	191
6	837	1869.321616809694	192
6	842	1884.830529828875	193
6	843	1886.317848212036	194
6	852	1897.678769495858	195
6	861	1924.848993886956	196
6	864	1934.934812044259	197
6	870	1945.789573621934	198
6	875	1966.895722383571	199
6	876	1967.894887026954	200
6	879	1972.503826647493	201
6	882	1977.876109583978	202
6	885	2005.717329035963	203
6	888	2015.066480031141	204
6	891	2027.511638690655	205
6	894	2035.678666949199	206
6	897	2041.139895654372	207
6	900	2048.000034471376	208
6	903	2053.613834521565	209
6	962	2190.911956045126	210
6	963	2192.740762483234	211
6	964	2192.995035156405	212
6	965	2194.127048824151	213
6	966	2195.741537249428	214
6	967	2197.213477435729	215
6	972	2203.875229083976	216
6	973	2205.067088789962	217
6	976	2205.397479686981	218
6	979	2209.949118188976	219
6	982	2210.986359340143	220
6	983	2212.345251646302	221
6	984	2213.971683853901	222
6	999	2244.060563752883	223
6	1000	2244.75093327653	224
6	1003	2245.6595833075	225
6	1004	2247.818667313229	226
6	1009	2250.874439596258	227
6	1010	2252.624161548874	228
6	1011	2258.534225910759	229
6	1014	2272.933001954633	230
6	1017	2289.602966379198	231
6	1020	2292.239587298693	232
6	1045	2355.83486331164	233
6	1050	2365.667778560839	234
6	1051	2366.025391588584	235
6	1052	2367.205653984754	236
6	1053	2367.944707669746	237
6	1054	2368.047073077327	238
6	1071	2395.122550026302	239
6	1072	2396.441412737705	240
6	1073	2397.422724758806	241
6	1074	2399.497588956906	242
6	1077	2401.053898942235	243
6	1078	2402.504341297237	244
6	1084	2410.569368783953	245
6	1085	2411.592916878926	246
6	1086	2413.918781687409	247
6	1091	2423.233539789864	248
6	1092	2423.308879440037	249
6	1107	2467.858620781463	250
6	1110	2474.46219022283	251
6	1118	2496.07094330556	252
6	1119	2496.488892627918	253
7	197	354.015103288126	1.037044007301
7	200	354.32584862686	0.906015926304
7	201	355.029952825186	1.000808347081
7	216	393.294890511708	25.304524387832
7	217	395.482937562246	25.267180890621
7	218	395.596589120348	17.544224707492
7	219	397.054636087211	4.683468137917
7	230	440.047230175793	33.100717995847
7	231	442.888167550516	14.504635746805
7	234	444.702920994341	0.691519067256
7	237	451.369088958178	0.388422430608
7	240	452.173511984843	0.443224138263
7	243	459.194566050063	1.436898852817
7	246	472.097434088325	3.560024546427
7	253	477.13873659417	3.156718294264
7	259	487.100718320786	11.556537708303
7	260	487.652457363426	9.386841537679
7	261	487.8243134781	0.727530226526
7	264	498.280632182304	0.130974409796
7	270	505.582770426347	1.574909450204
7	276	522.49328832347	0.880800549075
7	279	528.269762345352	0.34622912982
7	282	539.004901243549	1.559817064845
7	288	552.092676306234	3.828290125042
7	297	595.87506898935	5.381439732748
7	300	602.456580293484	0.252197624404
7	321	622.842903598651	7.433375133445
7	322	624.020463743938	5.554789771693
7	325	630.64537703528	10.927529240422
7	331	640.203190325097	15.107904671474
7	332	640.706292861225	6.185819244126
7	341	655.916156496395	14.32711444435
7	342	656.710221979082	14.051451473015
7	345	659.735503122394	0.140799288748
7	351	675.061339292905	1.231903167048
7	359	696.948157702481	20.858607394534
7	362	699.829137509145	8.918995081142
7	365	701.982088146621	2.444286121435
7	366	702.084797179731	0.806684230093
7	369	707.980696877457	2.537208107788
7	379	724.908280149941	4.240151167868
7	382	727.630132064381	4.319541356239
7	383	727.650006598841	2.89481458347
7	386	732.023816987042	5.054128124164
7	387	732.503121916854	2.14249181866
7	390	733.815795220533	0.287615268597
7	399	748.348397207451	0.390731414334
7	411	794.170889659853	7.060196402089
7	418	799.315929579703	5.118411979862
7	421	802.956142612664	6.332443210698
7	422	806.752261160988	10.025172090398
7	423	810.288012335196	9.154029437423
7	433	815.949066837567	0.526279805158
7	434	816.008247856125	0.399747485531
7	435	819.531010936457	3.596425524961
7	438	826.516134675429	0.989820865344
7	441	836.355203990309	0.680194791679
7	444	839.443769653917	1.14984665827
7	447	855.372449984664	6.084317106963
7	467	895.646680900141	28.558236025589
7	468	896.482647174829	28.663457666545
7	469	897.840633502778	21.244727298622
7	470	899.30774882248	14.631015520559
7	471	899.587260046429	9.461469378203
7	474	904.968509963066	5.120424831256
7	482	931.786380179835	18.768098127849
7	483	931.807886677901	7.062557800244
7	486	960.653026832087	0.13592036279
7	504	1047.622582391857	14.238572684486
7	507	1051.72497560779	1.731594867487
7	510	1086.025520134257	3.040881073642
7	513	1090.356023348568	1.738694195027
7	519	1108.611219254582	5.485631631568
7	528	1146.588484941674	11.826452338392
7	531	1147.171104012166	0.122516805952
7	534	1147.977855686865	0.439906730329
7	537	1165.416000442521	0.511392843114
7	540	1178.275510231018	0.174005434841
7	543	1190.125668609626	6.307240811595
7	549	1201.559605420611	6.481349618832
7	552	1207.76097131951	0.359814752812
7	555	1214.919506134236	0.031641364502
7	576	1255.213948836215	37.239200404091
7	577	1258.389249266941	32.04461520751
7	580	1265.912257409539	30.533379235185
7	581	1268.835935632737	20.621656065628
7	582	1270.036669431929	4.543272652682
7	596	1298.800388975754	11.845430489084
7	597	1301.000532874608	8.689192088866
7	600	1313.130557667499	4.956499791729
7	611	1346.601185387647	2.485081330752
7	612	1347.241081362229	1.927615735118
7	623	1372.406477758356	16.801692510786
7	624	1372.945850703505	16.125289859664
7	630	1408.387134906341	2.583084055145
7	633	1419.324569094421	0.743634716949
7	636	1424.248926356382	4.883675329001
7	641	1426.886866203868	2.515051405797
7	642	1427.517804230659	1.437049984432
7	645	1430.396292714293	0.172718797366
7	648	1433.171460028803	0.997004468205
7	658	1442.143975672069	6.727281901504
7	659	1444.390947648527	6.151138438829
7	660	1448.302207447712	9.00241316241
7	675	1472.560786743736	19.906631855109
7	676	1474.921930168584	17.037998502501
7	685	1482.758071825018	7.772247983918
7	686	1482.890107467632	6.613870452076
7	687	1485.263678480575	4.731560601353
7	690	1489.355998726988	0.871687555889
7	693	1500.088616827868	6.387913230012
7	699	1516.075626878629	1.944919254503
7	702	1527.503406623078	0.524469444466
7	708	1561.511910051384	0.563061764924
7	711	1567.407742540318	2.866239746718
7	714	1573.221158613563	2.599591386117
7	717	1589.421292847307	0.346655206142
7	720	1594.322499049812	0.132552632527
7	730	1606.714790917608	10.609032516229
7	731	1607.924102078189	8.266730893063
7	732	1608.500451731879	8.041087990011
7	740	1619.420529262479	1.337601280337
7	741	1619.765373138772	0.356387450088
7	747	1645.518978145078	2.048168586112
7	753	1662.446095465302	7.673604894715
7	756	1669.527151507341	0.224476795975
7	762	1691.670115761529	0.321687179955
7	767	1693.760832767647	1.704801417171
7	768	1695.643417000904	2.08583988971
7	776	1713.176347523562	10.304053714082
7	777	1714.856225878472	2.336990078538
7	789	1741.973565915402	1.450021260335
7	794	1749.32240533062	3.765587535351
7	795	1751.009531896077	4.375273284018
7	801	1753.155239171365	0.461838463353
7	807	1803.30946414585	10.387610725855
7	813	1817.705683044755	0.908203102772
7	832	1864.059014289776	41.483429460918
7	833	1866.005822085459	42.705135138484
7	834	1867.384704939164	33.465442050076
7	835	1867.906272831722	28.518643276753
7	836	1868.07336507766	27.375695822555
7	837	1869.321616809694	21.120354479427
7	842	1884.830529828875	4.096614433182
7	843	1886.317848212036	3.254676251246
7	852	1897.678769495858	4.083564125724
7	861	1924.848993886956	20.143749023611
7	864	1934.934812044259	2.634372959295
7	870	1945.789573621934	6.314078879885
7	875	1966.895722383571	3.470228860642
7	876	1967.894887026954	3.868776103831
7	879	1972.503826647493	2.732820444412
7	882	1977.876109583978	0.294106203697
7	885	2005.717329035963	1.065674308665
7	888	2015.066480031141	1.249986652358
7	891	2027.511638690655	1.445998028879
7	894	2035.678666949199	1.39538140246
7	897	2041.139895654372	3.748650158381
7	900	2048.000034471376	0.283895900185
7	903	2053.613834521565	3.916034994467
7	962	2190.911956045126	95.886984380193
7	963	2192.740762483234	77.163829637777
7	964	2192.995035156405	60.156822416223
7	965	2194.127048824151	44.903313298254
7	966	2195.741537249428	43.787268813405
7	967	2197.213477435729	21.409442598431
7	972	2203.875229083976	23.43038393123
7	973	2205.067088789962	14.782549352552
7	976	2205.397479686981	3.854498637301
7	979	2209.949118188976	6.629542206152
7	982	2210.986359340143	5.79536225125
7	983	2212.345251646302	3.846323889223
7	984	2213.971683853901	3.937367107457
7	999	2244.060563752883	25.15385185025
7	1000	2244.75093327653	21.379006700093
7	1003	2245.6595833075	21.102643004077
7	1004	2247.818667313229	5.474297574417
7	1009	2250.874439596258	5.38950433095
7	1010	2252.624161548874	2.092283271366
7	1011	2258.534225910759	7.982483901856
7	1014	2272.933001954633	6.29655614082
7	1017	2289.602966379198	0.278558645562
7	1020	2292.239587298693	2.161444300886
7	1045	2355.83486331164	39.117230359781
7	1050	2365.667778560839	35.55071297501
7	1051	2366.025391588584	31.749626125692
7	1052	2367.205653984754	31.44147360187
7	1053	2367.944707669746	26.688655305509
7	1054	2368.047073077327	18.985702750121
7	1071	2395.122550026302	33.040679752019
7	1072	2396.441412737705	24.911647767746
7	1073	2397.422724758806	25.693257278265
7	1074	2399.497588956906	26.725174704533
7	1077	2401.053898942235	18.509150710585
7	1078	2402.504341297237	16.874281667977
7	1084	2410.569368783953	10.796024026459
7	1085	2411.592916878926	7.628267943378
7	1086	2413.918781687409	4.067590446587
7	1091	2423.233539789864	3.711394339621
7	1092	2423.308879440037	2.641137594434
7	1107	2467.858620781463	0.550493990809
7	1110	2474.46219022283	4.381560932434
7	1118	2496.07094330556	1.156315780178
7	1119	2496.488892627918	1.234233923402
8	203	356.5813254123	1
8	206	362.521660136066	1
8	221	400.41477839754	1
8	223	400.989063535264	2
8	255	478.265615825747	1
8	266	498.462216923946	1
8	272	506.274101154578	1
8	284	543.861325420206	1
8	290	560.04194327393	1
8	293	586.69130007823	1
8	302	604.735245203313	1
8	305	605.155777816588	1
8	308	611.966540144215	1
8	310	614.333274271427	2
8	327	634.520473617099	1
8	334	641.589042052045	1
8	338	646.140911074391	2
8	347	669.370048180619	1
8	355	676.089550307947	1
8	371	715.645460968857	1
8	392	735.110182554916	1
8	394	739.538941641431	2
8	401	749.503152676415	1
8	404	770.914674302833	1
8	409	787.110693257764	1
8	425	811.167204134008	1
8	449	858.399036366918	1
8	454	867.088444874552	1
8	460	881.809084173332	2
8	478	913.018282051986	1
8	488	968.873454385473	1
8	491	1002.51878157638	1
8	494	1029.242586038515	1
8	498	1033.641092825581	2
8	501	1039.791114202476	2
8	515	1099.489056947826	1
8	521	1110.541336198966	1
8	523	1123.489536725241	2
8	545	1194.221935883371	1
8	557	1216.190203000085	1
8	561	1220.406967291869	2
8	563	1225.154657742576	3
8	570	1240.638952913731	3
8	584	1273.59487077883	1
8	589	1286.95495848667	1
8	593	1294.658978465549	2
8	602	1324.434619982293	1
8	604	1331.395607018128	2
8	616	1355.60478524757	1
8	620	1362.793164268834	2
8	626	1400.224333753695	1
8	652	1435.416693770565	1
8	662	1451.229788169275	1
8	670	1467.31286884861	2
8	680	1476.276237015556	1
8	683	1480.532117879222	1
8	695	1512.620878371213	1
8	704	1537.674109379175	1
8	722	1595.678269176451	1
8	734	1616.104092815001	1
8	743	1632.557720265987	1
8	749	1647.794972004337	1
8	758	1680.412202636077	1
8	770	1697.409528314427	1
8	779	1724.988876512068	1
8	781	1725.23706083006	2
8	785	1728.758263676249	1
8	797	1752.522744556116	1
8	805	1792.921853419995	1
8	809	1808.22155861746	1
8	815	1820.926754352695	1
8	820	1822.575584828858	1
8	845	1886.804862313205	1
8	847	1887.079489260505	2
8	854	1900.930256248978	1
8	858	1907.440788448399	2
8	866	1935.405271074888	1
8	905	2054.337250358517	1
8	908	2070.533405052142	1
8	911	2075.646756539144	1
8	913	2076.914782185927	2
8	915	2079.133756545541	3
8	917	2081.549383941071	4
8	919	2081.878085919375	5
8	926	2095.149543605838	5
8	928	2103.509230131846	6
8	935	2116.197895522037	4
8	943	2149.223735525897	1
8	947	2154.144608735228	2
8	950	2159.045226232794	2
8	953	2159.7706300103	2
8	986	2214.316810083452	1
8	992	2223.374868222643	2
8	1022	2312.67934090531	1
8	1024	2313.820088273974	2
8	1026	2314.04164474955	3
8	1040	2342.03911326403	2
8	1060	2372.772414252373	1
8	1062	2380.837896134975	2
8	1080	2403.964648935548	1
8	1094	2433.433079546767	1
8	1098	2447.93178109452	2
8	1102	2461.038193796627	1
8	1105	2467.308126790654	1
8	1112	2475.318419721545	1
8	1121	2497.177872175454	1
9	203	356.5813254123	0
9	206	362.521660136066	0
9	221	400.41477839754	0
9	228	429.942746501394	28.95368296613
9	255	478.265615825747	0
9	266	498.462216923946	0
9	272	506.274101154578	0
9	284	543.861325420206	0
9	290	560.04194327393	0
9	293	586.69130007823	0
9	302	604.735245203313	0
9	305	605.155777816588	0
9	308	611.966540144215	0
9	319	621.432590850196	7.099316578769
9	327	634.520473617099	0
9	334	641.589042052045	0
9	339	646.782536603397	0.641625529006
9	347	669.370048180619	0
9	355	676.089550307947	0
9	371	715.645460968857	0
9	392	735.110182554916	0
9	395	739.866418255326	0.327476613895
9	401	749.503152676415	0
9	404	770.914674302833	0
9	409	787.110693257764	0
9	425	811.167204134008	0
9	449	858.399036366918	0
9	454	867.088444874552	0
9	463	889.001490171987	7.192405998655
9	478	913.018282051986	0
9	488	968.873454385473	0
9	491	1002.51878157638	0
9	494	1029.242586038515	0
9	499	1038.367410989164	4.726318163583
9	502	1045.530772236547	5.739658034071
9	515	1099.489056947826	0
9	521	1110.541336198966	0
9	526	1138.070746804877	14.581210079636
9	545	1194.221935883371	0
9	557	1216.190203000085	0
9	566	1226.592096517297	6.185129225428
9	571	1244.714908052656	19.56025031008
9	572	1247.250179126965	6.611226213234
9	584	1273.59487077883	0
9	589	1286.95495848667	0
9	594	1298.278048474712	3.619070009163
9	602	1324.434619982293	0
9	605	1336.821987137071	5.426380118943
9	616	1355.60478524757	0
9	621	1365.287859031591	2.494694762757
9	626	1400.224333753695	0
9	652	1435.416693770565	0
9	662	1451.229788169275	0
9	671	1468.028288398775	0.715419550165
9	680	1476.276237015556	0
9	683	1480.532117879222	0
9	695	1512.620878371213	0
9	704	1537.674109379175	0
9	722	1595.678269176451	0
9	734	1616.104092815001	0
9	743	1632.557720265987	0
9	749	1647.794972004337	0
9	758	1680.412202636077	0
9	770	1697.409528314427	0
9	779	1724.988876512068	0
9	782	1726.665298530297	1.428237700237
9	785	1728.758263676249	0
9	797	1752.522744556116	0
9	805	1792.921853419995	0
9	809	1808.22155861746	0
9	815	1820.926754352695	0
9	820	1822.575584828858	0
9	845	1886.804862313205	0
9	848	1888.319860360389	1.240371099884
9	854	1900.930256248978	0
9	859	1921.071775788286	13.630987339887
9	866	1935.405271074888	0
9	905	2054.337250358517	0
9	908	2070.533405052142	0
9	911	2075.646756539144	0
9	922	2090.601010599737	13.68622841381
9	929	2105.713983836623	26.580227291082
9	930	2110.201246222558	28.651862281487
9	931	2113.533052326732	31.654966407357
9	938	2140.182743977589	45.033200371751
9	939	2143.69504867875	40.185818546904
9	940	2144.788464798934	28.590569276897
9	943	2149.223735525897	0
9	948	2158.656002020599	4.511393285371
9	951	2159.087763640725	0.042537407931
9	956	2178.120157508183	18.349527497883
9	986	2214.316810083452	0
9	995	2234.859237258271	11.484369035628
9	1022	2312.67934090531	0
9	1031	2333.331464192952	19.511375918978
9	1034	2334.533116538038	20.491471788488
9	1041	2342.911399056848	0.872285792818
9	1060	2372.772414252373	0
9	1069	2393.748119399343	12.910223264368
9	1080	2403.964648935548	0
9	1094	2433.433079546767	0
9	1099	2451.017035653936	3.085254559416
9	1102	2461.038193796627	0
9	1105	2467.308126790654	0
9	1112	2475.318419721545	0
9	1121	2497.177872175454	0
10	255	478.265615825747	6
10	327	634.520473617099	7
10	334	641.589042052045	8
10	355	676.089550307947	9
10	409	787.110693257764	10
10	454	867.088444874552	11
10	478	913.018282051986	12
10	589	1286.95495848667	13
10	616	1355.60478524757	14
10	652	1435.416693770565	15
10	680	1476.276237015556	16
10	683	1480.532117879222	17
10	805	1792.921853419995	18
10	820	1822.575584828858	19
10	943	2149.223735525897	20
10	1060	2372.772414252373	21
10	1080	2403.964648935548	22
10	1102	2461.038193796627	23
10	1105	2467.308126790654	24
11	1122	2500	0.1012
12	1122	2500	0.048

