file 61422 1678273702                                           
version 2
run experiments_easy_game_mode1-1748-20230308-12:08:22-27529
attr configname experiments_easy_game_mode1
attr datetime 20230308-12:08:22
attr experiment experiments_easy_game_mode1
attr inifile omnetpp.ini
attr iterationvars "$0=7, $1=3.5, $2=0"
attr iterationvarsf 7,3.5,0-
attr measurement "$0=7, $1=3.5, $2=0"
attr network Network
attr processid 27529
attr repetition 8
attr replication #8
attr resultdir results
attr runnumber 1748
attr seedset 8
param *.boss.arrival_mean 20
param *.boss.service_mean 7
param *.minion.arrival_mean 10
param *.minion.service_mean 3.5
param *.player.recover_rate_x 0
param **.minion.arrival_distribution 0
param **.minion.service_distribution 0
param **.boss.arrival_distribution 0
param **.boss.service_distribution 0

vector 0 Network.player minion_defeated_stat:vector ETV
attr source signal_minion_defeated
vector 1 Network.player minion_jobs_queue_number_stat:vector ETV
attr source signal_minion_jobs_queue_number
vector 2 Network.player minion_response_time_stat:vector ETV
attr source signal_minion_response_time
vector 3 Network.player minion_waiting_time_stat:vector ETV
attr source signal_minion_waiting_time
vector 4 Network.player minion_jobs_number_stat:vector ETV
attr source signal_minion_jobs_number
vector 5 Network.player boss_jobs_number_stat:vector ETV
attr source signal_boss_jobs_number
vector 6 Network.player boss_jobs_queue_number_stat:vector ETV
attr source signal_boss_jobs_queue_number
vector 7 Network.player minion_recovered_stat:vector ETV
attr source signal_minion_recovered
vector 8 Network.player boss_waiting_time_stat:vector ETV
attr source signal_boss_waiting_time
vector 9 Network.player boss_defeated_stat:vector ETV
attr source signal_boss_defeated
vector 10 Network.player boss_response_time_stat:vector ETV
attr source signal_boss_response_time
vector 11 Network.player minion_throughput:vector ETV
attr source signal_minion_throughput
vector 12 Network.player boss_throughput:vector ETV
attr source signal_boss_throughput
0	2012 5987 169 1122 353.736916336102 2496.216208958779 219 30 248 30441 5106569
1	7999 11324 169 1126 353.736916336102 2499.949391704458 439 0 15 1420 11046
2	19323 8578 169 1122 353.736916336102 2496.216208958779 219 0.276575606382 113.82821130578 5936.574724582 320393.71654207
3	27901 9278 169 1122 353.736916336102 2496.216208958779 255 0 110.62524715817 6389.2090983285 362684.06555138
4	37179 5689 171 1126 355.039202252463 2499.949391704458 220 1 16 933 7187
5	42868 2580 178 1124 375.391315048882 2498.862924785266 100 1 6 185 511
6	45448 5140 178 1124 375.391315048882 2498.862924785266 199 0 5 170 482
7	50588 991 178 1124 375.391315048882 2498.862924785266 37 9 45 999 31191
8	51579 3131 178 1124 375.391315048882 2498.862924785266 100 0 35.047380009385 589.20072644507 12902.285378147
9	54710 2682 179 1121 376.877501896449 2491.787919460925 99 24 122 7227 608421
10	57392 3989 179 1121 376.877501896449 2491.787919460925 99 0.230304142569 50.843997809379 1360.2060240505 33495.220186298
11	61381 20 1127 1127 2500 2500 1 0.0992 0.0992 0.0992 0.00984064
12	61401 20 1127 1127 2500 2500 1 0.0488 0.0488 0.0488 0.00238144

