file 60527 1678273350                                           
version 2
run experiments_easy_game_mode1-170-20230308-12:02:30-19252
attr configname experiments_easy_game_mode1
attr datetime 20230308-12:02:30
attr experiment experiments_easy_game_mode1
attr inifile omnetpp.ini
attr iterationvars "$0=5, $1=2, $2=100"
attr iterationvarsf 5,2,100-
attr measurement "$0=5, $1=2, $2=100"
attr network Network
attr processid 19252
attr repetition 20
attr replication #20
attr resultdir results
attr runnumber 170
attr seedset 20
param *.boss.arrival_mean 20
param *.boss.service_mean 5
param *.minion.arrival_mean 10
param *.minion.service_mean 2
param *.player.recover_rate_x 100
param **.minion.arrival_distribution 0
param **.minion.service_distribution 0
param **.boss.arrival_distribution 0
param **.boss.service_distribution 0

vector 0 Network.player minion_defeated_stat:vector ETV
attr source signal_minion_defeated
vector 1 Network.player minion_jobs_queue_number_stat:vector ETV
attr source signal_minion_jobs_queue_number
vector 2 Network.player minion_response_time_stat:vector ETV
attr source signal_minion_response_time
vector 3 Network.player minion_jobs_number_stat:vector ETV
attr source signal_minion_jobs_number
vector 4 Network.player minion_waiting_time_stat:vector ETV
attr source signal_minion_waiting_time
vector 5 Network.player boss_jobs_number_stat:vector ETV
attr source signal_boss_jobs_number
vector 6 Network.player boss_jobs_queue_number_stat:vector ETV
attr source signal_boss_jobs_queue_number
vector 7 Network.player boss_waiting_time_stat:vector ETV
attr source signal_boss_waiting_time
vector 8 Network.player boss_defeated_stat:vector ETV
attr source signal_boss_defeated
vector 9 Network.player boss_response_time_stat:vector ETV
attr source signal_boss_response_time
vector 10 Network.player minion_recovered_stat:vector ETV
attr source signal_minion_recovered
vector 11 Network.player minion_throughput:vector ETV
attr source signal_minion_throughput
vector 12 Network.player boss_throughput:vector ETV
attr source signal_boss_throughput
0	2013 5820 126 1108 351.036797209038 2486.342262639511 213 30 242 28968 4744930
1	7833 11042 126 1108 351.036797209038 2486.342262639511 430 0 8 354 1286
2	18875 8253 126 1108 351.036797209038 2486.342262639511 213 0.013955079377 81.863608320407 1564.4317233176 42717.434378416
3	27128 5578 128 1098 351.622388343199 2470.076086231798 217 1 9 399 1239
4	32706 7602 128 1111 351.622388343199 2499.750458475522 235 0 76.085148589544 1304.7057452606 41227.523913576
5	40308 2913 146 1110 429.805982642391 2491.727201881822 113 1 5 175 369
6	43221 5821 146 1111 429.805982642391 2499.750458475522 226 0 4 124 264
7	49042 3404 146 1110 429.805982642391 2491.727201881822 113 0 29.389621658179 377.92842198114 6476.1638323843
8	52446 3047 151 1111 432.250782023323 2499.750458475522 113 13 125 7797 658225
9	55493 4386 151 1111 432.250782023323 2499.750458475522 113 0.020567941364 46.92129874058 942.13179101804 18035.323596349
10	59879 609 193 1110 514.879586108997 2491.727201881822 22 4 25 319 5511
11	60488 20 1112 1112 2500 2500 1 0.0968 0.0968 0.0968 0.00937024
12	60508 18 1112 1112 2500 2500 1 0.05 0.05 0.05 0.0025

