file 53293 1678273388                                           
version 2
run experiments_easy_game_mode1-354-20230308-12:03:08-20178
attr configname experiments_easy_game_mode1
attr datetime 20230308-12:03:08
attr experiment experiments_easy_game_mode1
attr inifile omnetpp.ini
attr iterationvars "$0=5, $1=3.5, $2=100"
attr iterationvarsf 5,3.5,100-
attr measurement "$0=5, $1=3.5, $2=100"
attr network Network
attr processid 20178
attr repetition 24
attr replication #24
attr resultdir results
attr runnumber 354
attr seedset 24
param *.boss.arrival_mean 20
param *.boss.service_mean 5
param *.minion.arrival_mean 10
param *.minion.service_mean 3.5
param *.player.recover_rate_x 100
param **.minion.arrival_distribution 0
param **.minion.service_distribution 0
param **.boss.arrival_distribution 0
param **.boss.service_distribution 0

vector 0 Network.player minion_jobs_number_stat:vector ETV
attr source signal_minion_jobs_number
vector 1 Network.player minion_jobs_queue_number_stat:vector ETV
attr source signal_minion_jobs_queue_number
vector 2 Network.player minion_waiting_time_stat:vector ETV
attr source signal_minion_waiting_time
vector 3 Network.player minion_defeated_stat:vector ETV
attr source signal_minion_defeated
vector 4 Network.player minion_response_time_stat:vector ETV
attr source signal_minion_response_time
vector 5 Network.player boss_jobs_number_stat:vector ETV
attr source signal_boss_jobs_number
vector 6 Network.player boss_jobs_queue_number_stat:vector ETV
attr source signal_boss_jobs_queue_number
vector 7 Network.player boss_waiting_time_stat:vector ETV
attr source signal_boss_waiting_time
vector 8 Network.player boss_defeated_stat:vector ETV
attr source signal_boss_defeated
vector 9 Network.player boss_response_time_stat:vector ETV
attr source signal_boss_response_time
vector 10 Network.player minion_recovered_stat:vector ETV
attr source signal_minion_recovered
vector 11 Network.player minion_throughput:vector ETV
attr source signal_minion_throughput
vector 12 Network.player boss_throughput:vector ETV
attr source signal_boss_throughput
0	2021 5224 179 1045 356.789216703952 2499.167734483319 204 1 6 374 964
1	7245 10342 179 1045 356.789216703952 2499.167734483319 404 0 5 334 826
2	17587 7119 179 1028 356.789216703952 2443.112190058738 218 0 55.802326093419 1121.2679572498 22115.526153868
3	24706 5457 180 1029 358.044547303939 2445.806890961508 200 39 238 27700 4503100
4	30163 7759 180 1029 358.044547303939 2445.806890961508 200 0.031392921633 58.96745404986 1669.9079258323 32055.944590245
5	37922 2236 185 1038 372.134798287112 2491.203118857694 87 1 5 127 267
6	40158 4442 185 1041 372.134798287112 2494.844386568282 173 0 4 80 200
7	44600 2521 185 1041 372.134798287112 2494.844386568282 87 0 36.100626835622 278.41951339825 5805.3448898695
8	47121 2300 186 1041 373.735092425005 2494.844386568282 86 22 107 5547 410779
9	49421 3335 186 1041 373.735092425005 2494.844386568282 86 0.032872844948 40.638774260952 680.72921890904 12917.470879103
10	52756 496 238 1018 526.025624377519 2414.616886915989 18 10 27 333 6645
11	53252 20 1046 1046 2500 2500 1 0.0952 0.0952 0.0952 0.00906304
12	53272 20 1046 1046 2500 2500 1 0.0428 0.0428 0.0428 0.00183184

