version 2
run experiments_easy_game_mode1-1524-20230308-12:07:28-26408
attr configname experiments_easy_game_mode1
attr datetime 20230308-12:07:28
attr experiment experiments_easy_game_mode1
attr inifile omnetpp.ini
attr iterationvars "$0=7, $1=1.5, $2=0"
attr iterationvarsf 7,1.5,0-
attr measurement "$0=7, $1=1.5, $2=0"
attr network Network
attr processid 26408
attr repetition 24
attr replication #24
attr resultdir results
attr runnumber 1524
attr seedset 24
param *.boss.arrival_mean 20
param *.boss.service_mean 7
param *.minion.arrival_mean 10
param *.minion.service_mean 1.5
param *.player.recover_rate_x 0
param **.minion.arrival_distribution 0
param **.minion.service_distribution 0
param **.boss.arrival_distribution 0
param **.boss.service_distribution 0

vector 0 Network.player minion_jobs_number_stat:vector ETV
attr source signal_minion_jobs_number
vector 1 Network.player minion_jobs_queue_number_stat:vector ETV
attr source signal_minion_jobs_queue_number
vector 2 Network.player minion_waiting_time_stat:vector ETV
attr source signal_minion_waiting_time
vector 3 Network.player minion_defeated_stat:vector ETV
attr source signal_minion_defeated
vector 4 Network.player minion_response_time_stat:vector ETV
attr source signal_minion_response_time
vector 5 Network.player boss_jobs_number_stat:vector ETV
attr source signal_boss_jobs_number
vector 6 Network.player boss_jobs_queue_number_stat:vector ETV
attr source signal_boss_jobs_queue_number
vector 7 Network.player boss_waiting_time_stat:vector ETV
attr source signal_boss_waiting_time
vector 8 Network.player boss_defeated_stat:vector ETV
attr source signal_boss_defeated
vector 9 Network.player boss_response_time_stat:vector ETV
attr source signal_boss_response_time
vector 10 Network.player minion_recovered_stat:vector ETV
attr source signal_minion_recovered
vector 11 Network.player minion_throughput:vector ETV
attr source signal_minion_throughput
vector 12 Network.player boss_throughput:vector ETV
attr source signal_boss_throughput
0	179	356.789216703952	1
0	182	366.407720533371	1
0	188	377.040571376589	1
0	197	407.187138617204	1
0	200	441.086758584803	1
0	203	444.494047951664	1
0	208	454.812616210221	1
0	212	465.641600051131	1
0	220	479.277820095291	1
0	227	494.852513830573	1
0	230	512.690580686026	1
0	232	513.291580781746	2
0	234	513.351339505375	3
0	243	536.37120453553	1
0	245	543.993126690739	2
0	248	544.734462538936	3
0	254	570.095733877643	1
0	257	581.896687504052	1
0	260	583.921324485665	1
0	263	585.279116190361	1
0	268	628.667395432288	1
0	272	639.69467870296	1
0	275	646.035768047026	1
0	277	646.700493880238	2
0	284	654.825600306625	1
0	286	656.330937168635	2
0	289	659.22283601459	2
0	295	662.930578404102	1
0	297	668.660465822505	2
0	299	669.213705429238	3
0	303	686.651463762509	4
0	306	689.556081539344	5
0	312	699.689261245628	3
0	314	700.697231461097	4
0	323	718.013659795175	1
0	326	722.983967879998	1
0	329	726.315870106654	1
0	332	748.09093089818	1
0	336	754.082570057365	2
0	340	755.845534507378	2
0	342	757.767462288997	3
0	347	763.296326840998	1
0	350	763.756724342622	1
0	353	783.013662615862	1
0	356	793.983471542549	1
0	359	798.026774169896	1
0	362	801.977773532648	1
0	368	833.465877522527	1
0	371	836.465091621941	1
0	374	841.389145078265	1
0	379	855.164496103926	1
0	385	859.058740100249	1
0	390	870.96052869789	2
0	392	872.015518815138	3
0	401	905.7906501075	1
0	404	917.454414024692	1
0	407	921.532650731636	1
0	410	927.925128540496	1
0	419	949.937502961437	1
0	422	955.67258158671	1
0	426	961.254644888158	2
0	430	967.551004355144	2
0	434	994.532880761544	1
0	437	995.30254166152	1
0	440	1009.931705878689	1
0	443	1021.737113462098	1
0	446	1024.17178272167	1
0	449	1024.471307065166	1
0	457	1044.17301064952	1
0	461	1058.134734592907	1
0	471	1077.59144860176	1
0	476	1099.7668425196	1
0	486	1177.970402632044	1
0	493	1196.635886742355	2
0	497	1200.226436534748	1
0	500	1205.305018111409	1
0	503	1208.547369053641	1
0	508	1215.12574070078	1
0	510	1219.267934439993	2
0	515	1237.053733865379	1
0	518	1239.590833280954	1
0	521	1243.366400938419	1
0	524	1247.006478551144	1
0	527	1256.950644294721	1
0	536	1269.448195677003	1
0	542	1316.893751880655	1
0	547	1326.742537226964	1
0	551	1345.848286259193	1
0	557	1348.648970850869	1
0	563	1356.52134966197	1
0	566	1358.668885500997	1
0	569	1366.071723712859	1
0	578	1412.303689929352	1
0	587	1429.733317691778	1
0	590	1434.323136498465	1
0	593	1434.964109108602	1
0	598	1436.961393363256	1
0	600	1438.014710699769	2
0	602	1440.91670006931	3
0	608	1452.643273660911	1
0	614	1471.204834866045	1
0	617	1477.679218653875	1
0	620	1483.295070252198	1
0	626	1491.594781451896	1
0	629	1505.030160024024	1
0	632	1516.450343239982	1
0	635	1517.991208355858	1
0	638	1523.870921068251	1
0	649	1538.057668432891	1
0	653	1546.248679213656	1
0	656	1563.091021173002	1
0	659	1564.606893435329	1
0	662	1568.309056649513	1
0	665	1578.568099306452	1
0	667	1579.021682457924	2
0	671	1582.461246981718	1
0	673	1582.712989310234	2
0	677	1603.358994729019	1
0	683	1607.744862763942	1
0	686	1612.46891407111	1
0	689	1636.770725581656	1
0	692	1643.752179947993	1
0	694	1644.931583917353	2
0	696	1645.208321763132	3
0	701	1659.176969637964	1
0	704	1674.345312371334	1
0	712	1685.420559474964	1
0	714	1689.950900213952	2
0	716	1697.931056839573	3
0	722	1705.363008194692	1
0	725	1708.149830541008	1
0	728	1710.341140059046	1
0	731	1713.362897446005	1
0	734	1716.826918214573	1
0	742	1746.520972385423	1
0	746	1750.012828917756	2
0	748	1750.7522501866	3
0	761	1780.545645202351	1
0	764	1783.624836174733	1
0	767	1785.515637779284	1
0	769	1786.608102528738	2
0	772	1788.100980481798	2
0	776	1792.129076952849	1
0	781	1809.173374539332	1
0	783	1813.686348165498	2
0	791	1834.396774731413	1
0	794	1837.476149774725	1
0	797	1870.033855423056	1
0	800	1890.545216059208	1
0	809	1916.765702130355	1
0	815	1934.493965339324	1
0	818	1937.97189039777	1
0	835	1976.855919890475	1
0	842	1988.823419157974	2
0	848	1996.727013769419	3
0	850	1998.85047389208	4
0	854	2006.840808922118	5
0	858	2024.745438396731	6
0	860	2025.944021961315	7
0	863	2028.289970011253	8
0	872	2040.45613515477	4
0	878	2047.342792869357	1
0	881	2067.117905936518	1
0	884	2079.932128378416	1
0	886	2080.182697143549	2
0	889	2080.499574889648	2
0	893	2107.610656614475	1
0	896	2112.345383053022	1
0	899	2130.249105147754	1
0	902	2138.55333155246	1
0	906	2143.419866067781	2
0	919	2171.416923986947	3
0	921	2174.188701438503	4
0	924	2187.093761591359	5
0	926	2192.155402618666	6
0	928	2204.841647655703	7
0	930	2206.245984870921	8
0	944	2244.13923776168	1
0	950	2277.537847225243	1
0	955	2289.141865512103	1
0	957	2291.318595943235	2
0	961	2295.59156571577	2
0	965	2297.947119131108	1
0	968	2316.278446438018	1
0	971	2327.98601757414	1
0	977	2345.680151314537	1
0	980	2351.582526638814	1
0	986	2361.054874266508	1
0	989	2366.210491028203	1
0	991	2370.222330685964	2
0	995	2379.145448243972	1
0	998	2389.248330480956	1
0	1001	2389.842691429586	1
0	1004	2393.095394791491	1
0	1006	2396.301173612793	2
0	1010	2402.826514123312	1
0	1013	2405.848596340953	1
0	1016	2413.005412113603	1
0	1021	2418.180451570403	1
0	1028	2443.112190058738	1
0	1033	2457.571520976012	1
0	1039	2492.925146764597	2
0	1042	2498.096628724313	3
0	1044	2499.167734483319	4
1	179	356.789216703952	0
1	180	357.327215532518	0
1	182	366.407720533371	0
1	183	366.691553548049	0
1	188	377.040571376589	0
1	189	377.260904303661	0
1	197	407.187138617204	0
1	198	409.210938577394	0
1	200	441.086758584803	0
1	201	443.261537415212	0
1	203	444.494047951664	0
1	204	444.992589872229	0
1	208	454.812616210221	0
1	210	457.324667166762	0
1	212	465.641600051131	0
1	213	465.808736954302	0
1	220	479.277820095291	0
1	222	482.772944451403	0
1	227	494.852513830573	0
1	228	495.236448126452	0
1	230	512.690580686026	0
1	232	513.291580781746	1
1	234	513.351339505375	2
1	235	514.339017270198	2
1	236	516.460442015505	1
1	237	518.485983841853	0
1	243	536.37120453553	0
1	245	543.993126690739	1
1	248	544.734462538936	2
1	250	551.277834513724	2
1	251	552.058397615773	1
1	252	553.020952104798	0
1	254	570.095733877643	0
1	255	570.383811270571	0
1	257	581.896687504052	0
1	258	582.151177030176	0
1	260	583.921324485665	0
1	261	584.205325044238	0
1	263	585.279116190361	0
1	264	586.115366391052	0
1	268	628.667395432288	0
1	270	630.516794961639	0
1	272	639.69467870296	0
1	273	639.962984861701	0
1	275	646.035768047026	0
1	277	646.700493880238	1
1	278	647.557458553326	1
1	279	647.794040016388	0
1	284	654.825600306625	0
1	286	656.330937168635	1
1	287	659.069557488945	1
1	289	659.22283601459	1
1	290	659.69853344083	1
1	291	660.166814627308	0
1	295	662.930578404102	0
1	297	668.660465822505	1
1	299	669.213705429238	2
1	303	686.651463762509	3
1	306	689.556081539344	4
1	308	692.334319026169	4
1	309	692.467651474299	3
1	310	693.335765347434	2
1	312	699.689261245628	2
1	314	700.697231461097	3
1	315	701.757187216978	3
1	316	702.180569216098	2
1	317	702.190979569413	1
1	318	702.912051282273	0
1	323	718.013659795175	0
1	324	722.149787955736	0
1	326	722.983967879998	0
1	327	726.154153216893	0
1	329	726.315870106654	0
1	330	726.992310773542	0
1	332	748.09093089818	0
1	336	754.082570057365	1
1	338	755.836577288944	1
1	340	755.845534507378	1
1	342	757.767462288997	2
1	343	758.418143874996	2
1	344	758.710077473658	1
1	345	758.913646191988	0
1	347	763.296326840998	0
1	348	763.523369718616	0
1	350	763.756724342622	0
1	351	764.564629714067	0
1	353	783.013662615862	0
1	354	783.968717708214	0
1	356	793.983471542549	0
1	357	797.000964473014	0
1	359	798.026774169896	0
1	360	798.763888909831	0
1	362	801.977773532648	0
1	363	802.286918949386	0
1	368	833.465877522527	0
1	369	833.64745271923	0
1	371	836.465091621941	0
1	372	838.102961826661	0
1	374	841.389145078265	0
1	375	844.857551367845	0
1	379	855.164496103926	0
1	381	856.34080103337	0
1	385	859.058740100249	0
1	390	870.96052869789	1
1	392	872.015518815138	2
1	394	875.696585312261	2
1	395	875.97171222619	1
1	396	876.124436563048	0
1	401	905.7906501075	0
1	402	909.536951156762	0
1	404	917.454414024692	0
1	405	917.722751811258	0
1	407	921.532650731636	0
1	408	921.991410465752	0
1	410	927.925128540496	0
1	411	928.238048213336	0
1	419	949.937502961437	0
1	420	952.063139729103	0
1	422	955.67258158671	0
1	426	961.254644888158	1
1	428	967.39263571396	1
1	430	967.551004355144	1
1	431	970.599148632889	1
1	432	971.481845680887	0
1	434	994.532880761544	0
1	435	994.969291811037	0
1	437	995.30254166152	0
1	438	996.216292443733	0
1	440	1009.931705878689	0
1	441	1012.839781956932	0
1	443	1021.737113462098	0
1	444	1022.40193902624	0
1	446	1024.17178272167	0
1	447	1024.31102616217	0
1	449	1024.471307065166	0
1	450	1027.692938845903	0
1	457	1044.17301064952	0
1	459	1047.326787529741	0
1	461	1058.134734592907	0
1	462	1058.196961978164	0
1	471	1077.59144860176	0
1	474	1094.572335690768	0
1	476	1099.7668425196	0
1	477	1104.066259064382	0
1	486	1177.970402632044	0
1	493	1196.635886742355	1
1	494	1199.324631047735	1
1	495	1199.74302766537	0
1	497	1200.226436534748	0
1	498	1204.693535353271	0
1	500	1205.305018111409	0
1	501	1205.710482723443	0
1	503	1208.547369053641	0
1	504	1209.66457854773	0
1	508	1215.12574070078	0
1	510	1219.267934439993	1
1	512	1220.137011344879	1
1	513	1221.628049775596	0
1	515	1237.053733865379	0
1	516	1237.294681409469	0
1	518	1239.590833280954	0
1	519	1240.058248954133	0
1	521	1243.366400938419	0
1	522	1244.28665161006	0
1	524	1247.006478551144	0
1	525	1247.592100201203	0
1	527	1256.950644294721	0
1	531	1257.854266104936	0
1	536	1269.448195677003	0
1	537	1270.498370962045	0
1	542	1316.893751880655	0
1	543	1318.458222598298	0
1	547	1326.742537226964	0
1	549	1333.349986507139	0
1	551	1345.848286259193	0
1	552	1346.051933037057	0
1	557	1348.648970850869	0
1	558	1348.726247172484	0
1	563	1356.52134966197	0
1	564	1357.483057434972	0
1	566	1358.668885500997	0
1	567	1359.328699457922	0
1	569	1366.071723712859	0
1	570	1367.721276799432	0
1	578	1412.303689929352	0
1	579	1412.629563429384	0
1	587	1429.733317691778	0
1	588	1430.081988923839	0
1	590	1434.323136498465	0
1	591	1434.462597607171	0
1	593	1434.964109108602	0
1	594	1435.45001303797	0
1	598	1436.961393363256	0
1	600	1438.014710699769	1
1	602	1440.91670006931	2
1	604	1444.778736544727	2
1	605	1446.266739827901	1
1	606	1447.276012140603	0
1	608	1452.643273660911	0
1	609	1453.903687308656	0
1	614	1471.204834866045	0
1	615	1473.698417685094	0
1	617	1477.679218653875	0
1	618	1478.073806049934	0
1	620	1483.295070252198	0
1	621	1483.454531225639	0
1	626	1491.594781451896	0
1	627	1491.904985413046	0
1	629	1505.030160024024	0
1	630	1505.912139079704	0
1	632	1516.450343239982	0
1	633	1516.508562088473	0
1	635	1517.991208355858	0
1	636	1518.706914130076	0
1	638	1523.870921068251	0
1	639	1523.890757037105	0
1	649	1538.057668432891	0
1	651	1542.151793495129	0
1	653	1546.248679213656	0
1	654	1548.576861506263	0
1	656	1563.091021173002	0
1	657	1563.478040372706	0
1	659	1564.606893435329	0
1	660	1564.918485234505	0
1	662	1568.309056649513	0
1	663	1568.487735193519	0
1	665	1578.568099306452	0
1	667	1579.021682457924	1
1	668	1579.030979755197	1
1	669	1579.649292391791	0
1	671	1582.461246981718	0
1	673	1582.712989310234	1
1	674	1583.244776577308	1
1	675	1584.402851488491	0
1	677	1603.358994729019	0
1	681	1606.333470360321	0
1	683	1607.744862763942	0
1	684	1608.10757348433	0
1	686	1612.46891407111	0
1	687	1613.212295268362	0
1	689	1636.770725581656	0
1	690	1639.602518358725	0
1	692	1643.752179947993	0
1	694	1644.931583917353	1
1	696	1645.208321763132	2
1	697	1646.56278911801	2
1	698	1647.944268715887	1
1	699	1648.498855065359	0
1	701	1659.176969637964	0
1	702	1662.702450558728	0
1	704	1674.345312371334	0
1	705	1675.364011398221	0
1	712	1685.420559474964	0
1	714	1689.950900213952	1
1	716	1697.931056839573	2
1	718	1701.470345376799	2
1	719	1701.561122260536	1
1	720	1701.870947449921	0
1	722	1705.363008194692	0
1	723	1707.464806243028	0
1	725	1708.149830541008	0
1	726	1710.251471596673	0
1	728	1710.341140059046	0
1	729	1710.521159834042	0
1	731	1713.362897446005	0
1	732	1713.585069351534	0
1	734	1716.826918214573	0
1	735	1721.850296786874	0
1	742	1746.520972385423	0
1	746	1750.012828917756	1
1	748	1750.7522501866	2
1	751	1753.197243897823	2
1	752	1756.038506660052	1
1	753	1759.699470566282	0
1	761	1780.545645202351	0
1	762	1781.105051847333	0
1	764	1783.624836174733	0
1	765	1784.499618481993	0
1	767	1785.515637779284	0
1	769	1786.608102528738	1
1	770	1788.034830718812	1
1	772	1788.100980481798	1
1	773	1788.456401493303	1
1	774	1791.865174389676	0
1	776	1792.129076952849	0
1	777	1792.542224568207	0
1	781	1809.173374539332	0
1	783	1813.686348165498	1
1	788	1825.209527922878	1
1	789	1825.792072408982	0
1	791	1834.396774731413	0
1	792	1834.410228840684	0
1	794	1837.476149774725	0
1	795	1839.31840484234	0
1	797	1870.033855423056	0
1	798	1873.346592316984	0
1	800	1890.545216059208	0
1	801	1891.67532743265	0
1	809	1916.765702130355	0
1	810	1917.080932646307	0
1	815	1934.493965339324	0
1	816	1934.529285165826	0
1	818	1937.97189039777	0
1	819	1939.62127736139	0
1	835	1976.855919890475	0
1	842	1988.823419157974	1
1	848	1996.727013769419	2
1	850	1998.85047389208	3
1	854	2006.840808922118	4
1	858	2024.745438396731	5
1	860	2025.944021961315	6
1	863	2028.289970011253	7
1	866	2034.528762251477	7
1	867	2035.92504879379	6
1	868	2036.249202072046	5
1	869	2036.54826193761	4
1	870	2040.208968961847	3
1	872	2040.45613515477	3
1	873	2044.320051144468	3
1	874	2046.04791008535	2
1	875	2046.605098418877	1
1	876	2047.322042550355	0
1	878	2047.342792869357	0
1	879	2050.557404283261	0
1	881	2067.117905936518	0
1	882	2067.5073980289	0
1	884	2079.932128378416	0
1	886	2080.182697143549	1
1	887	2080.272886974219	1
1	889	2080.499574889648	1
1	890	2086.843448133323	1
1	891	2087.624414521459	0
1	893	2107.610656614475	0
1	894	2109.097980529935	0
1	896	2112.345383053022	0
1	897	2113.316327734201	0
1	899	2130.249105147754	0
1	900	2130.812876365504	0
1	902	2138.55333155246	0
1	906	2143.419866067781	1
1	919	2171.416923986947	2
1	921	2174.188701438503	3
1	924	2187.093761591359	4
1	926	2192.155402618666	5
1	928	2204.841647655703	6
1	930	2206.245984870921	7
1	935	2217.385141035847	7
1	936	2217.960689851166	6
1	937	2217.987257370549	5
1	938	2219.978748104027	4
1	939	2221.936703852224	3
1	940	2226.232375336564	2
1	941	2227.253926729543	1
1	942	2229.014955970705	0
1	944	2244.13923776168	0
1	945	2248.090397066372	0
1	950	2277.537847225243	0
1	951	2277.577784848459	0
1	955	2289.141865512103	0
1	957	2291.318595943235	1
1	959	2292.679454801968	1
1	961	2295.59156571577	1
1	962	2295.741415066632	1
1	963	2297.075470671339	0
1	965	2297.947119131108	0
1	966	2298.417593091466	0
1	968	2316.278446438018	0
1	969	2316.786741525518	0
1	971	2327.98601757414	0
1	972	2328.791856688721	0
1	977	2345.680151314537	0
1	978	2345.920583592538	0
1	980	2351.582526638814	0
1	984	2355.950327309082	0
1	986	2361.054874266508	0
1	987	2362.19517504796	0
1	989	2366.210491028203	0
1	991	2370.222330685964	1
1	992	2375.885549149699	1
1	993	2376.301152209639	0
1	995	2379.145448243972	0
1	996	2379.98830817989	0
1	998	2389.248330480956	0
1	999	2389.633172718322	0
1	1001	2389.842691429586	0
1	1002	2391.190115534102	0
1	1004	2393.095394791491	0
1	1006	2396.301173612793	1
1	1007	2397.232756014174	1
1	1008	2397.81579688148	0
1	1010	2402.826514123312	0
1	1011	2405.163367841447	0
1	1013	2405.848596340953	0
1	1014	2405.929613541996	0
1	1016	2413.005412113603	0
1	1017	2414.009175856374	0
1	1021	2418.180451570403	0
1	1023	2422.103176349918	0
1	1028	2443.112190058738	0
1	1029	2444.267061874211	0
1	1033	2457.571520976012	0
1	1039	2492.925146764597	1
1	1042	2498.096628724313	2
1	1044	2499.167734483319	3
2	179	356.789216703952	0
2	182	366.407720533371	0
2	188	377.040571376589	0
2	197	407.187138617204	0
2	200	441.086758584803	0
2	203	444.494047951664	0
2	209	455.940681469283	1.128065259062
2	212	465.641600051131	0
2	221	481.333917006046	2.056096910755
2	227	494.852513830573	0
2	230	512.690580686026	0
2	235	514.339017270198	1.047436488452
2	236	516.460442015505	3.10910251013
2	249	551.241723481197	14.870518945667
2	250	551.277834513724	7.284707822985
2	251	552.058397615773	7.323935076837
2	254	570.095733877643	0
2	257	581.896687504052	0
2	260	583.921324485665	0
2	263	585.279116190361	0
2	269	629.916911843095	1.249516410807
2	272	639.69467870296	0
2	275	646.035768047026	0
2	278	647.557458553326	0.856964673088
2	284	654.825600306625	0
2	287	659.069557488945	2.73862032031
2	290	659.69853344083	0.47569742624
2	307	690.133759505914	27.203181101812
2	308	692.334319026169	23.673853203664
2	309	692.467651474299	23.253946045061
2	310	693.335765347434	6.684301584925
2	315	701.757187216978	12.201105677634
2	316	702.180569216098	2.49130797047
2	317	702.190979569413	1.493748108316
2	323	718.013659795175	0
2	326	722.983967879998	0
2	329	726.315870106654	0
2	332	748.09093089818	0
2	337	755.58308991186	6.911338747187
2	338	755.836577288944	1.754007231579
2	343	758.418143874996	2.572609367618
2	344	758.710077473658	0.942615184661
2	347	763.296326840998	0
2	350	763.756724342622	0
2	353	783.013662615862	0
2	356	793.983471542549	0
2	359	798.026774169896	0
2	362	801.977773532648	0
2	368	833.465877522527	0
2	371	836.465091621941	0
2	374	841.389145078265	0
2	380	855.309503850724	0.145007746798
2	393	873.111637626329	14.05289752608
2	394	875.696585312261	4.736056614371
2	395	875.97171222619	3.956193411052
2	401	905.7906501075	0
2	404	917.454414024692	0
2	407	921.532650731636	0
2	410	927.925128540496	0
2	419	949.937502961437	0
2	422	955.67258158671	0
2	427	966.621646117785	9.273477394177
2	428	967.39263571396	6.137990825802
2	431	970.599148632889	3.048144277745
2	434	994.532880761544	0
2	437	995.30254166152	0
2	440	1009.931705878689	0
2	443	1021.737113462098	0
2	446	1024.17178272167	0
2	449	1024.471307065166	0
2	458	1046.459537125816	2.286526476296
2	461	1058.134734592907	0
2	473	1090.921906738527	13.330458136767
2	476	1099.7668425196	0
2	491	1188.938420042771	10.968017410727
2	494	1199.324631047735	2.68874430538
2	497	1200.226436534748	0
2	500	1205.305018111409	0
2	503	1208.547369053641	0
2	511	1219.577655794221	4.451915093441
2	512	1220.137011344879	0.869076904886
2	515	1237.053733865379	0
2	518	1239.590833280954	0
2	521	1243.366400938419	0
2	524	1247.006478551144	0
2	527	1256.950644294721	0
2	530	1257.717744654027	0.700147328422
2	536	1269.448195677003	0
2	542	1316.893751880655	0
2	548	1333.200731432502	6.458194205538
2	551	1345.848286259193	0
2	557	1348.648970850869	0
2	563	1356.52134966197	0
2	566	1358.668885500997	0
2	569	1366.071723712859	0
2	578	1412.303689929352	0
2	587	1429.733317691778	0
2	590	1434.323136498465	0
2	593	1434.964109108602	0
2	603	1441.254946629878	4.293553266622
2	604	1444.778736544727	6.764025844958
2	605	1446.266739827901	5.350039758591
2	608	1452.643273660911	0
2	614	1471.204834866045	0
2	617	1477.679218653875	0
2	620	1483.295070252198	0
2	626	1491.594781451896	0
2	629	1505.030160024024	0
2	632	1516.450343239982	0
2	635	1517.991208355858	0
2	638	1523.870921068251	0
2	650	1540.67662682263	2.618958389739
2	653	1546.248679213656	0
2	656	1563.091021173002	0
2	659	1564.606893435329	0
2	662	1568.309056649513	0
2	665	1578.568099306452	0
2	668	1579.030979755197	0.009297297273
2	671	1582.461246981718	0
2	674	1583.244776577308	0.531787267074
2	677	1603.358994729019	0
2	680	1605.264880141301	0.046021982927
2	683	1607.744862763942	0
2	686	1612.46891407111	0
2	689	1636.770725581656	0
2	692	1643.752179947993	0
2	697	1646.56278911801	1.631205200657
2	698	1647.944268715887	2.735946952755
2	701	1659.176969637964	0
2	704	1674.345312371334	0
2	717	1701.428791040034	16.00823156507
2	718	1701.470345376799	11.519445162847
2	719	1701.561122260536	3.630065420963
2	722	1705.363008194692	0
2	725	1708.149830541008	0
2	728	1710.341140059046	0
2	731	1713.362897446005	0
2	734	1716.826918214573	0
2	750	1752.139370986026	5.618398600603
2	751	1753.197243897823	3.184414980067
2	752	1756.038506660052	5.286256473452
2	761	1780.545645202351	0
2	764	1783.624836174733	0
2	767	1785.515637779284	0
2	770	1788.034830718812	1.426728190074
2	773	1788.456401493303	0.355421011505
2	776	1792.129076952849	0
2	787	1825.090851265266	15.917476725934
2	788	1825.209527922878	11.52317975738
2	791	1834.396774731413	0
2	794	1837.476149774725	0
2	797	1870.033855423056	0
2	800	1890.545216059208	0
2	809	1916.765702130355	0
2	815	1934.493965339324	0
2	818	1937.97189039777	0
2	865	2032.452891835867	55.596971945392
2	866	2034.528762251477	45.705343093503
2	867	2035.92504879379	39.198035024371
2	868	2036.249202072046	37.398728179966
2	869	2036.54826193761	29.707453015492
2	870	2040.208968961847	15.463530565116
2	873	2044.320051144468	18.376029183153
2	874	2046.04791008535	17.757940074097
2	875	2046.605098418877	6.148963264107
2	878	2047.342792869357	0
2	881	2067.117905936518	0
2	884	2079.932128378416	0
2	887	2080.272886974219	0.09018983067
2	890	2086.843448133323	6.343873243675
2	893	2107.610656614475	0
2	896	2112.345383053022	0
2	899	2130.249105147754	0
2	902	2138.55333155246	0
2	934	2217.065137345941	76.810399234601
2	935	2217.385141035847	73.965274968066
2	936	2217.960689851166	46.543765864219
2	937	2217.987257370549	43.798555932046
2	938	2219.978748104027	32.884986512668
2	939	2221.936703852224	29.781301233558
2	940	2226.232375336564	21.390727680861
2	941	2227.253926729543	21.007941858622
2	944	2244.13923776168	0
2	950	2277.537847225243	0
2	958	2292.613418441293	3.47155292919
2	959	2292.679454801968	1.360858858733
2	962	2295.741415066632	0.149849350862
2	965	2297.947119131108	0
2	968	2316.278446438018	0
2	971	2327.98601757414	0
2	977	2345.680151314537	0
2	980	2351.582526638814	0
2	983	2355.028102884361	3.316212760878
2	986	2361.054874266508	0
2	989	2366.210491028203	0
2	992	2375.885549149699	5.663218463735
2	995	2379.145448243972	0
2	998	2389.248330480956	0
2	1001	2389.842691429586	0
2	1004	2393.095394791491	0
2	1007	2397.232756014174	0.931582401381
2	1010	2402.826514123312	0
2	1013	2405.848596340953	0
2	1016	2413.005412113603	0
2	1022	2421.421593259042	3.241141688639
2	1028	2443.112190058738	0
3	180	357.327215532518	39
3	183	366.691553548049	40
3	189	377.260904303661	41
3	198	409.210938577394	42
3	201	443.261537415212	43
3	204	444.992589872229	44
3	210	457.324667166762	45
3	213	465.808736954302	46
3	222	482.772944451403	47
3	228	495.236448126452	48
3	235	514.339017270198	49
3	236	516.460442015505	50
3	237	518.485983841853	51
3	250	551.277834513724	52
3	251	552.058397615773	53
3	252	553.020952104798	54
3	255	570.383811270571	55
3	258	582.151177030176	56
3	261	584.205325044238	57
3	264	586.115366391052	58
3	270	630.516794961639	59
3	273	639.962984861701	60
3	278	647.557458553326	61
3	279	647.794040016388	62
3	287	659.069557488945	63
3	290	659.69853344083	64
3	291	660.166814627308	65
3	308	692.334319026169	66
3	309	692.467651474299	67
3	310	693.335765347434	68
3	315	701.757187216978	69
3	316	702.180569216098	70
3	317	702.190979569413	71
3	318	702.912051282273	72
3	324	722.149787955736	73
3	327	726.154153216893	74
3	330	726.992310773542	75
3	338	755.836577288944	76
3	343	758.418143874996	77
3	344	758.710077473658	78
3	345	758.913646191988	79
3	348	763.523369718616	80
3	351	764.564629714067	81
3	354	783.968717708214	82
3	357	797.000964473014	83
3	360	798.763888909831	84
3	363	802.286918949386	85
3	369	833.64745271923	86
3	372	838.102961826661	87
3	375	844.857551367845	88
3	381	856.34080103337	89
3	394	875.696585312261	90
3	395	875.97171222619	91
3	396	876.124436563048	92
3	402	909.536951156762	93
3	405	917.722751811258	94
3	408	921.991410465752	95
3	411	928.238048213336	96
3	420	952.063139729103	97
3	428	967.39263571396	98
3	431	970.599148632889	99
3	432	971.481845680887	100
3	435	994.969291811037	101
3	438	996.216292443733	102
3	441	1012.839781956932	103
3	444	1022.40193902624	104
3	447	1024.31102616217	105
3	450	1027.692938845903	106
3	459	1047.326787529741	107
3	462	1058.196961978164	108
3	474	1094.572335690768	109
3	477	1104.066259064382	110
3	494	1199.324631047735	111
3	495	1199.74302766537	112
3	498	1204.693535353271	113
3	501	1205.710482723443	114
3	504	1209.66457854773	115
3	512	1220.137011344879	116
3	513	1221.628049775596	117
3	516	1237.294681409469	118
3	519	1240.058248954133	119
3	522	1244.28665161006	120
3	525	1247.592100201203	121
3	531	1257.854266104936	122
3	537	1270.498370962045	123
3	543	1318.458222598298	124
3	549	1333.349986507139	125
3	552	1346.051933037057	126
3	558	1348.726247172484	127
3	564	1357.483057434972	128
3	567	1359.328699457922	129
3	570	1367.721276799432	130
3	579	1412.629563429384	131
3	588	1430.081988923839	132
3	591	1434.462597607171	133
3	594	1435.45001303797	134
3	604	1444.778736544727	135
3	605	1446.266739827901	136
3	606	1447.276012140603	137
3	609	1453.903687308656	138
3	615	1473.698417685094	139
3	618	1478.073806049934	140
3	621	1483.454531225639	141
3	627	1491.904985413046	142
3	630	1505.912139079704	143
3	633	1516.508562088473	144
3	636	1518.706914130076	145
3	639	1523.890757037105	146
3	651	1542.151793495129	147
3	654	1548.576861506263	148
3	657	1563.478040372706	149
3	660	1564.918485234505	150
3	663	1568.487735193519	151
3	668	1579.030979755197	152
3	669	1579.649292391791	153
3	674	1583.244776577308	154
3	675	1584.402851488491	155
3	681	1606.333470360321	156
3	684	1608.10757348433	157
3	687	1613.212295268362	158
3	690	1639.602518358725	159
3	697	1646.56278911801	160
3	698	1647.944268715887	161
3	699	1648.498855065359	162
3	702	1662.702450558728	163
3	705	1675.364011398221	164
3	718	1701.470345376799	165
3	719	1701.561122260536	166
3	720	1701.870947449921	167
3	723	1707.464806243028	168
3	726	1710.251471596673	169
3	729	1710.521159834042	170
3	732	1713.585069351534	171
3	735	1721.850296786874	172
3	751	1753.197243897823	173
3	752	1756.038506660052	174
3	753	1759.699470566282	175
3	762	1781.105051847333	176
3	765	1784.499618481993	177
3	770	1788.034830718812	178
3	773	1788.456401493303	179
3	774	1791.865174389676	180
3	777	1792.542224568207	181
3	788	1825.209527922878	182
3	789	1825.792072408982	183
3	792	1834.410228840684	184
3	795	1839.31840484234	185
3	798	1873.346592316984	186
3	801	1891.67532743265	187
3	810	1917.080932646307	188
3	816	1934.529285165826	189
3	819	1939.62127736139	190
3	866	2034.528762251477	191
3	867	2035.92504879379	192
3	868	2036.249202072046	193
3	869	2036.54826193761	194
3	870	2040.208968961847	195
3	873	2044.320051144468	196
3	874	2046.04791008535	197
3	875	2046.605098418877	198
3	876	2047.322042550355	199
3	879	2050.557404283261	200
3	882	2067.5073980289	201
3	887	2080.272886974219	202
3	890	2086.843448133323	203
3	891	2087.624414521459	204
3	894	2109.097980529935	205
3	897	2113.316327734201	206
3	900	2130.812876365504	207
3	935	2217.385141035847	208
3	936	2217.960689851166	209
3	937	2217.987257370549	210
3	938	2219.978748104027	211
3	939	2221.936703852224	212
3	940	2226.232375336564	213
3	941	2227.253926729543	214
3	942	2229.014955970705	215
3	945	2248.090397066372	216
3	951	2277.577784848459	217
3	959	2292.679454801968	218
3	962	2295.741415066632	219
3	963	2297.075470671339	220
3	966	2298.417593091466	221
3	969	2316.786741525518	222
3	972	2328.791856688721	223
3	978	2345.920583592538	224
3	984	2355.950327309082	225
3	987	2362.19517504796	226
3	992	2375.885549149699	227
3	993	2376.301152209639	228
3	996	2379.98830817989	229
3	999	2389.633172718322	230
3	1002	2391.190115534102	231
3	1007	2397.232756014174	232
3	1008	2397.81579688148	233
3	1011	2405.163367841447	234
3	1014	2405.929613541996	235
3	1017	2414.009175856374	236
3	1023	2422.103176349918	237
3	1029	2444.267061874211	238
4	180	357.327215532518	0.537998828566
4	183	366.691553548049	0.283833014678
4	189	377.260904303661	0.220332927072
4	198	409.210938577394	2.02379996019
4	201	443.261537415212	2.174778830409
4	204	444.992589872229	0.498541920565
4	210	457.324667166762	2.512050956541
4	213	465.808736954302	0.167136903171
4	222	482.772944451403	3.495124356112
4	228	495.236448126452	0.383934295879
4	235	514.339017270198	1.648436584172
4	236	516.460442015505	3.168861233759
4	237	518.485983841853	5.134644336478
4	250	551.277834513724	14.906629978194
4	251	552.058397615773	8.065270925034
4	252	553.020952104798	8.286489565862
4	255	570.383811270571	0.288077392928
4	258	582.151177030176	0.254489526124
4	261	584.205325044238	0.284000558573
4	264	586.115366391052	0.836250200691
4	270	630.516794961639	1.849399529351
4	273	639.962984861701	0.268306158741
4	278	647.557458553326	1.5216905063
4	279	647.794040016388	1.09354613615
4	287	659.069557488945	4.24395718232
4	290	659.69853344083	3.367596272195
4	291	660.166814627308	0.943978612718
4	308	692.334319026169	29.403740622067
4	309	692.467651474299	23.807185651794
4	310	693.335765347434	24.122059918196
4	315	701.757187216978	15.105723454469
4	316	702.180569216098	12.624487676754
4	317	702.190979569413	2.501718323785
4	318	702.912051282273	2.214819821176
4	324	722.149787955736	4.136128160561
4	327	726.154153216893	3.170185336895
4	330	726.992310773542	0.676440666888
4	338	755.836577288944	7.164826124271
4	343	758.418143874996	4.335573817631
4	344	758.710077473658	2.86454296628
4	345	758.913646191988	1.146183902991
4	348	763.523369718616	0.227042877618
4	351	764.564629714067	0.807905371445
4	354	783.968717708214	0.955055092352
4	357	797.000964473014	3.017492930465
4	360	798.763888909831	0.737114739935
4	363	802.286918949386	0.309145416738
4	369	833.64745271923	0.181575196703
4	372	838.102961826661	1.63787020472
4	375	844.857551367845	3.46840628958
4	381	856.34080103337	1.176304929444
4	394	875.696585312261	16.637845212012
4	395	875.97171222619	5.0111835283
4	396	876.124436563048	4.10891774791
4	402	909.536951156762	3.746301049262
4	405	917.722751811258	0.268337786566
4	408	921.991410465752	0.458759734116
4	411	928.238048213336	0.31291967284
4	420	952.063139729103	2.125636767666
4	428	967.39263571396	10.044466990352
4	431	970.599148632889	9.344503744731
4	432	971.481845680887	3.930841325743
4	435	994.969291811037	0.436411049493
4	438	996.216292443733	0.913750782213
4	441	1012.839781956932	2.908076078243
4	444	1022.40193902624	0.664825564142
4	447	1024.31102616217	0.1392434405
4	450	1027.692938845903	3.221631780737
4	459	1047.326787529741	3.153776880221
4	462	1058.196961978164	0.062227385257
4	474	1094.572335690768	16.980887089008
4	477	1104.066259064382	4.299416544782
4	494	1199.324631047735	21.354228415691
4	495	1199.74302766537	3.107140923015
4	498	1204.693535353271	4.467098818523
4	501	1205.710482723443	0.405464612034
4	504	1209.66457854773	1.117209494089
4	512	1220.137011344879	5.011270644099
4	513	1221.628049775596	2.360115335603
4	516	1237.294681409469	0.24094754409
4	519	1240.058248954133	0.467415673179
4	522	1244.28665161006	0.920250671641
4	525	1247.592100201203	0.585621650059
4	531	1257.854266104936	0.836668779331
4	537	1270.498370962045	1.050175285042
4	543	1318.458222598298	1.564470717643
4	549	1333.349986507139	6.607449280175
4	552	1346.051933037057	0.203646777864
4	558	1348.726247172484	0.077276321615
4	564	1357.483057434972	0.961707773002
4	567	1359.328699457922	0.659813956925
4	570	1367.721276799432	1.649553086573
4	579	1412.629563429384	0.325873500032
4	588	1430.081988923839	0.348671232061
4	591	1434.462597607171	0.139461108706
4	594	1435.45001303797	0.485903929368
4	604	1444.778736544727	7.817343181471
4	605	1446.266739827901	8.252029128132
4	606	1447.276012140603	6.359312071293
4	609	1453.903687308656	1.260413647745
4	615	1473.698417685094	2.493582819049
4	618	1478.073806049934	0.394587396059
4	621	1483.454531225639	0.159460973441
4	627	1491.904985413046	0.31020396115
4	630	1505.912139079704	0.88197905568
4	633	1516.508562088473	0.058218848491
4	636	1518.706914130076	0.715705774218
4	639	1523.890757037105	0.019835968854
4	651	1542.151793495129	4.094125062238
4	654	1548.576861506263	2.328182292607
4	657	1563.478040372706	0.387019199704
4	660	1564.918485234505	0.311591799176
4	663	1568.487735193519	0.178678544006
4	668	1579.030979755197	0.462880448745
4	669	1579.649292391791	0.627609933867
4	674	1583.244776577308	0.78352959559
4	675	1584.402851488491	1.689862178257
4	681	1606.333470360321	1.114612201947
4	684	1608.10757348433	0.362710720388
4	687	1613.212295268362	0.743381197252
4	690	1639.602518358725	2.831792777069
4	697	1646.56278911801	2.810609170017
4	698	1647.944268715887	3.012684798534
4	699	1648.498855065359	3.290533302227
4	702	1662.702450558728	3.525480920764
4	705	1675.364011398221	1.018699026887
4	718	1701.470345376799	16.049785901835
4	719	1701.561122260536	11.610222046584
4	720	1701.870947449921	3.939890610348
4	723	1707.464806243028	2.101798048336
4	726	1710.251471596673	2.101641055665
4	729	1710.521159834042	0.180019774996
4	732	1713.585069351534	0.222171905529
4	735	1721.850296786874	5.023378572301
4	751	1753.197243897823	6.6762715124
4	752	1756.038506660052	6.025677742296
4	753	1759.699470566282	8.947220379682
4	762	1781.105051847333	0.559406644982
4	765	1784.499618481993	0.87478230726
4	770	1788.034830718812	2.519192939528
4	773	1788.456401493303	1.848298964565
4	774	1791.865174389676	3.764193907878
4	777	1792.542224568207	0.413147615358
4	788	1825.209527922878	16.036153383546
4	789	1825.792072408982	12.105724243484
4	792	1834.410228840684	0.013454109271
4	795	1839.31840484234	1.842255067615
4	798	1873.346592316984	3.312736893928
4	801	1891.67532743265	1.130111373442
4	810	1917.080932646307	0.315230515952
4	816	1934.529285165826	0.035319826502
4	819	1939.62127736139	1.64938696362
4	866	2034.528762251477	57.672842361002
4	867	2035.92504879379	47.101629635816
4	868	2036.249202072046	39.522188302627
4	869	2036.54826193761	37.69778804553
4	870	2040.208968961847	33.368160039729
4	873	2044.320051144468	19.574612747737
4	874	2046.04791008535	20.103888124035
4	875	2046.605098418877	18.315128407624
4	876	2047.322042550355	6.865907395585
4	879	2050.557404283261	3.214611413904
4	882	2067.5073980289	0.389492092382
4	887	2080.272886974219	0.340758595803
4	890	2086.843448133323	6.660750989774
4	891	2087.624414521459	7.124839631811
4	894	2109.097980529935	1.48732391546
4	897	2113.316327734201	0.970944681179
4	900	2130.812876365504	0.56377121775
4	935	2217.385141035847	77.130402924507
4	936	2217.960689851166	74.540823783385
4	937	2217.987257370549	46.570333383602
4	938	2219.978748104027	45.790046665524
4	939	2221.936703852224	34.842942260865
4	940	2226.232375336564	34.076972717898
4	941	2227.253926729543	22.41227907384
4	942	2229.014955970705	22.768971099784
4	945	2248.090397066372	3.951159304692
4	951	2277.577784848459	0.039937623216
4	959	2292.679454801968	3.537589289865
4	962	2295.741415066632	4.422819123397
4	963	2297.075470671339	1.483904955569
4	966	2298.417593091466	0.470473960358
4	969	2316.786741525518	0.5082950875
4	972	2328.791856688721	0.805839114581
4	978	2345.920583592538	0.240432278001
4	984	2355.950327309082	4.238437185599
4	987	2362.19517504796	1.140300781452
4	992	2375.885549149699	9.675058121496
4	993	2376.301152209639	6.078821523675
4	996	2379.98830817989	0.842859935918
4	999	2389.633172718322	0.384842237366
4	1002	2391.190115534102	1.347424104516
4	1007	2397.232756014174	4.137361222683
4	1008	2397.81579688148	1.514623268687
4	1011	2405.163367841447	2.336853718135
4	1014	2405.929613541996	0.081017201043
4	1017	2414.009175856374	1.003763742771
4	1023	2422.103176349918	3.922724779515
4	1029	2444.267061874211	1.154871815473
5	185	372.134798287112	1
5	191	382.649908763891	1
5	194	398.482874314802	1
5	206	452.623286576907	1
5	215	469.657341332736	1
5	218	476.563346583834	1
5	224	489.543105686646	1
5	239	526.025624377519	1
5	241	535.796427067984	2
5	266	626.393968682192	1
5	281	651.044778106652	1
5	293	661.777023052422	1
5	301	684.308078529856	2
5	320	708.194431253089	1
5	334	748.671751164673	1
5	365	813.013988148062	1
5	377	847.032280305105	1
5	383	858.592490456884	1
5	387	861.19589677694	2
5	398	884.394007217616	1
5	413	930.267922505825	1
5	416	937.320210880813	1
5	424	957.348168723608	1
5	452	1033.611678875363	1
5	455	1037.827955137379	1
5	464	1061.467071764612	1
5	467	1076.278973229815	1
5	469	1076.925032669892	2
5	479	1158.248829838364	1
5	481	1161.058857976693	2
5	483	1173.962877596753	3
5	489	1180.101638718088	2
5	506	1213.425459178936	1
5	529	1257.017597325605	1
5	533	1260.850513339229	1
5	539	1299.938347884687	1
5	545	1326.453008205057	1
5	554	1347.463605427665	1
5	560	1351.210648716751	1
5	572	1385.198060931911	1
5	575	1403.276454880886	1
5	581	1419.17759583594	1
5	584	1422.002012796862	1
5	596	1436.722330527041	1
5	611	1468.255254431895	1
5	623	1486.728705151374	1
5	641	1524.308443310314	1
5	643	1528.188529657151	2
5	645	1535.346246111982	3
5	679	1605.218858158374	1
5	707	1681.748549773511	1
5	710	1685.404964690379	1
5	737	1733.116417053337	1
5	740	1745.785983199229	1
5	744	1747.360294083479	2
5	755	1762.057885282339	1
5	758	1771.03123094636	1
5	779	1803.268513345241	1
5	785	1815.842102082336	2
5	803	1899.469683830687	1
5	805	1903.469048659292	2
5	812	1928.78649794723	1
5	821	1941.033560170089	1
5	824	1952.135829052273	1
5	827	1966.495807747824	1
5	829	1967.8742062205	2
5	831	1973.023659719139	3
5	833	1974.650065026567	4
5	837	1984.510906702646	5
5	839	1984.867767945828	6
5	844	1991.139207354218	6
5	852	2002.681817417297	5
5	904	2140.25473811134	1
5	908	2143.875117242388	2
5	910	2149.009102541388	3
5	912	2153.547249966718	4
5	915	2162.084817532982	4
5	917	2162.193617147174	5
5	947	2250.829136781739	1
5	953	2287.03352692923	1
5	974	2332.989143500774	1
5	982	2351.711890123483	1
5	1019	2414.616886915989	1
5	1025	2428.112985906692	1
5	1031	2455.475700995089	1
5	1035	2463.575780159213	2
5	1037	2491.203118857694	3
6	185	372.134798287112	0
6	186	374.375210080162	0
6	191	382.649908763891	0
6	192	392.264028410573	0
6	194	398.482874314802	0
6	195	405.646137622955	0
6	206	452.623286576907	0
6	209	455.940681469283	0
6	215	469.657341332736	0
6	216	474.420556828118	0
6	218	476.563346583834	0
6	221	481.333917006046	0
6	224	489.543105686646	0
6	225	492.41756407141	0
6	239	526.025624377519	0
6	241	535.796427067984	1
6	246	544.536065667265	1
6	249	551.241723481197	0
6	266	626.393968682192	0
6	269	629.916911843095	0
6	281	651.044778106652	0
6	282	654.174338220249	0
6	293	661.777023052422	0
6	301	684.308078529856	1
6	304	687.312877652463	1
6	307	690.133759505914	0
6	320	708.194431253089	0
6	321	713.396894660474	0
6	334	748.671751164673	0
6	337	755.58308991186	0
6	365	813.013988148062	0
6	366	813.702011260019	0
6	377	847.032280305105	0
6	380	855.309503850724	0
6	383	858.592490456884	0
6	387	861.19589677694	1
6	388	870.340571438363	1
6	393	873.111637626329	0
6	398	884.394007217616	0
6	399	886.059025713973	0
6	413	930.267922505825	0
6	414	933.95456284553	0
6	416	937.320210880813	0
6	417	942.977694392384	0
6	424	957.348168723608	0
6	427	966.621646117785	0
6	452	1033.611678875363	0
6	453	1036.031518416134	0
6	455	1037.827955137379	0
6	458	1046.459537125816	0
6	464	1061.467071764612	0
6	465	1073.322226299496	0
6	467	1076.278973229815	0
6	469	1076.925032669892	1
6	472	1078.598348701271	1
6	473	1090.921906738527	0
6	479	1158.248829838364	0
6	481	1161.058857976693	1
6	483	1173.962877596753	2
6	484	1176.248289309035	2
6	487	1178.001689035952	1
6	489	1180.101638718088	1
6	490	1181.69221624754	1
6	491	1188.938420042771	0
6	506	1213.425459178936	0
6	511	1219.577655794221	0
6	529	1257.017597325605	0
6	530	1257.717744654027	0
6	533	1260.850513339229	0
6	534	1261.160176869217	0
6	539	1299.938347884687	0
6	540	1303.651538247493	0
6	545	1326.453008205057	0
6	548	1333.200731432502	0
6	554	1347.463605427665	0
6	555	1348.176790081525	0
6	560	1351.210648716751	0
6	561	1353.59627572216	0
6	572	1385.198060931911	0
6	573	1386.286545231796	0
6	575	1403.276454880886	0
6	576	1403.863169688754	0
6	581	1419.17759583594	0
6	582	1420.847139017135	0
6	584	1422.002012796862	0
6	585	1427.455140971281	0
6	596	1436.722330527041	0
6	603	1441.254946629878	0
6	611	1468.255254431895	0
6	612	1468.90223095906	0
6	623	1486.728705151374	0
6	624	1487.294244300553	0
6	641	1524.308443310314	0
6	643	1528.188529657151	1
6	645	1535.346246111982	2
6	646	1535.926831966528	2
6	647	1537.802388752428	1
6	650	1540.67662682263	0
6	679	1605.218858158374	0
6	680	1605.264880141301	0
6	707	1681.748549773511	0
6	708	1682.735010415071	0
6	710	1685.404964690379	0
6	717	1701.428791040034	0
6	737	1733.116417053337	0
6	738	1733.618877876531	0
6	740	1745.785983199229	0
6	744	1747.360294083479	1
6	749	1751.410381439652	1
6	750	1752.139370986026	0
6	755	1762.057885282339	0
6	756	1763.341531719727	0
6	758	1771.03123094636	0
6	759	1779.597499573671	0
6	779	1803.268513345241	0
6	785	1815.842102082336	1
6	786	1821.772041278626	1
6	787	1825.090851265266	0
6	803	1899.469683830687	0
6	805	1903.469048659292	1
6	806	1904.937227026575	1
6	807	1907.555905828248	0
6	812	1928.78649794723	0
6	813	1929.085086294515	0
6	821	1941.033560170089	0
6	822	1942.551340608855	0
6	824	1952.135829052273	0
6	825	1957.345097519	0
6	827	1966.495807747824	0
6	829	1967.8742062205	1
6	831	1973.023659719139	2
6	833	1974.650065026567	3
6	837	1984.510906702646	4
6	839	1984.867767945828	5
6	840	1986.134020190018	5
6	844	1991.139207354218	5
6	845	1993.288351168397	5
6	846	1996.67968931624	4
6	852	2002.681817417297	4
6	855	2007.96882827735	4
6	856	2014.914861961262	3
6	861	2027.52408883866	2
6	864	2030.414506637732	1
6	865	2032.452891835867	0
6	904	2140.25473811134	0
6	908	2143.875117242388	1
6	910	2149.009102541388	2
6	912	2153.547249966718	3
6	913	2161.31304206686	3
6	915	2162.084817532982	3
6	917	2162.193617147174	4
6	922	2185.467264294442	4
6	931	2209.40513227874	3
6	932	2213.799770687283	2
6	933	2214.91859408289	1
6	934	2217.065137345941	0
6	947	2250.829136781739	0
6	948	2262.193292152786	0
6	953	2287.03352692923	0
6	958	2292.613418441293	0
6	974	2332.989143500774	0
6	975	2333.359316205099	0
6	982	2351.711890123483	0
6	983	2355.028102884361	0
6	1019	2414.616886915989	0
6	1022	2421.421593259042	0
6	1025	2428.112985906692	0
6	1026	2429.707690027955	0
6	1031	2455.475700995089	0
6	1035	2463.575780159213	1
6	1037	2491.203118857694	2
6	1040	2493.297940351288	2
7	185	372.134798287112	0
7	191	382.649908763891	0
7	194	398.482874314802	0
7	206	452.623286576907	0
7	215	469.657341332736	0
7	218	476.563346583834	0
7	224	489.543105686646	0
7	239	526.025624377519	0
7	246	544.536065667265	8.739638599281
7	266	626.393968682192	0
7	281	651.044778106652	0
7	293	661.777023052422	0
7	304	687.312877652463	3.004799122607
7	320	708.194431253089	0
7	334	748.671751164673	0
7	365	813.013988148062	0
7	377	847.032280305105	0
7	383	858.592490456884	0
7	388	870.340571438363	9.144674661423
7	398	884.394007217616	0
7	413	930.267922505825	0
7	416	937.320210880813	0
7	424	957.348168723608	0
7	452	1033.611678875363	0
7	455	1037.827955137379	0
7	464	1061.467071764612	0
7	467	1076.278973229815	0
7	472	1078.598348701271	1.673316031379
7	479	1158.248829838364	0
7	484	1176.248289309035	15.189431332342
7	487	1178.001689035952	4.038811439199
7	490	1181.69221624754	1.590577529452
7	506	1213.425459178936	0
7	529	1257.017597325605	0
7	533	1260.850513339229	0
7	539	1299.938347884687	0
7	545	1326.453008205057	0
7	554	1347.463605427665	0
7	560	1351.210648716751	0
7	572	1385.198060931911	0
7	575	1403.276454880886	0
7	581	1419.17759583594	0
7	584	1422.002012796862	0
7	596	1436.722330527041	0
7	611	1468.255254431895	0
7	623	1486.728705151374	0
7	641	1524.308443310314	0
7	646	1535.926831966528	7.738302309377
7	647	1537.802388752428	2.456142640446
7	679	1605.218858158374	0
7	707	1681.748549773511	0
7	710	1685.404964690379	0
7	737	1733.116417053337	0
7	740	1745.785983199229	0
7	749	1751.410381439652	4.050087356173
7	755	1762.057885282339	0
7	758	1771.03123094636	0
7	779	1803.268513345241	0
7	786	1821.772041278626	5.92993919629
7	803	1899.469683830687	0
7	806	1904.937227026575	1.468178367283
7	812	1928.78649794723	0
7	821	1941.033560170089	0
7	824	1952.135829052273	0
7	827	1966.495807747824	0
7	840	1986.134020190018	18.259813969518
7	845	1993.288351168397	20.264691449258
7	846	1996.67968931624	22.029624289673
7	855	2007.96882827735	23.457921574704
7	856	2014.914861961262	30.047094015434
7	861	2027.52408883866	36.384881484442
7	864	2030.414506637732	27.732689220435
7	904	2140.25473811134	0
7	913	2161.31304206686	17.437924824472
7	922	2185.467264294442	36.458161753054
7	931	2209.40513227874	55.857882312022
7	932	2213.799770687283	51.714953154301
7	933	2214.91859408289	52.724976935716
7	947	2250.829136781739	0
7	953	2287.03352692923	0
7	974	2332.989143500774	0
7	982	2351.711890123483	0
7	1019	2414.616886915989	0
7	1025	2428.112985906692	0
7	1031	2455.475700995089	0
7	1040	2493.297940351288	29.722160192075
8	186	374.375210080162	22
8	192	392.264028410573	23
8	195	405.646137622955	24
8	209	455.940681469283	25
8	216	474.420556828118	26
8	221	481.333917006046	27
8	225	492.41756407141	28
8	246	544.536065667265	29
8	249	551.241723481197	30
8	269	629.916911843095	31
8	282	654.174338220249	32
8	304	687.312877652463	33
8	307	690.133759505914	34
8	321	713.396894660474	35
8	337	755.58308991186	36
8	366	813.702011260019	37
8	380	855.309503850724	38
8	388	870.340571438363	39
8	393	873.111637626329	40
8	399	886.059025713973	41
8	414	933.95456284553	42
8	417	942.977694392384	43
8	427	966.621646117785	44
8	453	1036.031518416134	45
8	458	1046.459537125816	46
8	465	1073.322226299496	47
8	472	1078.598348701271	48
8	473	1090.921906738527	49
8	484	1176.248289309035	50
8	487	1178.001689035952	51
8	490	1181.69221624754	52
8	491	1188.938420042771	53
8	511	1219.577655794221	54
8	530	1257.717744654027	55
8	534	1261.160176869217	56
8	540	1303.651538247493	57
8	548	1333.200731432502	58
8	555	1348.176790081525	59
8	561	1353.59627572216	60
8	573	1386.286545231796	61
8	576	1403.863169688754	62
8	582	1420.847139017135	63
8	585	1427.455140971281	64
8	603	1441.254946629878	65
8	612	1468.90223095906	66
8	624	1487.294244300553	67
8	646	1535.926831966528	68
8	647	1537.802388752428	69
8	650	1540.67662682263	70
8	680	1605.264880141301	71
8	708	1682.735010415071	72
8	717	1701.428791040034	73
8	738	1733.618877876531	74
8	749	1751.410381439652	75
8	750	1752.139370986026	76
8	756	1763.341531719727	77
8	759	1779.597499573671	78
8	786	1821.772041278626	79
8	787	1825.090851265266	80
8	806	1904.937227026575	81
8	807	1907.555905828248	82
8	813	1929.085086294515	83
8	822	1942.551340608855	84
8	825	1957.345097519	85
8	840	1986.134020190018	86
8	845	1993.288351168397	87
8	846	1996.67968931624	88
8	855	2007.96882827735	89
8	856	2014.914861961262	90
8	861	2027.52408883866	91
8	864	2030.414506637732	92
8	865	2032.452891835867	93
8	913	2161.31304206686	94
8	922	2185.467264294442	95
8	931	2209.40513227874	96
8	932	2213.799770687283	97
8	933	2214.91859408289	98
8	934	2217.065137345941	99
8	948	2262.193292152786	100
8	958	2292.613418441293	101
8	975	2333.359316205099	102
8	983	2355.028102884361	103
8	1022	2421.421593259042	104
8	1026	2429.707690027955	105
8	1040	2493.297940351288	106
9	186	374.375210080162	2.24041179305
9	192	392.264028410573	9.614119646682
9	195	405.646137622955	7.163263308153
9	209	455.940681469283	3.317394892376
9	216	474.420556828118	4.763215495382
9	221	481.333917006046	4.770570422212
9	225	492.41756407141	2.874458384764
9	246	544.536065667265	18.510441289746
9	249	551.241723481197	15.445296413213
9	269	629.916911843095	3.522943160903
9	282	654.174338220249	3.129560113597
9	304	687.312877652463	25.535854600041
9	307	690.133759505914	5.825680976058
9	321	713.396894660474	5.202463407385
9	337	755.58308991186	6.911338747187
9	366	813.702011260019	0.688023111957
9	380	855.309503850724	8.277223545619
9	388	870.340571438363	11.748080981479
9	393	873.111637626329	11.915740849389
9	399	886.059025713973	1.665018496357
9	414	933.95456284553	3.686640339705
9	417	942.977694392384	5.657483511571
9	427	966.621646117785	9.273477394177
9	453	1036.031518416134	2.419839540771
9	458	1046.459537125816	8.631581988437
9	465	1073.322226299496	11.855154534884
9	472	1078.598348701271	2.319375471456
9	473	1090.921906738527	13.996874068635
9	484	1176.248289309035	17.999459470671
9	487	1178.001689035952	16.942831059259
9	490	1181.69221624754	7.729338650787
9	491	1188.938420042771	8.836781324683
9	511	1219.577655794221	6.152196615285
9	530	1257.717744654027	0.700147328422
9	534	1261.160176869217	0.309663529988
9	540	1303.651538247493	3.713190362806
9	548	1333.200731432502	6.747723227445
9	555	1348.176790081525	0.71318465386
9	561	1353.59627572216	2.385627005409
9	573	1386.286545231796	1.088484299885
9	576	1403.863169688754	0.586714807868
9	582	1420.847139017135	1.669543181195
9	585	1427.455140971281	5.453128174419
9	603	1441.254946629878	4.532616102837
9	612	1468.90223095906	0.646976527165
9	624	1487.294244300553	0.565539149179
9	646	1535.926831966528	11.618388656214
9	647	1537.802388752428	9.613859095277
9	650	1540.67662682263	5.330380710648
9	680	1605.264880141301	0.046021982927
9	708	1682.735010415071	0.98646064156
9	717	1701.428791040034	16.023826349655
9	738	1733.618877876531	0.502460823194
9	749	1751.410381439652	5.624398240423
9	750	1752.139370986026	4.779076902547
9	756	1763.341531719727	1.283646437388
9	759	1779.597499573671	8.566268627311
9	786	1821.772041278626	18.503527933385
9	787	1825.090851265266	9.24874918293
9	806	1904.937227026575	5.467543195888
9	807	1907.555905828248	4.086857168956
9	813	1929.085086294515	0.298588347285
9	822	1942.551340608855	1.517780438766
9	825	1957.345097519	5.209268466727
9	840	1986.134020190018	19.638212442194
9	845	1993.288351168397	25.414144947897
9	846	1996.67968931624	23.656029597101
9	855	2007.96882827735	33.318763250783
9	856	2014.914861961262	30.403955258616
9	861	2027.52408883866	42.656320892832
9	864	2030.414506637732	39.275299283514
9	865	2032.452891835867	29.77107441857
9	913	2161.31304206686	21.05830395552
9	922	2185.467264294442	41.592147052054
9	931	2209.40513227874	60.396029737352
9	932	2213.799770687283	60.252520720565
9	933	2214.91859408289	52.833776549908
9	934	2217.065137345941	54.871520198767
9	948	2262.193292152786	11.364155371047
9	958	2292.613418441293	5.579891512063
9	975	2333.359316205099	0.370172704325
9	983	2355.028102884361	3.316212760878
9	1022	2421.421593259042	6.804706343053
9	1026	2429.707690027955	1.594704121263
9	1040	2493.297940351288	37.822239356199
10	334	748.671751164673	7
10	424	957.348168723608	8
10	529	1257.017597325605	9
10	679	1605.218858158374	10
10	904	2140.25473811134	11
10	982	2351.711890123483	12
11	1045	2500	0.0952
12	1045	2500	0.0424

