version 2
run experiments_easy_game_mode1-253-20230308-12:02:47-19668
attr configname experiments_easy_game_mode1
attr datetime 20230308-12:02:47
attr experiment experiments_easy_game_mode1
attr inifile omnetpp.ini
attr iterationvars "$0=5, $1=3, $2=0"
attr iterationvarsf 5,3,0-
attr measurement "$0=5, $1=3, $2=0"
attr network Network
attr processid 19668
attr repetition 13
attr replication #13
attr resultdir results
attr runnumber 253
attr seedset 13
param *.boss.arrival_mean 20
param *.boss.service_mean 5
param *.minion.arrival_mean 10
param *.minion.service_mean 3
param *.player.recover_rate_x 0
param **.minion.arrival_distribution 0
param **.minion.service_distribution 0
param **.boss.arrival_distribution 0
param **.boss.service_distribution 0

vector 0 Network.player boss_jobs_number_stat:vector ETV
attr source signal_boss_jobs_number
vector 1 Network.player boss_jobs_queue_number_stat:vector ETV
attr source signal_boss_jobs_queue_number
vector 2 Network.player minion_jobs_number_stat:vector ETV
attr source signal_minion_jobs_number
vector 3 Network.player minion_jobs_queue_number_stat:vector ETV
attr source signal_minion_jobs_queue_number
vector 4 Network.player boss_defeated_stat:vector ETV
attr source signal_boss_defeated
vector 5 Network.player boss_response_time_stat:vector ETV
attr source signal_boss_response_time
vector 6 Network.player boss_waiting_time_stat:vector ETV
attr source signal_boss_waiting_time
vector 7 Network.player minion_waiting_time_stat:vector ETV
attr source signal_minion_waiting_time
vector 8 Network.player minion_recovered_stat:vector ETV
attr source signal_minion_recovered
vector 9 Network.player minion_defeated_stat:vector ETV
attr source signal_minion_defeated
vector 10 Network.player minion_response_time_stat:vector ETV
attr source signal_minion_response_time
vector 11 Network.player minion_throughput:vector ETV
attr source signal_minion_throughput
vector 12 Network.player boss_throughput:vector ETV
attr source signal_boss_throughput
0	161	350.881313172297	2
0	169	360.818519535049	1
0	172	361.531643308555	1
0	179	371.908598985871	1
0	181	376.931018151467	2
0	184	381.136330067117	2
0	217	429.073456309595	1
0	227	458.216863057689	1
0	232	485.039383383465	1
0	245	504.219337313665	1
0	250	513.42129579689	1
0	262	565.569280449517	1
0	278	626.472031129181	1
0	281	634.336558468053	1
0	285	638.192742303279	2
0	287	644.030677267764	3
0	289	644.144963208146	4
0	298	669.619848426002	2
0	311	693.409668976404	1
0	346	809.310921917985	1
0	359	827.380958355965	1
0	361	834.74067954906	2
0	377	858.166594785723	1
0	382	861.941115502046	1
0	391	883.655885421752	1
0	393	887.512647225875	2
0	404	903.905552536614	1
0	407	907.483937674146	1
0	434	990.413455002523	1
0	439	1008.003682923438	1
0	446	1020.417949707382	1
0	452	1033.249379298814	1
0	461	1053.470206707816	1
0	470	1065.821984533476	1
0	476	1072.614960455695	2
0	480	1077.976575989947	1
0	495	1104.858659015191	1
0	512	1143.647684051215	1
0	522	1159.235141044981	1
0	529	1171.966462265233	1
0	541	1196.686858693904	1
0	543	1197.809451509109	2
0	546	1201.314877016841	2
0	572	1301.300109462689	1
0	578	1316.697341954421	1
0	580	1321.049430127316	2
0	584	1327.240078304281	1
0	596	1352.172457290686	1
0	619	1419.760823824721	1
0	634	1453.65964639195	1
0	667	1539.073766767534	1
0	674	1551.811268998897	1
0	680	1574.680051997075	1
0	683	1580.731531549448	1
0	685	1583.786751798574	2
0	692	1595.405242588751	2
0	704	1614.424317239799	1
0	707	1619.123148538388	1
0	713	1628.846044176192	1
0	722	1641.653488925519	1
0	724	1646.228649184495	2
0	726	1651.491893488932	3
0	731	1656.443885829001	3
0	734	1659.95899571819	3
0	743	1686.518869704216	1
0	746	1691.412908866778	1
0	760	1722.827600274038	1
0	762	1726.331710433346	2
0	776	1767.39258822199	1
0	803	1826.132510283332	1
0	806	1837.232700665273	1
0	820	1856.676250964027	1
0	822	1857.37999332076	2
0	830	1883.476859197256	1
0	832	1885.403139532809	2
0	842	1927.167334289672	1
0	844	1928.858537845573	2
0	854	1985.692923559129	1
0	877	2035.12845233487	1
0	882	2037.706644485021	1
0	884	2043.472956852933	2
0	895	2086.337690370672	1
0	899	2097.545413534898	1
0	902	2099.566104157284	1
0	908	2115.320149594233	1
0	919	2145.854161296251	1
0	928	2165.681529415681	1
0	937	2187.109250616897	1
0	976	2221.454825515369	1
0	1003	2264.236815591852	1
0	1007	2271.874558676346	1
0	1014	2293.078236472355	1
0	1037	2336.495621840945	1
0	1041	2337.348088405461	2
0	1053	2352.254707627457	1
0	1064	2372.17973835098	1
0	1076	2414.535637886846	1
0	1094	2439.36645112858	1
0	1097	2440.572633583659	1
0	1107	2452.701691149425	1
0	1109	2455.773500652442	2
0	1115	2478.047714483756	1
0	1123	2490.461691942782	1
1	161	350.881313172297	1
1	164	354.914696827784	1
1	165	356.768685712741	0
1	169	360.818519535049	0
1	170	361.08251118407	0
1	172	361.531643308555	0
1	175	364.61598600882	0
1	179	371.908598985871	0
1	181	376.931018151467	1
1	182	379.382821872422	1
1	184	381.136330067117	1
1	185	381.844583472589	1
1	186	381.890488299405	0
1	217	429.073456309595	0
1	218	429.680704517624	0
1	227	458.216863057689	0
1	228	463.032623391974	0
1	232	485.039383383465	0
1	233	485.365034196959	0
1	245	504.219337313665	0
1	246	512.757605452187	0
1	250	513.42129579689	0
1	251	517.223630203244	0
1	262	565.569280449517	0
1	267	577.011987502229	0
1	278	626.472031129181	0
1	279	627.295323084533	0
1	281	634.336558468053	0
1	285	638.192742303279	1
1	287	644.030677267764	2
1	289	644.144963208146	3
1	292	655.543216955836	3
1	293	656.61949924454	2
1	294	660.05278986633	1
1	298	669.619848426002	1
1	299	670.866815798623	1
1	302	673.038600162842	0
1	311	693.409668976404	0
1	314	700.307313298062	0
1	346	809.310921917985	0
1	353	819.401148806733	0
1	359	827.380958355965	0
1	361	834.74067954906	1
1	366	841.526144448517	1
1	369	844.0543544464	0
1	377	858.166594785723	0
1	378	859.255624063701	0
1	382	861.941115502046	0
1	385	867.100426217674	0
1	391	883.655885421752	0
1	393	887.512647225875	1
1	394	887.860579145612	1
1	395	887.963906050081	0
1	404	903.905552536614	0
1	405	905.168145102293	0
1	407	907.483937674146	0
1	410	915.737439403631	0
1	434	990.413455002523	0
1	435	992.900990288895	0
1	439	1008.003682923438	0
1	440	1010.810886613296	0
1	446	1020.417949707382	0
1	447	1022.313935168628	0
1	452	1033.249379298814	0
1	455	1037.337792541498	0
1	461	1053.470206707816	0
1	462	1054.794373467972	0
1	470	1065.821984533476	0
1	476	1072.614960455695	1
1	477	1073.372465941488	1
1	478	1074.634907881995	0
1	480	1077.976575989947	0
1	481	1080.552059024792	0
1	495	1104.858659015191	0
1	496	1108.45954378507	0
1	512	1143.647684051215	0
1	517	1155.57724136344	0
1	522	1159.235141044981	0
1	527	1171.712622426318	0
1	529	1171.966462265233	0
1	530	1177.215138799157	0
1	541	1196.686858693904	0
1	543	1197.809451509109	1
1	544	1199.727819612329	1
1	546	1201.314877016841	1
1	547	1206.224225360237	1
1	550	1223.082517668966	0
1	572	1301.300109462689	0
1	573	1308.860781643485	0
1	578	1316.697341954421	0
1	580	1321.049430127316	1
1	581	1321.589172570606	1
1	582	1323.748686078	0
1	584	1327.240078304281	0
1	585	1328.197548757119	0
1	596	1352.172457290686	0
1	597	1352.271736011446	0
1	619	1419.760823824721	0
1	622	1428.779472507881	0
1	634	1453.65964639195	0
1	635	1455.879833392249	0
1	667	1539.073766767534	0
1	670	1543.146660104918	0
1	674	1551.811268998897	0
1	675	1553.617735913285	0
1	680	1574.680051997075	0
1	681	1575.503319128995	0
1	683	1580.731531549448	0
1	685	1583.786751798574	1
1	690	1593.301890480574	1
1	692	1595.405242588751	1
1	693	1596.588142025787	1
1	694	1598.049250045218	0
1	704	1614.424317239799	0
1	705	1615.644741197476	0
1	707	1619.123148538388	0
1	708	1620.50293573633	0
1	713	1628.846044176192	0
1	716	1632.214850704077	0
1	722	1641.653488925519	0
1	724	1646.228649184495	1
1	726	1651.491893488932	2
1	727	1653.688949124811	2
1	731	1656.443885829001	2
1	732	1656.983185944331	2
1	734	1659.95899571819	2
1	737	1664.481965152963	2
1	738	1667.174343164405	1
1	739	1669.982884485388	0
1	743	1686.518869704216	0
1	744	1690.843649322491	0
1	746	1691.412908866778	0
1	747	1704.154720634569	0
1	760	1722.827600274038	0
1	762	1726.331710433346	1
1	763	1726.400643545413	1
1	768	1732.550511054178	0
1	776	1767.39258822199	0
1	785	1788.113075240467	0
1	803	1826.132510283332	0
1	804	1826.504885808514	0
1	806	1837.232700665273	0
1	811	1846.026358471391	0
1	820	1856.676250964027	0
1	822	1857.37999332076	1
1	823	1858.619889068241	1
1	826	1868.467941276466	0
1	830	1883.476859197256	0
1	832	1885.403139532809	1
1	833	1892.802368312018	1
1	836	1896.916488497369	0
1	842	1927.167334289672	0
1	844	1928.858537845573	1
1	845	1932.216125425153	1
1	846	1934.25867959131	0
1	854	1985.692923559129	0
1	855	1990.470474553489	0
1	877	2035.12845233487	0
1	878	2036.691640894453	0
1	882	2037.706644485021	0
1	884	2043.472956852933	1
1	885	2045.9661383285	1
1	886	2049.497436974346	0
1	895	2086.337690370672	0
1	896	2091.39671880187	0
1	899	2097.545413534898	0
1	900	2099.543978055574	0
1	902	2099.566104157284	0
1	903	2101.122018289858	0
1	908	2115.320149594233	0
1	909	2115.967612004575	0
1	919	2145.854161296251	0
1	920	2148.289337324151	0
1	928	2165.681529415681	0
1	931	2172.524709664917	0
1	937	2187.109250616897	0
1	938	2189.224528382261	0
1	976	2221.454825515369	0
1	977	2227.6006675993	0
1	1003	2264.236815591852	0
1	1004	2265.354594683613	0
1	1007	2271.874558676346	0
1	1008	2276.261173550485	0
1	1014	2293.078236472355	0
1	1015	2294.58532892915	0
1	1037	2336.495621840945	0
1	1041	2337.348088405461	1
1	1046	2344.666750802482	1
1	1049	2350.251187617824	0
1	1053	2352.254707627457	0
1	1054	2353.273491477302	0
1	1064	2372.17973835098	0
1	1065	2381.611159023995	0
1	1076	2414.535637886846	0
1	1079	2415.853063542039	0
1	1094	2439.36645112858	0
1	1095	2440.499543198061	0
1	1097	2440.572633583659	0
1	1098	2440.688697488087	0
1	1107	2452.701691149425	0
1	1109	2455.773500652442	1
1	1110	2460.074774641072	1
1	1111	2475.936338943258	0
1	1115	2478.047714483756	0
1	1118	2486.93993547745	0
1	1123	2490.461691942782	0
2	163	354.220807892071	3
2	167	358.816678104859	4
2	174	362.918884947423	5
2	189	382.502447573653	3
2	192	386.691966251989	3
2	195	391.480322332022	3
2	198	402.91178608321	3
2	200	403.909484036199	4
2	206	412.173305584134	1
2	209	416.102112529242	1
2	212	421.769602253501	1
2	215	427.13295448405	1
2	221	433.849908919438	1
2	224	447.408489393891	1
2	230	481.918541865505	1
2	236	492.645323064696	1
2	239	498.41728786812	1
2	241	500.665197321305	2
2	248	513.078115747372	1
2	254	529.606159204226	1
2	257	547.383719825004	1
2	260	562.820335773616	1
2	264	571.42461516205	2
2	266	576.44888564805	3
2	272	599.143554045033	1
2	275	606.28963701956	1
2	283	634.448028384357	1
2	291	650.35220467007	2
2	296	665.766420488575	3
2	301	671.661096219755	4
2	307	680.844601077482	2
2	313	694.4339970116	1
2	316	700.985969889335	2
2	318	701.806198171285	3
2	322	713.958362007736	2
2	326	720.645742409063	1
2	329	729.832992657518	1
2	332	735.531473481411	1
2	335	776.789953050879	1
2	338	779.614350689329	1
2	341	785.140662753362	1
2	344	804.919677685226	1
2	348	813.104810438763	2
2	350	813.307067739144	3
2	352	818.30858984354	4
2	356	824.302002192307	4
2	363	836.864931136729	4
2	365	837.350773138421	5
2	368	843.326417154544	6
2	372	850.212541818324	6
2	384	862.256259261925	2
2	389	881.830197929819	1
2	398	893.854051650568	1
2	401	897.930962325278	1
2	409	910.066976022594	1
2	413	933.253107534893	1
2	416	941.657077362681	1
2	419	942.968278161708	1
2	422	946.440734773634	1
2	425	948.153764576261	1
2	428	965.521339741348	1
2	431	981.004076053121	1
2	437	1004.449375652978	1
2	443	1015.38380414706	1
2	449	1024.553756365915	1
2	454	1037.290707556304	1
2	458	1049.858783622759	1
2	464	1057.607896085531	1
2	466	1061.401959982533	2
2	472	1067.787554912875	1
2	474	1068.252939213793	2
2	485	1091.347777855667	1
2	488	1096.268931160359	1
2	491	1100.961170677705	1
2	493	1104.564690809039	2
2	499	1112.067930347438	2
2	503	1119.099637767066	1
2	506	1130.957477577577	1
2	509	1138.78013148916	1
2	514	1144.323871654139	1
2	516	1148.450157988024	2
2	520	1158.627211880175	2
2	524	1159.331674425107	3
2	526	1168.353695857964	4
2	536	1188.190898806865	1
2	539	1194.247409209763	1
2	549	1215.289413414158	2
2	554	1240.032217313543	1
2	556	1240.082505664293	2
2	560	1253.710917304745	1
2	562	1257.293697563909	2
2	566	1283.813109435883	1
2	569	1291.389407764327	1
2	575	1313.569823988025	1
2	587	1346.167197587479	1
2	589	1350.028723703293	2
2	593	1351.512135146458	1
2	599	1363.224814850181	1
2	602	1377.772949826415	1
2	605	1378.379669330629	1
2	608	1391.432326235966	1
2	611	1393.686084915507	1
2	614	1405.629567179376	1
2	617	1418.469175043072	1
2	621	1425.893199456538	2
2	626	1439.836864833386	1
2	628	1444.7624137905	2
2	630	1448.263396076285	3
2	638	1465.369118310634	1
2	641	1497.176956300586	1
2	643	1497.962016172964	2
2	645	1498.005744378918	3
2	650	1508.777151633738	1
2	653	1513.081014510385	1
2	656	1519.02434727888	1
2	659	1521.224361848015	1
2	661	1521.4211177398	2
2	663	1527.176332775919	3
2	669	1542.095215944384	2
2	677	1568.633061524487	1
2	687	1586.257204412821	1
2	689	1589.545655119811	2
2	698	1603.92385839718	1
2	701	1609.50799170604	1
2	710	1625.662992635075	1
2	715	1631.920961920185	1
2	719	1635.677345328082	1
2	729	1654.996103444303	1
2	736	1663.090675980942	2
2	749	1704.68708707631	1
2	752	1709.770363652536	1
2	754	1716.266022827696	2
2	758	1720.94382496743	1
2	765	1728.637724047396	2
2	767	1731.636747604201	3
2	773	1746.878738555797	1
2	778	1767.685687162037	1
2	780	1784.550241260931	2
2	782	1784.841039858382	3
2	784	1786.41524331182	4
2	787	1789.616137908949	5
2	791	1793.820346761653	4
2	796	1800.426775317516	2
2	800	1812.321555644909	1
2	808	1840.504910789092	1
2	810	1842.590162227535	2
2	813	1847.99445252932	3
2	817	1854.07194290293	2
2	825	1858.808527574329	2
2	835	1894.016135839259	1
2	839	1915.429774557667	1
2	848	1967.183320475023	1
2	851	1979.625919561273	1
2	857	1993.509219006814	1
2	859	1999.044872113969	2
2	863	2006.225192601021	1
2	866	2011.405938186384	1
2	869	2018.637309074694	1
2	872	2030.325865854542	1
2	874	2031.042674949367	2
2	880	2037.599694128195	2
2	890	2073.067371242433	1
2	893	2078.372861477825	1
2	905	2109.343958797616	1
2	911	2123.437687074001	1
2	914	2138.579705603058	1
2	917	2143.511469465731	1
2	923	2162.382812115029	1
2	925	2163.089283698397	2
2	930	2168.186973905235	2
2	933	2173.869921520784	3
2	941	2189.811664414536	1
2	944	2196.082281053651	1
2	946	2196.260568128432	2
2	948	2197.06684740145	3
2	951	2198.899392425671	3
2	956	2203.672221669975	1
2	959	2205.91081637071	1
2	962	2209.528222924243	1
2	965	2212.282576392703	1
2	967	2215.738187667887	2
2	969	2216.540206352545	3
2	972	2219.790560216916	3
2	980	2232.952055811601	1
2	982	2233.289927255512	2
2	986	2234.378659968128	1
2	988	2246.891927868613	2
2	991	2252.24765871453	2
2	993	2256.212029238043	3
2	996	2258.711853867551	3
2	1001	2263.520418659047	1
2	1010	2291.641604036185	1
2	1012	2292.288336125078	2
2	1019	2299.337709247451	1
2	1022	2301.157408505392	1
2	1025	2310.542912566416	1
2	1027	2316.096112479992	2
2	1031	2324.857901397619	1
2	1034	2329.828241345159	1
2	1039	2336.636636448296	1
2	1043	2342.58296503385	2
2	1045	2344.407946736265	3
2	1048	2347.851559815224	4
2	1058	2363.887143678592	1
2	1061	2368.453322025333	1
2	1067	2384.92887531202	1
2	1070	2392.242113020186	1
2	1073	2402.905379266026	1
2	1078	2414.704580193717	1
2	1081	2416.079366247579	2
2	1083	2418.726709731	3
2	1086	2427.294030763727	3
2	1091	2438.424958185678	1
2	1100	2441.73512436978	1
2	1103	2445.627055548079	1
2	1105	2448.642151641041	2
2	1117	2479.805499485109	1
2	1121	2489.270064040171	1
2	1125	2494.009934103584	2
3	163	354.220807892071	2
3	167	358.816678104859	3
3	174	362.918884947423	4
3	176	368.705379112749	4
3	177	370.274106214716	3
3	187	381.990767024814	2
3	189	382.502447573653	2
3	190	384.049719488362	2
3	192	386.691966251989	2
3	193	388.524850432286	2
3	195	391.480322332022	2
3	196	391.694556370163	2
3	198	402.91178608321	2
3	200	403.909484036199	3
3	201	404.118536738242	3
3	202	406.634783801874	2
3	203	409.482110989489	1
3	204	411.98983191893	0
3	206	412.173305584134	0
3	207	416.029913922083	0
3	209	416.102112529242	0
3	210	418.331363696233	0
3	212	421.769602253501	0
3	213	422.20173135926	0
3	215	427.13295448405	0
3	219	430.546470642753	0
3	221	433.849908919438	0
3	222	435.574400953083	0
3	224	447.408489393891	0
3	225	447.820171029931	0
3	230	481.918541865505	0
3	234	489.73510683867	0
3	236	492.645323064696	0
3	237	493.274989506011	0
3	239	498.41728786812	0
3	241	500.665197321305	1
3	242	502.332707670279	1
3	243	504.078532155337	0
3	248	513.078115747372	0
3	252	524.399520627735	0
3	254	529.606159204226	0
3	255	535.548405348558	0
3	257	547.383719825004	0
3	258	549.957984131708	0
3	260	562.820335773616	0
3	264	571.42461516205	1
3	266	576.44888564805	2
3	268	581.081680165421	2
3	269	586.887659908613	1
3	270	587.667586211823	0
3	272	599.143554045033	0
3	273	604.176248146617	0
3	275	606.28963701956	0
3	276	608.173293608823	0
3	283	634.448028384357	0
3	291	650.35220467007	1
3	296	665.766420488575	2
3	301	671.661096219755	3
3	303	673.494584839296	3
3	304	675.402398756368	2
3	305	680.154381777532	1
3	307	680.844601077482	1
3	308	681.818370000156	1
3	309	685.258286087066	0
3	313	694.4339970116	0
3	316	700.985969889335	1
3	318	701.806198171285	2
3	319	710.827399102489	2
3	320	711.862641154653	1
3	322	713.958362007736	1
3	323	717.106949726142	1
3	324	717.569376163326	0
3	326	720.645742409063	0
3	327	724.30722411671	0
3	329	729.832992657518	0
3	330	730.008963577039	0
3	332	735.531473481411	0
3	333	736.619879248628	0
3	335	776.789953050879	0
3	336	778.786305860534	0
3	338	779.614350689329	0
3	339	780.098735976317	0
3	341	785.140662753362	0
3	342	786.235247579373	0
3	344	804.919677685226	0
3	348	813.104810438763	1
3	350	813.307067739144	2
3	352	818.30858984354	3
3	354	823.518106365624	3
3	356	824.302002192307	3
3	357	827.160868146605	3
3	363	836.864931136729	3
3	365	837.350773138421	4
3	368	843.326417154544	5
3	370	850.135938452934	5
3	372	850.212541818324	5
3	373	850.981902953461	5
3	374	855.265984787638	4
3	375	856.507914484253	3
3	379	860.261700290519	2
3	380	861.196333467974	1
3	384	862.256259261925	1
3	386	868.421776603196	1
3	387	872.12494126294	0
3	389	881.830197929819	0
3	396	892.183578351993	0
3	398	893.854051650568	0
3	399	896.40670528214	0
3	401	897.930962325278	0
3	402	898.725967677229	0
3	409	910.066976022594	0
3	411	917.187334172989	0
3	413	933.253107534893	0
3	414	934.001749558821	0
3	416	941.657077362681	0
3	417	942.03272617259	0
3	419	942.968278161708	0
3	420	943.05457203692	0
3	422	946.440734773634	0
3	423	947.544101027469	0
3	425	948.153764576261	0
3	426	950.208618072795	0
3	428	965.521339741348	0
3	429	972.186242228747	0
3	431	981.004076053121	0
3	432	984.885576839577	0
3	437	1004.449375652978	0
3	441	1011.616426361217	0
3	443	1015.38380414706	0
3	444	1016.671011689797	0
3	449	1024.553756365915	0
3	450	1030.454809212176	0
3	454	1037.290707556304	0
3	456	1038.214552999782	0
3	458	1049.858783622759	0
3	459	1051.332300778608	0
3	464	1057.607896085531	0
3	466	1061.401959982533	1
3	467	1062.736495816988	1
3	468	1065.383556083364	0
3	472	1067.787554912875	0
3	474	1068.252939213793	1
3	482	1085.440629474152	1
3	483	1087.358770460376	0
3	485	1091.347777855667	0
3	486	1091.501858718748	0
3	488	1096.268931160359	0
3	489	1097.340793207421	0
3	491	1100.961170677705	0
3	493	1104.564690809039	1
3	497	1111.769234175785	1
3	499	1112.067930347438	1
3	500	1113.643447717698	1
3	501	1117.232185598283	0
3	503	1119.099637767066	0
3	504	1120.000952850171	0
3	506	1130.957477577577	0
3	507	1131.14444351465	0
3	509	1138.78013148916	0
3	510	1139.294702546681	0
3	514	1144.323871654139	0
3	516	1148.450157988024	1
3	518	1157.081318808689	1
3	520	1158.627211880175	1
3	524	1159.331674425107	2
3	526	1168.353695857964	3
3	531	1180.014821369745	3
3	532	1182.914308324991	2
3	533	1183.438313686278	1
3	534	1185.478181825527	0
3	536	1188.190898806865	0
3	537	1190.677739636615	0
3	539	1194.247409209763	0
3	549	1215.289413414158	1
3	551	1229.138964217197	1
3	552	1230.033780091453	0
3	554	1240.032217313543	0
3	556	1240.082505664293	1
3	557	1240.126386172975	1
3	558	1240.370027853718	0
3	560	1253.710917304745	0
3	562	1257.293697563909	1
3	563	1257.656246389821	1
3	564	1258.376239991566	0
3	566	1283.813109435883	0
3	567	1284.229390536189	0
3	569	1291.389407764327	0
3	570	1297.932193577726	0
3	575	1313.569823988025	0
3	576	1314.911809203051	0
3	587	1346.167197587479	0
3	589	1350.028723703293	1
3	590	1351.280933525629	1
3	591	1351.411972406367	0
3	593	1351.512135146458	0
3	594	1351.718277062022	0
3	599	1363.224814850181	0
3	600	1366.236722331682	0
3	602	1377.772949826415	0
3	603	1378.031707742005	0
3	605	1378.379669330629	0
3	606	1382.280978594316	0
3	608	1391.432326235966	0
3	609	1391.665020139121	0
3	611	1393.686084915507	0
3	612	1397.211996772362	0
3	614	1405.629567179376	0
3	615	1405.917972713833	0
3	617	1418.469175043072	0
3	621	1425.893199456538	1
3	623	1432.901154824441	1
3	624	1438.840922275557	0
3	626	1439.836864833386	0
3	628	1444.7624137905	1
3	630	1448.263396076285	2
3	631	1448.316390166213	2
3	632	1449.682559319894	1
3	636	1457.174610172823	0
3	638	1465.369118310634	0
3	639	1469.089942182364	0
3	641	1497.176956300586	0
3	643	1497.962016172964	1
3	645	1498.005744378918	2
3	646	1500.869620666796	2
3	647	1504.580603003013	1
3	648	1506.953938385975	0
3	650	1508.777151633738	0
3	651	1508.985301758769	0
3	653	1513.081014510385	0
3	654	1516.097942983402	0
3	656	1519.02434727888	0
3	657	1519.920930317153	0
3	659	1521.224361848015	0
3	661	1521.4211177398	1
3	663	1527.176332775919	2
3	664	1528.006115057038	2
3	665	1533.047874965147	1
3	669	1542.095215944384	1
3	671	1543.288038769171	1
3	672	1546.727799805955	0
3	677	1568.633061524487	0
3	678	1571.669873997553	0
3	687	1586.257204412821	0
3	689	1589.545655119811	1
3	695	1598.762538986905	1
3	696	1598.951383061871	0
3	698	1603.92385839718	0
3	699	1606.618227765644	0
3	701	1609.50799170604	0
3	702	1612.971958336601	0
3	710	1625.662992635075	0
3	711	1628.467943158073	0
3	715	1631.920961920185	0
3	717	1634.163172323185	0
3	719	1635.677345328082	0
3	720	1636.242545384578	0
3	729	1654.996103444303	0
3	736	1663.090675980942	1
3	740	1673.706180803743	1
3	741	1676.503993408702	0
3	749	1704.68708707631	0
3	750	1705.399594595802	0
3	752	1709.770363652536	0
3	754	1716.266022827696	1
3	755	1716.525188840729	1
3	756	1720.150594267195	0
3	758	1720.94382496743	0
3	765	1728.637724047396	1
3	767	1731.636747604201	2
3	769	1734.507158930153	2
3	770	1741.348646358546	1
3	771	1741.727082502696	0
3	773	1746.878738555797	0
3	774	1750.291881409465	0
3	778	1767.685687162037	0
3	780	1784.550241260931	1
3	782	1784.841039858382	2
3	784	1786.41524331182	3
3	787	1789.616137908949	4
3	788	1790.108631438247	4
3	789	1790.752136719338	3
3	791	1793.820346761653	3
3	792	1793.867555742844	3
3	793	1796.201664004392	2
3	794	1797.670072203645	1
3	796	1800.426775317516	1
3	797	1803.903500966342	1
3	798	1804.115420372524	0
3	800	1812.321555644909	0
3	801	1814.905416459127	0
3	808	1840.504910789092	0
3	810	1842.590162227535	1
3	813	1847.99445252932	2
3	814	1850.905086629212	2
3	815	1852.102951889586	1
3	817	1854.07194290293	1
3	818	1855.469656384867	1
3	825	1858.808527574329	1
3	827	1869.707827137274	1
3	828	1870.195282322058	0
3	835	1894.016135839259	0
3	837	1897.500444522886	0
3	839	1915.429774557667	0
3	840	1918.560211257258	0
3	848	1967.183320475023	0
3	849	1970.516862403719	0
3	851	1979.625919561273	0
3	852	1983.352286900274	0
3	857	1993.509219006814	0
3	859	1999.044872113969	1
3	860	1999.590055984067	1
3	861	2001.136867723153	0
3	863	2006.225192601021	0
3	864	2008.188848275648	0
3	866	2011.405938186384	0
3	867	2013.031732262116	0
3	869	2018.637309074694	0
3	870	2019.975280194411	0
3	872	2030.325865854542	0
3	874	2031.042674949367	1
3	875	2031.722122489175	1
3	880	2037.599694128195	1
3	887	2051.067565043334	1
3	888	2055.56974881926	0
3	890	2073.067371242433	0
3	891	2076.886576734478	0
3	893	2078.372861477825	0
3	897	2093.638678299136	0
3	905	2109.343958797616	0
3	906	2110.418866299603	0
3	911	2123.437687074001	0
3	912	2130.095029756985	0
3	914	2138.579705603058	0
3	915	2139.512075813528	0
3	917	2143.511469465731	0
3	921	2155.37893966311	0
3	923	2162.382812115029	0
3	925	2163.089283698397	1
3	926	2165.083364905917	1
3	930	2168.186973905235	1
3	933	2173.869921520784	2
3	934	2181.947414360908	2
3	935	2182.858017644616	1
3	939	2189.341651418576	0
3	941	2189.811664414536	0
3	942	2192.381303589566	0
3	944	2196.082281053651	0
3	946	2196.260568128432	1
3	948	2197.06684740145	2
3	949	2197.239165855768	2
3	951	2198.899392425671	2
3	952	2199.553764029175	2
3	953	2200.885502586844	1
3	954	2202.279060764658	0
3	956	2203.672221669975	0
3	957	2204.096521111403	0
3	959	2205.91081637071	0
3	960	2206.82696318344	0
3	962	2209.528222924243	0
3	963	2210.809815565745	0
3	965	2212.282576392703	0
3	967	2215.738187667887	1
3	969	2216.540206352545	2
3	970	2219.434759965024	2
3	972	2219.790560216916	2
3	973	2219.939239127264	2
3	974	2221.20625845245	1
3	978	2228.064315095831	0
3	980	2232.952055811601	0
3	982	2233.289927255512	1
3	983	2233.60955375094	1
3	984	2233.870287179186	0
3	986	2234.378659968128	0
3	988	2246.891927868613	1
3	989	2248.281808491385	1
3	991	2252.24765871453	1
3	993	2256.212029238043	2
3	994	2256.425154289067	2
3	996	2258.711853867551	2
3	997	2258.786131670297	2
3	998	2260.111604622275	1
3	999	2262.727235786144	0
3	1001	2263.520418659047	0
3	1005	2269.462300300865	0
3	1010	2291.641604036185	0
3	1012	2292.288336125078	1
3	1016	2297.664503273205	1
3	1017	2299.014650047674	0
3	1019	2299.337709247451	0
3	1020	2299.73884759989	0
3	1022	2301.157408505392	0
3	1023	2303.644811023231	0
3	1025	2310.542912566416	0
3	1027	2316.096112479992	1
3	1028	2316.568287059643	1
3	1029	2318.389888727785	0
3	1031	2324.857901397619	0
3	1032	2328.096019923145	0
3	1034	2329.828241345159	0
3	1035	2336.312040478739	0
3	1039	2336.636636448296	0
3	1043	2342.58296503385	1
3	1045	2344.407946736265	2
3	1048	2347.851559815224	3
3	1050	2350.407626967854	3
3	1051	2350.537138989911	2
3	1055	2355.506347639075	1
3	1056	2357.799813865504	0
3	1058	2363.887143678592	0
3	1059	2366.524404376919	0
3	1061	2368.453322025333	0
3	1062	2371.105754706454	0
3	1067	2384.92887531202	0
3	1068	2385.20354790712	0
3	1070	2392.242113020186	0
3	1071	2395.530637021929	0
3	1073	2402.905379266026	0
3	1074	2403.479108764478	0
3	1078	2414.704580193717	0
3	1081	2416.079366247579	1
3	1083	2418.726709731	2
3	1084	2421.325822686733	2
3	1086	2427.294030763727	2
3	1087	2432.841001920885	2
3	1088	2435.170226825125	1
3	1089	2436.43139344294	0
3	1091	2438.424958185678	0
3	1092	2438.909985360814	0
3	1100	2441.73512436978	0
3	1101	2444.411150918292	0
3	1103	2445.627055548079	0
3	1105	2448.642151641041	1
3	1112	2476.199326155062	1
3	1113	2477.69860639017	0
3	1117	2479.805499485109	0
3	1119	2487.132778165787	0
3	1121	2489.270064040171	0
3	1125	2494.009934103584	1
4	164	354.914696827784	19
4	165	356.768685712741	20
4	170	361.08251118407	21
4	175	364.61598600882	22
4	182	379.382821872422	23
4	185	381.844583472589	24
4	186	381.890488299405	25
4	218	429.680704517624	26
4	228	463.032623391974	27
4	233	485.365034196959	28
4	246	512.757605452187	29
4	251	517.223630203244	30
4	267	577.011987502229	31
4	279	627.295323084533	32
4	292	655.543216955836	33
4	293	656.61949924454	34
4	294	660.05278986633	35
4	299	670.866815798623	36
4	302	673.038600162842	37
4	314	700.307313298062	38
4	353	819.401148806733	39
4	366	841.526144448517	40
4	369	844.0543544464	41
4	378	859.255624063701	42
4	385	867.100426217674	43
4	394	887.860579145612	44
4	395	887.963906050081	45
4	405	905.168145102293	46
4	410	915.737439403631	47
4	435	992.900990288895	48
4	440	1010.810886613296	49
4	447	1022.313935168628	50
4	455	1037.337792541498	51
4	462	1054.794373467972	52
4	477	1073.372465941488	53
4	478	1074.634907881995	54
4	481	1080.552059024792	55
4	496	1108.45954378507	56
4	517	1155.57724136344	57
4	527	1171.712622426318	58
4	530	1177.215138799157	59
4	544	1199.727819612329	60
4	547	1206.224225360237	61
4	550	1223.082517668966	62
4	573	1308.860781643485	63
4	581	1321.589172570606	64
4	582	1323.748686078	65
4	585	1328.197548757119	66
4	597	1352.271736011446	67
4	622	1428.779472507881	68
4	635	1455.879833392249	69
4	670	1543.146660104918	70
4	675	1553.617735913285	71
4	681	1575.503319128995	72
4	690	1593.301890480574	73
4	693	1596.588142025787	74
4	694	1598.049250045218	75
4	705	1615.644741197476	76
4	708	1620.50293573633	77
4	716	1632.214850704077	78
4	727	1653.688949124811	79
4	732	1656.983185944331	80
4	737	1664.481965152963	81
4	738	1667.174343164405	82
4	739	1669.982884485388	83
4	744	1690.843649322491	84
4	747	1704.154720634569	85
4	763	1726.400643545413	86
4	768	1732.550511054178	87
4	785	1788.113075240467	88
4	804	1826.504885808514	89
4	811	1846.026358471391	90
4	823	1858.619889068241	91
4	826	1868.467941276466	92
4	833	1892.802368312018	93
4	836	1896.916488497369	94
4	845	1932.216125425153	95
4	846	1934.25867959131	96
4	855	1990.470474553489	97
4	878	2036.691640894453	98
4	885	2045.9661383285	99
4	886	2049.497436974346	100
4	896	2091.39671880187	101
4	900	2099.543978055574	102
4	903	2101.122018289858	103
4	909	2115.967612004575	104
4	920	2148.289337324151	105
4	931	2172.524709664917	106
4	938	2189.224528382261	107
4	977	2227.6006675993	108
4	1004	2265.354594683613	109
4	1008	2276.261173550485	110
4	1015	2294.58532892915	111
4	1046	2344.666750802482	112
4	1049	2350.251187617824	113
4	1054	2353.273491477302	114
4	1065	2381.611159023995	115
4	1079	2415.853063542039	116
4	1095	2440.499543198061	117
4	1098	2440.688697488087	118
4	1110	2460.074774641072	119
4	1111	2475.936338943258	120
4	1118	2486.93993547745	121
5	164	354.914696827784	12.457870642875
5	165	356.768685712741	5.887372540444
5	170	361.08251118407	0.263991649021
5	175	364.61598600882	3.084342700265
5	182	379.382821872422	7.474222886551
5	185	381.844583472589	4.913565321122
5	186	381.890488299405	0.754158232288
5	218	429.680704517624	0.607248208029
5	228	463.032623391974	4.815760334285
5	233	485.365034196959	0.325650813494
5	246	512.757605452187	8.538268138522
5	251	517.223630203244	3.802334406354
5	267	577.011987502229	11.442707052712
5	279	627.295323084533	0.823291955352
5	292	655.543216955836	21.206658487783
5	293	656.61949924454	18.426756941261
5	294	660.05278986633	16.022112598566
5	299	670.866815798623	26.721852590477
5	302	673.038600162842	3.41875173684
5	314	700.307313298062	6.897644321658
5	353	819.401148806733	10.090226888748
5	366	841.526144448517	14.145186092552
5	369	844.0543544464	9.31367489734
5	378	859.255624063701	1.089029277978
5	385	867.100426217674	5.159310715628
5	394	887.860579145612	4.20469372386
5	395	887.963906050081	0.451258824206
5	405	905.168145102293	1.262592565679
5	410	915.737439403631	8.253501729485
5	435	992.900990288895	2.487535286372
5	440	1010.810886613296	2.807203689858
5	447	1022.313935168628	1.895985461246
5	455	1037.337792541498	4.088413242684
5	462	1054.794373467972	1.324166760156
5	477	1073.372465941488	7.550481408012
5	478	1074.634907881995	2.0199474263
5	481	1080.552059024792	2.575483034845
5	496	1108.45954378507	3.600884769879
5	517	1155.57724136344	11.929557312225
5	527	1171.712622426318	12.477481381337
5	530	1177.215138799157	5.248676533924
5	544	1199.727819612329	3.040960918425
5	547	1206.224225360237	8.414773851128
5	550	1223.082517668966	21.767640652125
5	573	1308.860781643485	7.560672180796
5	581	1321.589172570606	4.891830616185
5	582	1323.748686078	2.699255950684
5	585	1328.197548757119	0.957470452838
5	597	1352.271736011446	0.09927872076
5	622	1428.779472507881	9.01864868316
5	635	1455.879833392249	2.220187000299
5	670	1543.146660104918	4.072893337384
5	675	1553.617735913285	1.806466914388
5	681	1575.503319128995	0.82326713192
5	690	1593.301890480574	12.570358931126
5	693	1596.588142025787	12.801390227213
5	694	1598.049250045218	2.644007456467
5	705	1615.644741197476	1.220423957677
5	708	1620.50293573633	1.379787197942
5	716	1632.214850704077	3.368806527885
5	727	1653.688949124811	12.035460199292
5	732	1656.983185944331	10.754536759836
5	737	1664.481965152963	12.990071664031
5	738	1667.174343164405	10.730457335404
5	739	1669.982884485388	10.023888767198
5	744	1690.843649322491	4.324779618275
5	747	1704.154720634569	12.741811767791
5	763	1726.400643545413	3.573043271375
5	768	1732.550511054178	6.218800620832
5	785	1788.113075240467	20.720487018477
5	804	1826.504885808514	0.372375525182
5	811	1846.026358471391	8.793657806118
5	823	1858.619889068241	1.943638104214
5	826	1868.467941276466	11.087947955706
5	833	1892.802368312018	9.325509114762
5	836	1896.916488497369	11.51334896456
5	845	1932.216125425153	5.048791135481
5	846	1934.25867959131	5.400141745737
5	855	1990.470474553489	4.77755099436
5	878	2036.691640894453	1.563188559583
5	885	2045.9661383285	8.259493843479
5	886	2049.497436974346	6.024480121413
5	896	2091.39671880187	5.059028431198
5	900	2099.543978055574	1.998564520676
5	903	2101.122018289858	1.555914132574
5	909	2115.967612004575	0.647462410342
5	920	2148.289337324151	2.4351760279
5	931	2172.524709664917	6.843180249236
5	938	2189.224528382261	2.115277765364
5	977	2227.6006675993	6.145842083931
5	1004	2265.354594683613	1.117779091761
5	1008	2276.261173550485	4.386614874139
5	1015	2294.58532892915	1.507092456795
5	1046	2344.666750802482	8.171128961537
5	1049	2350.251187617824	12.903099212363
5	1054	2353.273491477302	1.018783849845
5	1065	2381.611159023995	9.431420673015
5	1079	2415.853063542039	1.317425655193
5	1095	2440.499543198061	1.133092069481
5	1098	2440.688697488087	0.116063904428
5	1110	2460.074774641072	7.373083491647
5	1111	2475.936338943258	20.162838290816
5	1118	2486.93993547745	8.892220993694
6	164	354.914696827784	4.033383655487
6	169	360.818519535049	0
6	172	361.531643308555	0
6	179	371.908598985871	0
6	182	379.382821872422	2.451803720955
6	185	381.844583472589	0.708253405472
6	217	429.073456309595	0
6	227	458.216863057689	0
6	232	485.039383383465	0
6	245	504.219337313665	0
6	250	513.42129579689	0
6	262	565.569280449517	0
6	278	626.472031129181	0
6	281	634.336558468053	0
6	292	655.543216955836	17.350474652557
6	293	656.61949924454	12.588821976776
6	294	660.05278986633	15.907826658184
6	299	670.866815798623	1.246967372621
6	311	693.409668976404	0
6	346	809.310921917985	0
6	359	827.380958355965	0
6	366	841.526144448517	6.785464899457
6	377	858.166594785723	0
6	382	861.941115502046	0
6	391	883.655885421752	0
6	394	887.860579145612	0.347931919737
6	404	903.905552536614	0
6	407	907.483937674146	0
6	434	990.413455002523	0
6	439	1008.003682923438	0
6	446	1020.417949707382	0
6	452	1033.249379298814	0
6	461	1053.470206707816	0
6	470	1065.821984533476	0
6	477	1073.372465941488	0.757505485793
6	480	1077.976575989947	0
6	495	1104.858659015191	0
6	512	1143.647684051215	0
6	522	1159.235141044981	0
6	529	1171.966462265233	0
6	541	1196.686858693904	0
6	544	1199.727819612329	1.91836810322
6	547	1206.224225360237	4.909348343396
6	572	1301.300109462689	0
6	578	1316.697341954421	0
6	581	1321.589172570606	0.53974244329
6	584	1327.240078304281	0
6	596	1352.172457290686	0
6	619	1419.760823824721	0
6	634	1453.65964639195	0
6	667	1539.073766767534	0
6	674	1551.811268998897	0
6	680	1574.680051997075	0
6	683	1580.731531549448	0
6	690	1593.301890480574	9.515138682
6	693	1596.588142025787	1.182899437036
6	704	1614.424317239799	0
6	707	1619.123148538388	0
6	713	1628.846044176192	0
6	722	1641.653488925519	0
6	727	1653.688949124811	7.460299940316
6	732	1656.983185944331	5.491292455399
6	737	1664.481965152963	8.038079323962
6	738	1667.174343164405	7.215347446215
6	743	1686.518869704216	0
6	746	1691.412908866778	0
6	760	1722.827600274038	0
6	763	1726.400643545413	0.068933112067
6	776	1767.39258822199	0
6	803	1826.132510283332	0
6	806	1837.232700665273	0
6	820	1856.676250964027	0
6	823	1858.619889068241	1.239895747481
6	830	1883.476859197256	0
6	833	1892.802368312018	7.399228779209
6	842	1927.167334289672	0
6	845	1932.216125425153	3.35758757958
6	854	1985.692923559129	0
6	877	2035.12845233487	0
6	882	2037.706644485021	0
6	885	2045.9661383285	2.493181475567
6	895	2086.337690370672	0
6	899	2097.545413534898	0
6	902	2099.566104157284	0
6	908	2115.320149594233	0
6	919	2145.854161296251	0
6	928	2165.681529415681	0
6	937	2187.109250616897	0
6	976	2221.454825515369	0
6	1003	2264.236815591852	0
6	1007	2271.874558676346	0
6	1014	2293.078236472355	0
6	1037	2336.495621840945	0
6	1046	2344.666750802482	7.318662397021
6	1053	2352.254707627457	0
6	1064	2372.17973835098	0
6	1076	2414.535637886846	0
6	1094	2439.36645112858	0
6	1097	2440.572633583659	0
6	1107	2452.701691149425	0
6	1110	2460.074774641072	4.30127398863
6	1115	2478.047714483756	0
6	1123	2490.461691942782	0
7	165	356.768685712741	14.913973035742
7	170	361.08251118407	13.071823318177
7	175	364.61598600882	10.395178116749
7	176	368.705379112749	9.88870100789
7	177	370.274106214716	9.455586679667
7	186	381.890488299405	20.35884499085
7	187	381.990767024814	19.071882077391
7	190	384.049719488362	12.141120502491
7	193	388.524850432286	6.022402858633
7	196	391.694556370163	5.002590118174
7	201	404.118536738242	12.63821440622
7	202	406.634783801874	3.722997718664
7	203	409.482110989489	5.57262695329
7	206	412.173305584134	0
7	209	416.102112529242	0
7	212	421.769602253501	0
7	215	427.13295448405	0
7	218	429.680704517624	0.607248208029
7	221	433.849908919438	0
7	224	447.408489393891	0
7	230	481.918541865505	0
7	233	485.365034196959	0.325650813494
7	236	492.645323064696	0
7	239	498.41728786812	0
7	242	502.332707670279	1.667510348974
7	248	513.078115747372	0
7	251	517.223630203244	3.802334406354
7	254	529.606159204226	0
7	257	547.383719825004	0
7	260	562.820335773616	0
7	267	577.011987502229	11.442707052712
7	268	581.081680165421	9.657065003371
7	269	586.887659908613	10.438774260563
7	272	599.143554045033	0
7	275	606.28963701956	0
7	302	673.038600162842	38.590571778485
7	303	673.494584839296	23.142380169226
7	304	675.402398756368	9.635978267793
7	305	680.154381777532	8.493285557777
7	308	681.818370000156	0.973768922674
7	314	700.307313298062	5.873316286462
7	319	710.827399102489	9.841429213154
7	320	711.862641154653	10.056442983368
7	323	717.106949726142	3.148587718406
7	326	720.645742409063	0
7	329	729.832992657518	0
7	332	735.531473481411	0
7	335	776.789953050879	0
7	338	779.614350689329	0
7	341	785.140662753362	0
7	344	804.919677685226	0
7	353	819.401148806733	10.090226888748
7	354	823.518106365624	10.413295926861
7	357	827.160868146605	13.853800407461
7	369	844.0543544464	25.74576460286
7	370	850.135938452934	25.833936260627
7	373	850.981902953461	23.600944597496
7	374	855.265984787638	18.401053650909
7	375	856.507914484253	19.157141345832
7	378	859.255624063701	15.929206909157
7	379	860.261700290519	10.049158472195
7	380	861.196333467974	3.029738682251
7	385	867.100426217674	5.159310715628
7	386	868.421776603196	6.165517341271
7	389	881.830197929819	0
7	395	887.963906050081	4.308020628329
7	398	893.854051650568	0
7	401	897.930962325278	0
7	410	915.737439403631	5.670463381037
7	413	933.253107534893	0
7	416	941.657077362681	0
7	419	942.968278161708	0
7	422	946.440734773634	0
7	425	948.153764576261	0
7	428	965.521339741348	0
7	431	981.004076053121	0
7	437	1004.449375652978	0
7	440	1010.810886613296	2.807203689858
7	443	1015.38380414706	0
7	449	1024.553756365915	0
7	455	1037.337792541498	0.047084985194
7	458	1049.858783622759	0
7	464	1057.607896085531	0
7	467	1062.736495816988	1.334535834455
7	478	1074.634907881995	6.84735296912
7	481	1080.552059024792	12.299119810999
7	482	1085.440629474152	7.464053484205
7	485	1091.347777855667	0
7	488	1096.268931160359	0
7	491	1100.961170677705	0
7	496	1108.45954378507	3.894852976031
7	497	1111.769234175785	6.910575160594
7	500	1113.643447717698	1.57551737026
7	503	1119.099637767066	0
7	506	1130.957477577577	0
7	509	1138.78013148916	0
7	517	1155.57724136344	11.253369709301
7	518	1157.081318808689	8.631160820665
7	527	1171.712622426318	13.085410546143
7	530	1177.215138799157	17.979997754176
7	531	1180.014821369745	20.683146944638
7	532	1182.914308324991	14.560612467027
7	533	1183.438313686278	11.471851421045
7	536	1188.190898806865	0
7	539	1194.247409209763	0
7	550	1223.082517668966	26.395658975062
7	551	1229.138964217197	13.849550803039
7	554	1240.032217313543	0
7	557	1240.126386172975	0.043880508682
7	560	1253.710917304745	0
7	563	1257.656246389821	0.362548825912
7	566	1283.813109435883	0
7	569	1291.389407764327	0
7	575	1313.569823988025	0
7	587	1346.167197587479	0
7	590	1351.280933525629	1.252209822336
7	593	1351.512135146458	0
7	599	1363.224814850181	0
7	602	1377.772949826415	0
7	605	1378.379669330629	0
7	608	1391.432326235966	0
7	611	1393.686084915507	0
7	614	1405.629567179376	0
7	617	1418.469175043072	0
7	622	1428.779472507881	9.01864868316
7	623	1432.901154824441	7.007955367903
7	626	1439.836864833386	0
7	631	1448.316390166213	3.553976375713
7	632	1449.682559319894	1.419163243609
7	635	1455.879833392249	2.220187000299
7	638	1465.369118310634	0
7	641	1497.176956300586	0
7	646	1500.869620666796	2.907604493832
7	647	1504.580603003013	6.574858624095
7	650	1508.777151633738	0
7	653	1513.081014510385	0
7	656	1519.02434727888	0
7	659	1521.224361848015	0
7	664	1528.006115057038	6.584997317238
7	665	1533.047874965147	5.871542189228
7	670	1543.146660104918	4.072893337384
7	671	1543.288038769171	1.192822824787
7	677	1568.633061524487	0
7	694	1598.049250045218	11.792045632397
7	695	1598.762538986905	9.216883867094
7	698	1603.92385839718	0
7	701	1609.50799170604	0
7	710	1625.662992635075	0
7	716	1632.214850704077	0.293888783892
7	719	1635.677345328082	0
7	739	1669.982884485388	14.986781041085
7	740	1673.706180803743	10.615504822801
7	749	1704.68708707631	0
7	752	1709.770363652536	0
7	755	1716.525188840729	0.259166013033
7	758	1720.94382496743	0
7	768	1732.550511054178	9.72291078014
7	769	1734.507158930153	5.869434882757
7	770	1741.348646358546	9.711898754345
7	773	1746.878738555797	0
7	785	1788.113075240467	20.42738807843
7	788	1790.108631438247	5.558390177316
7	789	1790.752136719338	5.911096860956
7	792	1793.867555742844	7.452312431024
7	793	1796.201664004392	6.585526095443
7	794	1797.670072203645	3.849725441992
7	797	1803.903500966342	3.476725648826
7	800	1812.321555644909	0
7	811	1846.026358471391	5.521447682299
7	814	1850.905086629212	8.314924401677
7	815	1852.102951889586	4.108499360266
7	818	1855.469656384867	1.397713481937
7	826	1868.467941276466	11.791690312439
7	827	1869.707827137274	10.899299562945
7	836	1896.916488497369	2.90035265811
7	839	1915.429774557667	0
7	848	1967.183320475023	0
7	851	1979.625919561273	0
7	857	1993.509219006814	0
7	860	1999.590055984067	0.545183870098
7	863	2006.225192601021	0
7	866	2011.405938186384	0
7	869	2018.637309074694	0
7	872	2030.325865854542	0
7	875	2031.722122489175	0.679447539808
7	878	2036.691640894453	1.563188559583
7	886	2049.497436974346	11.897742846151
7	887	2051.067565043334	13.360920558313
7	890	2073.067371242433	0
7	893	2078.372861477825	0
7	896	2091.39671880187	5.059028431198
7	905	2109.343958797616	0
7	911	2123.437687074001	0
7	914	2138.579705603058	0
7	917	2143.511469465731	0
7	920	2148.289337324151	2.4351760279
7	923	2162.382812115029	0
7	926	2165.083364905917	1.99408120752
7	931	2172.524709664917	6.843180249236
7	934	2181.947414360908	13.760440455673
7	935	2182.858017644616	8.988096123832
7	938	2189.224528382261	2.115277765364
7	941	2189.811664414536	0
7	944	2196.082281053651	0
7	949	2197.239165855768	0.978597727336
7	952	2199.553764029175	2.486916627725
7	953	2200.885502586844	1.986110161173
7	956	2203.672221669975	0
7	959	2205.91081637071	0
7	962	2209.528222924243	0
7	965	2212.282576392703	0
7	970	2219.434759965024	3.696572297137
7	973	2219.939239127264	3.399032774719
7	974	2221.20625845245	1.415698235534
7	977	2227.6006675993	6.145842083931
7	980	2232.952055811601	0
7	983	2233.60955375094	0.319626495428
7	986	2234.378659968128	0
7	989	2248.281808491385	1.389880622772
7	994	2256.425154289067	4.177495574537
7	997	2258.786131670297	2.574102432254
7	998	2260.111604622275	1.399750754724
7	1001	2263.520418659047	0
7	1004	2265.354594683613	1.117779091761
7	1010	2291.641604036185	0
7	1015	2294.58532892915	2.296992804072
7	1016	2297.664503273205	4.58626680085
7	1019	2299.337709247451	0
7	1022	2301.157408505392	0
7	1025	2310.542912566416	0
7	1028	2316.568287059643	0.472174579651
7	1031	2324.857901397619	0
7	1034	2329.828241345159	0
7	1049	2350.251187617824	13.614551169528
7	1050	2350.407626967854	7.824661934004
7	1051	2350.537138989911	6.129192253646
7	1054	2353.273491477302	5.421931662078
7	1055	2355.506347639075	3.251640011618
7	1058	2363.887143678592	0
7	1061	2368.453322025333	0
7	1067	2384.92887531202	0
7	1070	2392.242113020186	0
7	1073	2402.905379266026	0
7	1079	2415.853063542039	1.148483348322
7	1084	2421.325822686733	5.246456439154
7	1087	2432.841001920885	14.114292189885
7	1088	2435.170226825125	7.876196061398
7	1091	2438.424958185678	0
7	1100	2441.73512436978	0
7	1103	2445.627055548079	0
7	1111	2475.936338943258	27.294187302217
7	1112	2476.199326155062	23.497635005637
7	1118	2486.93993547745	7.134435992341
7	1121	2489.270064040171	0
8	169	360.818519535049	5
8	172	361.531643308555	6
8	179	371.908598985871	7
8	217	429.073456309595	8
8	232	485.039383383465	9
8	250	513.42129579689	10
8	262	565.569280449517	11
8	346	809.310921917985	12
8	359	827.380958355965	13
8	377	858.166594785723	14
8	382	861.941115502046	15
8	391	883.655885421752	16
8	439	1008.003682923438	17
8	480	1077.976575989947	18
8	495	1104.858659015191	19
8	522	1159.235141044981	20
8	529	1171.966462265233	21
8	541	1196.686858693904	22
8	619	1419.760823824721	23
8	634	1453.65964639195	24
8	667	1539.073766767534	25
8	760	1722.827600274038	26
8	820	1856.676250964027	27
8	877	2035.12845233487	28
8	882	2037.706644485021	29
8	895	2086.337690370672	30
8	919	2145.854161296251	31
8	928	2165.681529415681	32
8	937	2187.109250616897	33
8	976	2221.454825515369	34
8	1003	2264.236815591852	35
8	1014	2293.078236472355	36
8	1053	2352.254707627457	37
8	1107	2452.701691149425	38
8	1123	2490.461691942782	39
9	176	368.705379112749	34
9	177	370.274106214716	35
9	187	381.990767024814	36
9	190	384.049719488362	37
9	193	388.524850432286	38
9	196	391.694556370163	39
9	201	404.118536738242	40
9	202	406.634783801874	41
9	203	409.482110989489	42
9	204	411.98983191893	43
9	207	416.029913922083	44
9	210	418.331363696233	45
9	213	422.20173135926	46
9	219	430.546470642753	47
9	222	435.574400953083	48
9	225	447.820171029931	49
9	234	489.73510683867	50
9	237	493.274989506011	51
9	242	502.332707670279	52
9	243	504.078532155337	53
9	252	524.399520627735	54
9	255	535.548405348558	55
9	258	549.957984131708	56
9	268	581.081680165421	57
9	269	586.887659908613	58
9	270	587.667586211823	59
9	273	604.176248146617	60
9	276	608.173293608823	61
9	303	673.494584839296	62
9	304	675.402398756368	63
9	305	680.154381777532	64
9	308	681.818370000156	65
9	309	685.258286087066	66
9	319	710.827399102489	67
9	320	711.862641154653	68
9	323	717.106949726142	69
9	324	717.569376163326	70
9	327	724.30722411671	71
9	330	730.008963577039	72
9	333	736.619879248628	73
9	336	778.786305860534	74
9	339	780.098735976317	75
9	342	786.235247579373	76
9	354	823.518106365624	77
9	357	827.160868146605	78
9	370	850.135938452934	79
9	373	850.981902953461	80
9	374	855.265984787638	81
9	375	856.507914484253	82
9	379	860.261700290519	83
9	380	861.196333467974	84
9	386	868.421776603196	85
9	387	872.12494126294	86
9	396	892.183578351993	87
9	399	896.40670528214	88
9	402	898.725967677229	89
9	411	917.187334172989	90
9	414	934.001749558821	91
9	417	942.03272617259	92
9	420	943.05457203692	93
9	423	947.544101027469	94
9	426	950.208618072795	95
9	429	972.186242228747	96
9	432	984.885576839577	97
9	441	1011.616426361217	98
9	444	1016.671011689797	99
9	450	1030.454809212176	100
9	456	1038.214552999782	101
9	459	1051.332300778608	102
9	467	1062.736495816988	103
9	468	1065.383556083364	104
9	482	1085.440629474152	105
9	483	1087.358770460376	106
9	486	1091.501858718748	107
9	489	1097.340793207421	108
9	497	1111.769234175785	109
9	500	1113.643447717698	110
9	501	1117.232185598283	111
9	504	1120.000952850171	112
9	507	1131.14444351465	113
9	510	1139.294702546681	114
9	518	1157.081318808689	115
9	531	1180.014821369745	116
9	532	1182.914308324991	117
9	533	1183.438313686278	118
9	534	1185.478181825527	119
9	537	1190.677739636615	120
9	551	1229.138964217197	121
9	552	1230.033780091453	122
9	557	1240.126386172975	123
9	558	1240.370027853718	124
9	563	1257.656246389821	125
9	564	1258.376239991566	126
9	567	1284.229390536189	127
9	570	1297.932193577726	128
9	576	1314.911809203051	129
9	590	1351.280933525629	130
9	591	1351.411972406367	131
9	594	1351.718277062022	132
9	600	1366.236722331682	133
9	603	1378.031707742005	134
9	606	1382.280978594316	135
9	609	1391.665020139121	136
9	612	1397.211996772362	137
9	615	1405.917972713833	138
9	623	1432.901154824441	139
9	624	1438.840922275557	140
9	631	1448.316390166213	141
9	632	1449.682559319894	142
9	636	1457.174610172823	143
9	639	1469.089942182364	144
9	646	1500.869620666796	145
9	647	1504.580603003013	146
9	648	1506.953938385975	147
9	651	1508.985301758769	148
9	654	1516.097942983402	149
9	657	1519.920930317153	150
9	664	1528.006115057038	151
9	665	1533.047874965147	152
9	671	1543.288038769171	153
9	672	1546.727799805955	154
9	678	1571.669873997553	155
9	695	1598.762538986905	156
9	696	1598.951383061871	157
9	699	1606.618227765644	158
9	702	1612.971958336601	159
9	711	1628.467943158073	160
9	717	1634.163172323185	161
9	720	1636.242545384578	162
9	740	1673.706180803743	163
9	741	1676.503993408702	164
9	750	1705.399594595802	165
9	755	1716.525188840729	166
9	756	1720.150594267195	167
9	769	1734.507158930153	168
9	770	1741.348646358546	169
9	771	1741.727082502696	170
9	774	1750.291881409465	171
9	788	1790.108631438247	172
9	789	1790.752136719338	173
9	792	1793.867555742844	174
9	793	1796.201664004392	175
9	794	1797.670072203645	176
9	797	1803.903500966342	177
9	798	1804.115420372524	178
9	801	1814.905416459127	179
9	814	1850.905086629212	180
9	815	1852.102951889586	181
9	818	1855.469656384867	182
9	827	1869.707827137274	183
9	828	1870.195282322058	184
9	837	1897.500444522886	185
9	840	1918.560211257258	186
9	849	1970.516862403719	187
9	852	1983.352286900274	188
9	860	1999.590055984067	189
9	861	2001.136867723153	190
9	864	2008.188848275648	191
9	867	2013.031732262116	192
9	870	2019.975280194411	193
9	875	2031.722122489175	194
9	887	2051.067565043334	195
9	888	2055.56974881926	196
9	891	2076.886576734478	197
9	897	2093.638678299136	198
9	906	2110.418866299603	199
9	912	2130.095029756985	200
9	915	2139.512075813528	201
9	921	2155.37893966311	202
9	926	2165.083364905917	203
9	934	2181.947414360908	204
9	935	2182.858017644616	205
9	939	2189.341651418576	206
9	942	2192.381303589566	207
9	949	2197.239165855768	208
9	952	2199.553764029175	209
9	953	2200.885502586844	210
9	954	2202.279060764658	211
9	957	2204.096521111403	212
9	960	2206.82696318344	213
9	963	2210.809815565745	214
9	970	2219.434759965024	215
9	973	2219.939239127264	216
9	974	2221.20625845245	217
9	978	2228.064315095831	218
9	983	2233.60955375094	219
9	984	2233.870287179186	220
9	989	2248.281808491385	221
9	994	2256.425154289067	222
9	997	2258.786131670297	223
9	998	2260.111604622275	224
9	999	2262.727235786144	225
9	1005	2269.462300300865	226
9	1016	2297.664503273205	227
9	1017	2299.014650047674	228
9	1020	2299.73884759989	229
9	1023	2303.644811023231	230
9	1028	2316.568287059643	231
9	1029	2318.389888727785	232
9	1032	2328.096019923145	233
9	1035	2336.312040478739	234
9	1050	2350.407626967854	235
9	1051	2350.537138989911	236
9	1055	2355.506347639075	237
9	1056	2357.799813865504	238
9	1059	2366.524404376919	239
9	1062	2371.105754706454	240
9	1068	2385.20354790712	241
9	1071	2395.530637021929	242
9	1074	2403.479108764478	243
9	1084	2421.325822686733	244
9	1087	2432.841001920885	245
9	1088	2435.170226825125	246
9	1089	2436.43139344294	247
9	1092	2438.909985360814	248
9	1101	2444.411150918292	249
9	1112	2476.199326155062	250
9	1113	2477.69860639017	251
9	1119	2487.132778165787	252
10	176	368.705379112749	14.484571220678
10	177	370.274106214716	11.457428109857
10	187	381.990767024814	20.459123716259
10	190	384.049719488362	21.130834540939
10	193	388.524850432286	16.616251446415
10	196	391.694556370163	9.19210879651
10	201	404.118536738242	17.426570486253
10	202	406.634783801874	15.154461469852
10	203	409.482110989489	6.570324906279
10	204	411.98983191893	8.080347882731
10	207	416.029913922083	3.856608337949
10	210	418.331363696233	2.229251166991
10	213	422.20173135926	0.432129105759
10	219	430.546470642753	1.473014333158
10	222	435.574400953083	1.724492033645
10	225	447.820171029931	0.41168163604
10	234	489.73510683867	4.695723455205
10	237	493.274989506011	0.629666441315
10	242	502.332707670279	3.915419802159
10	243	504.078532155337	3.413334834032
10	252	524.399520627735	10.978224830845
10	255	535.548405348558	5.942246144332
10	258	549.957984131708	2.574264306704
10	268	581.081680165421	15.512399715904
10	269	586.887659908613	15.463044746563
10	270	587.667586211823	11.218700563773
10	273	604.176248146617	5.032694101584
10	276	608.173293608823	1.883656589263
10	303	673.494584839296	39.046556454939
10	304	675.402398756368	25.050194086298
10	305	680.154381777532	14.387961288957
10	308	681.818370000156	10.157273780401
10	309	685.258286087066	4.413685009584
10	319	710.827399102489	16.393402090889
10	320	711.862641154653	10.876671265318
10	323	717.106949726142	15.300751554857
10	324	717.569376163326	3.61101415559
10	327	724.30722411671	3.661481707647
10	330	730.008963577039	0.175970919521
10	333	736.619879248628	1.088405767217
10	336	778.786305860534	1.996352809655
10	339	780.098735976317	0.484385286988
10	342	786.235247579373	1.094584826011
10	354	823.518106365624	14.207184447639
10	357	827.160868146605	14.056057707842
10	370	850.135938452934	31.827348609394
10	373	850.981902953461	26.679900761154
10	374	855.265984787638	27.885026431673
10	375	856.507914484253	19.642983347524
10	379	860.261700290519	16.935283135975
10	380	861.196333467974	10.98379164965
10	386	868.421776603196	6.48066110115
10	387	872.12494126294	9.868682001015
10	396	892.183578351993	8.527692930241
10	399	896.40670528214	2.552653631572
10	402	898.725967677229	0.795005351951
10	411	917.187334172989	7.120358150395
10	414	934.001749558821	0.748642023928
10	417	942.03272617259	0.375648809909
10	420	943.05457203692	0.086293875212
10	423	947.544101027469	1.103366253835
10	426	950.208618072795	2.054853496534
10	429	972.186242228747	6.664902487399
10	432	984.885576839577	3.881500786456
10	441	1011.616426361217	3.612743437779
10	444	1016.671011689797	1.287207542737
10	450	1030.454809212176	5.901052846261
10	456	1038.214552999782	0.923845443478
10	459	1051.332300778608	1.473517155849
10	467	1062.736495816988	5.128599731457
10	468	1065.383556083364	3.981596100831
10	482	1085.440629474152	17.187690260359
10	483	1087.358770460376	9.382194470429
10	486	1091.501858718748	0.154080863081
10	489	1097.340793207421	1.071862047062
10	497	1111.769234175785	7.204543366746
10	500	1113.643447717698	8.784788702507
10	501	1117.232185598283	5.164255250845
10	504	1120.000952850171	0.901315083105
10	507	1131.14444351465	0.186965937073
10	510	1139.294702546681	0.514571057521
10	518	1157.081318808689	12.75744715455
10	531	1180.014821369745	20.779680324764
10	532	1182.914308324991	23.582633899884
10	533	1183.438313686278	15.084617828314
10	534	1185.478181825527	13.511719560294
10	537	1190.677739636615	2.48684082975
10	551	1229.138964217197	32.452105523293
10	552	1230.033780091453	14.744366677295
10	557	1240.126386172975	0.094168859432
10	558	1240.370027853718	0.287522189425
10	563	1257.656246389821	3.945329085076
10	564	1258.376239991566	1.082542427657
10	567	1284.229390536189	0.416281100306
10	570	1297.932193577726	6.542785813399
10	576	1314.911809203051	1.341985215026
10	590	1351.280933525629	5.11373593815
10	591	1351.411972406367	1.383248703074
10	594	1351.718277062022	0.206141915564
10	600	1366.236722331682	3.011907481501
10	603	1378.031707742005	0.25875791559
10	606	1382.280978594316	3.901309263687
10	609	1391.665020139121	0.232693903155
10	612	1397.211996772362	3.525911856855
10	615	1405.917972713833	0.288405534457
10	623	1432.901154824441	13.14033099972
10	624	1438.840922275557	12.947722819019
10	631	1448.316390166213	8.479525332827
10	632	1449.682559319894	4.920145529394
10	636	1457.174610172823	3.514963780873
10	639	1469.089942182364	3.72082387173
10	646	1500.869620666796	3.69266436621
10	647	1504.580603003013	6.618586830049
10	648	1506.953938385975	8.948194007057
10	651	1508.985301758769	0.208150125031
10	654	1516.097942983402	3.016928473017
10	657	1519.920930317153	0.896583038273
10	664	1528.006115057038	6.781753209023
10	665	1533.047874965147	11.626757225347
10	671	1543.288038769171	4.214272001637
10	672	1546.727799805955	4.632583861571
10	678	1571.669873997553	3.036812473066
10	695	1598.762538986905	12.505334574084
10	696	1598.951383061871	9.40572794206
10	699	1606.618227765644	2.694369368464
10	702	1612.971958336601	3.463966630561
10	711	1628.467943158073	2.804950522998
10	717	1634.163172323185	2.242210403
10	720	1636.242545384578	0.565200056496
10	740	1673.706180803743	18.71007735944
10	741	1676.503993408702	13.41331742776
10	750	1705.399594595802	0.712507519492
10	755	1716.525188840729	6.754825188193
10	756	1720.150594267195	3.884571439499
10	769	1734.507158930153	11.679558656115
10	770	1741.348646358546	12.71092231115
10	771	1741.727082502696	10.090334898495
10	774	1750.291881409465	3.413142853668
10	788	1790.108631438247	22.42294427621
10	789	1790.752136719338	6.201895458407
10	792	1793.867555742844	9.026515884462
10	793	1796.201664004392	9.786420692572
10	794	1797.670072203645	8.053934294696
10	797	1803.903500966342	10.083154204689
10	798	1804.115420372524	3.688645055008
10	801	1814.905416459127	2.583860814218
10	814	1850.905086629212	10.40017584012
10	815	1852.102951889586	9.512789662051
10	818	1855.469656384867	7.475203855547
10	827	1869.707827137274	13.031576173247
10	828	1870.195282322058	11.386754747729
10	837	1897.500444522886	3.484308683627
10	840	1918.560211257258	3.130436699591
10	849	1970.516862403719	3.333541928696
10	852	1983.352286900274	3.726367339001
10	860	1999.590055984067	6.080836977253
10	861	2001.136867723153	2.091995609184
10	864	2008.188848275648	1.963655674627
10	867	2013.031732262116	1.625794075732
10	870	2019.975280194411	1.337971119717
10	875	2031.722122489175	1.396256634633
10	887	2051.067565043334	13.467870915139
10	888	2055.56974881926	17.863104334239
10	891	2076.886576734478	3.819205492045
10	897	2093.638678299136	7.300987928464
10	906	2110.418866299603	1.074907501987
10	912	2130.095029756985	6.657342682984
10	915	2139.512075813528	0.93237021047
10	921	2155.37893966311	9.524778366859
10	926	2165.083364905917	2.700552790888
10	934	2181.947414360908	16.265884945227
10	935	2182.858017644616	14.671043739381
10	939	2189.341651418576	2.232400801679
10	942	2192.381303589566	2.56963917503
10	949	2197.239165855768	1.156884802117
10	952	2199.553764029175	3.293195900743
10	953	2200.885502586844	3.818655185394
10	954	2202.279060764658	3.379668338987
10	957	2204.096521111403	0.424299441428
10	960	2206.82696318344	0.91614681273
10	963	2210.809815565745	1.281592641502
10	970	2219.434759965024	7.152183572321
10	973	2219.939239127264	4.201051459377
10	974	2221.20625845245	4.666052099905
10	978	2228.064315095831	6.609489580462
10	983	2233.60955375094	0.657497939339
10	984	2233.870287179186	0.580359923674
10	989	2248.281808491385	13.903148523257
10	994	2256.425154289067	9.533226420454
10	997	2258.786131670297	6.538472955767
10	998	2260.111604622275	3.899575384232
10	999	2262.727235786144	4.015381918593
10	1005	2269.462300300865	5.225484709013
10	1016	2297.664503273205	5.376167148127
10	1017	2299.014650047674	5.936413575319
10	1020	2299.73884759989	0.401138352439
10	1023	2303.644811023231	2.487402517839
10	1028	2316.568287059643	6.025374493227
10	1029	2318.389888727785	2.293776247793
10	1032	2328.096019923145	3.238118525526
10	1035	2336.312040478739	6.48379913358
10	1050	2350.407626967854	13.770990519558
10	1051	2350.537138989911	7.954173956061
10	1055	2355.506347639075	7.654787823851
10	1056	2357.799813865504	5.545106238047
10	1059	2366.524404376919	2.637260698327
10	1062	2371.105754706454	2.652432681121
10	1068	2385.20354790712	0.2746725951
10	1071	2395.530637021929	3.288524001743
10	1074	2403.479108764478	0.573729498452
10	1084	2421.325822686733	6.621242493016
10	1087	2432.841001920885	16.761635673306
10	1088	2435.170226825125	16.443517094125
10	1089	2436.43139344294	9.137362679213
10	1092	2438.909985360814	0.485027175136
10	1101	2444.411150918292	2.676026548512
10	1112	2476.199326155062	27.557174514021
10	1113	2477.69860639017	24.996915240745
10	1119	2487.132778165787	7.327278680678
11	1126	2500	0.1008
12	1126	2500	0.0484

