version 2
run experiments_easy_game_mode1-395-20230308-12:03:17-20383
attr configname experiments_easy_game_mode1
attr datetime 20230308-12:03:17
attr experiment experiments_easy_game_mode1
attr inifile omnetpp.ini
attr iterationvars "$0=5.5, $1=1, $2=100"
attr iterationvarsf 5.5,1,100-
attr measurement "$0=5.5, $1=1, $2=100"
attr network Network
attr processid 20383
attr repetition 5
attr replication #5
attr resultdir results
attr runnumber 395
attr seedset 5
param *.boss.arrival_mean 20
param *.boss.service_mean 5.5
param *.minion.arrival_mean 10
param *.minion.service_mean 1
param *.player.recover_rate_x 100
param **.minion.arrival_distribution 0
param **.minion.service_distribution 0
param **.boss.arrival_distribution 0
param **.boss.service_distribution 0

vector 0 Network.player boss_defeated_stat:vector ETV
attr source signal_boss_defeated
vector 1 Network.player boss_jobs_queue_number_stat:vector ETV
attr source signal_boss_jobs_queue_number
vector 2 Network.player boss_response_time_stat:vector ETV
attr source signal_boss_response_time
vector 3 Network.player minion_jobs_number_stat:vector ETV
attr source signal_minion_jobs_number
vector 4 Network.player minion_jobs_queue_number_stat:vector ETV
attr source signal_minion_jobs_queue_number
vector 5 Network.player minion_waiting_time_stat:vector ETV
attr source signal_minion_waiting_time
vector 6 Network.player minion_defeated_stat:vector ETV
attr source signal_minion_defeated
vector 7 Network.player minion_response_time_stat:vector ETV
attr source signal_minion_response_time
vector 8 Network.player boss_jobs_number_stat:vector ETV
attr source signal_boss_jobs_number
vector 9 Network.player boss_waiting_time_stat:vector ETV
attr source signal_boss_waiting_time
vector 10 Network.player minion_recovered_stat:vector ETV
attr source signal_minion_recovered
vector 11 Network.player minion_throughput:vector ETV
attr source signal_minion_throughput
vector 12 Network.player boss_throughput:vector ETV
attr source signal_boss_throughput
0	132	352.419413953366	19
0	143	384.971039197779	20
0	144	384.984612763022	21
0	147	393.18475236929	22
0	161	413.7824323843	23
0	172	445.49160086173	24
0	175	457.384619861621	25
0	176	457.385076896313	26
0	191	469.070084802075	27
0	220	528.281371041501	28
0	221	533.179554435613	29
0	222	536.167227012591	30
0	225	557.266926190985	31
0	226	563.56064843232	32
0	231	573.817794461848	33
0	234	581.500571396334	34
0	252	628.148376851301	35
0	260	642.97887073899	36
0	275	664.352179951255	37
0	276	667.115540953657	38
0	279	671.369068179928	39
0	296	715.633290642459	40
0	311	750.768204498205	41
0	332	802.278357629217	42
0	343	828.272223852343	43
0	374	883.594357394011	44
0	381	887.981493951636	45
0	388	896.248603754752	46
0	398	907.591348466653	47
0	408	919.480993014041	48
0	414	936.447606586028	49
0	432	965.312779511845	50
0	441	982.667937219853	51
0	449	993.305176217763	52
0	469	1019.260783871674	53
0	487	1089.353087055494	54
0	488	1091.692768263468	55
0	498	1110.702633925242	56
0	511	1170.145939036469	57
0	531	1200.481287161832	58
0	551	1282.066377257918	59
0	573	1335.197201893783	60
0	589	1364.032104050904	61
0	609	1412.671643441996	62
0	617	1449.361086328333	63
0	625	1466.283209009988	64
0	626	1466.981461513805	65
0	630	1474.734688693141	66
0	637	1483.582042992274	67
0	644	1505.552821052008	68
0	660	1541.691799751987	69
0	663	1547.345029913686	70
0	669	1571.604113417143	71
0	697	1632.542187791374	72
0	706	1650.985624075942	73
0	711	1664.906565313518	74
0	714	1668.340439789491	75
0	726	1678.753813486626	76
0	732	1692.193355286041	77
0	739	1705.528400955309	78
0	748	1714.34105433376	79
0	758	1740.885426651111	80
0	761	1746.515230778877	81
0	781	1814.16435191181	82
0	786	1822.334657476856	83
0	789	1835.236298225579	84
0	790	1841.102952863946	85
0	801	1854.466024420374	86
0	804	1859.063315848651	87
0	810	1869.05312402433	88
0	813	1870.180849006436	89
0	818	1883.917001060696	90
0	828	1907.685850962181	91
0	839	1946.480143467533	92
0	845	1971.223281072027	93
0	849	1979.684398410201	94
0	854	1985.137222768579	95
0	864	2005.675900795327	96
0	867	2010.179427631525	97
0	882	2043.939784820892	98
0	891	2070.210194896341	99
0	900	2076.414622236344	100
0	907	2093.402430249246	101
0	912	2104.992143675572	102
0	924	2120.636182388701	103
0	927	2131.294609548714	104
0	934	2158.802554833642	105
0	946	2178.029613062688	106
0	953	2192.713321185297	107
0	954	2192.864993012527	108
0	996	2265.309014011623	109
0	1014	2295.615478093588	110
0	1017	2319.596523400409	111
0	1042	2372.209816886562	112
0	1043	2375.657852537123	113
0	1053	2387.626387864249	114
0	1054	2399.241094336128	115
0	1065	2439.534449033754	116
0	1066	2440.412170163124	117
0	1074	2464.235331930885	118
0	1077	2470.276651419965	119
0	1080	2479.772752411169	120
1	132	352.419413953366	0
1	140	381.910508285344	0
1	142	382.12216177113	1
1	143	384.971039197779	1
1	144	384.984612763022	0
1	146	385.458599038288	0
1	147	393.18475236929	0
1	152	401.932998597983	0
1	154	404.293112790177	1
1	161	413.7824323843	1
1	169	437.903864460807	1
1	171	439.767450543379	2
1	172	445.49160086173	2
1	175	457.384619861621	1
1	176	457.385076896313	0
1	188	467.105152708054	0
1	191	469.070084802075	0
1	209	507.778352471988	0
1	211	511.970843354015	1
1	213	523.641403692857	2
1	215	523.764599663184	3
1	217	526.525142992614	4
1	220	528.281371041501	4
1	221	533.179554435613	3
1	222	536.167227012591	2
1	224	556.097184880185	2
1	225	557.266926190985	2
1	226	563.56064843232	1
1	228	564.45633319999	1
1	231	573.817794461848	1
1	234	581.500571396334	0
1	251	627.778284939314	0
1	252	628.148376851301	0
1	259	638.222539276565	0
1	260	642.97887073899	0
1	272	662.431607004495	0
1	274	662.436923341715	1
1	275	664.352179951255	1
1	276	667.115540953657	0
1	278	669.501349085891	0
1	279	671.369068179928	0
1	295	712.041199677948	0
1	296	715.633290642459	0
1	308	741.260931673624	0
1	311	750.768204498205	0
1	329	799.551242766425	0
1	332	802.278357629217	0
1	340	822.860284331871	0
1	343	828.272223852343	0
1	371	877.543810870645	0
1	374	883.594357394011	0
1	380	887.337605029767	0
1	381	887.981493951636	0
1	383	888.487505027603	0
1	388	896.248603754752	0
1	397	907.588439234243	0
1	398	907.591348466653	0
1	401	909.614822051967	0
1	408	919.480993014041	0
1	411	920.771602651114	0
1	414	936.447606586028	0
1	431	964.27347470108	0
1	432	965.312779511845	0
1	440	981.828805080065	0
1	441	982.667937219853	0
1	448	991.993690733228	0
1	449	993.305176217763	0
1	464	1016.249624094874	0
1	469	1019.260783871674	0
1	482	1077.928705248913	0
1	484	1080.302015026252	1
1	487	1089.353087055494	1
1	488	1091.692768263468	0
1	497	1107.584578418003	0
1	498	1110.702633925242	0
1	506	1158.933809594803	0
1	511	1170.145939036469	0
1	530	1188.996723057024	0
1	531	1200.481287161832	0
1	550	1278.988197943606	0
1	551	1282.066377257918	0
1	572	1331.699076905576	0
1	573	1335.197201893783	0
1	584	1354.3265869964	0
1	589	1364.032104050904	0
1	608	1410.690821772367	0
1	609	1412.671643441996	0
1	614	1442.401810080516	0
1	617	1449.361086328333	0
1	620	1458.263650676793	0
1	622	1458.853799594753	1
1	625	1466.283209009988	1
1	626	1466.981461513805	0
1	629	1474.67750170795	0
1	630	1474.734688693141	0
1	632	1478.591938273987	0
1	637	1483.582042992274	0
1	641	1499.350124495382	0
1	644	1505.552821052008	0
1	659	1540.927398831871	0
1	660	1541.691799751987	0
1	662	1543.83572861612	0
1	663	1547.345029913686	0
1	668	1571.160236717777	0
1	669	1571.604113417143	0
1	692	1627.011532211296	0
1	697	1632.542187791374	0
1	701	1641.200728983196	0
1	705	1649.139788179428	1
1	706	1650.985624075942	1
1	708	1651.886764969815	1
1	711	1664.906565313518	1
1	714	1668.340439789491	0
1	725	1677.97722850772	0
1	726	1678.753813486626	0
1	731	1691.221218932796	0
1	732	1692.193355286041	0
1	734	1695.469903337416	0
1	739	1705.528400955309	0
1	743	1709.973952942435	0
1	748	1714.34105433376	0
1	755	1734.173751778239	0
1	758	1740.885426651111	0
1	760	1741.631715878164	0
1	761	1746.515230778877	0
1	770	1795.251777029999	0
1	772	1796.186514870931	1
1	778	1810.233699922377	2
1	781	1814.16435191181	2
1	785	1821.747407345427	2
1	786	1822.334657476856	2
1	789	1835.236298225579	1
1	790	1841.102952863946	0
1	800	1852.560548192826	0
1	801	1854.466024420374	0
1	803	1854.576513861016	0
1	804	1859.063315848651	0
1	809	1868.175832967458	0
1	810	1869.05312402433	0
1	812	1869.101112407136	0
1	813	1870.180849006436	0
1	815	1883.079443135498	0
1	818	1883.917001060696	0
1	827	1906.172223784969	0
1	828	1907.685850962181	0
1	836	1929.509174591028	0
1	839	1946.480143467533	0
1	842	1967.343964080476	0
1	845	1971.223281072027	0
1	848	1979.682068380707	0
1	849	1979.684398410201	0
1	851	1982.357432335051	0
1	854	1985.137222768579	0
1	863	2003.786686497585	0
1	864	2005.675900795327	0
1	866	2006.5504223079	0
1	867	2010.179427631525	0
1	881	2040.249635521158	0
1	882	2043.939784820892	0
1	884	2053.063007369747	0
1	891	2070.210194896341	0
1	899	2076.247451695774	0
1	900	2076.414622236344	0
1	902	2080.649378436169	0
1	904	2086.329528345313	1
1	907	2093.402430249246	1
1	912	2104.992143675572	0
1	923	2116.760152658708	0
1	924	2120.636182388701	0
1	926	2130.649701280081	0
1	927	2131.294609548714	0
1	929	2149.349687489204	0
1	934	2158.802554833642	0
1	941	2171.319197265902	0
1	946	2178.029613062688	0
1	950	2183.040962897326	0
1	952	2183.478361293144	1
1	953	2192.713321185297	1
1	954	2192.864993012527	0
1	995	2263.858396856056	0
1	996	2265.309014011623	0
1	1013	2294.457992447564	0
1	1014	2295.615478093588	0
1	1016	2319.143568197383	0
1	1017	2319.596523400409	0
1	1037	2364.097716176362	0
1	1041	2369.034416376807	1
1	1042	2372.209816886562	1
1	1043	2375.657852537123	0
1	1046	2379.332298766566	0
1	1050	2382.99845866801	1
1	1053	2387.626387864249	1
1	1054	2399.241094336128	0
1	1060	2420.064793868789	0
1	1064	2435.541766541786	1
1	1065	2439.534449033754	1
1	1066	2440.412170163124	0
1	1073	2461.309526535168	0
1	1074	2464.235331930885	0
1	1076	2468.83020005602	0
1	1077	2470.276651419965	0
1	1079	2471.034788360199	0
1	1080	2479.772752411169	0
2	132	352.419413953366	2.920001992485
2	143	384.971039197779	3.060530912435
2	144	384.984612763022	2.862450991892
2	147	393.18475236929	7.726153331002
2	161	413.7824323843	11.849433786317
2	172	445.49160086173	41.198488071553
2	175	457.384619861621	19.480755400814
2	176	457.385076896313	17.617626352934
2	191	469.070084802075	1.964932094021
2	220	528.281371041501	20.503018569513
2	221	533.179554435613	21.208711081598
2	222	536.167227012591	12.525823319734
2	225	557.266926190985	33.502326527801
2	226	563.56064843232	37.035505439706
2	231	573.817794461848	17.720609581663
2	234	581.500571396334	17.044238196344
2	252	628.148376851301	0.370091911987
2	260	642.97887073899	4.756331462425
2	275	664.352179951255	1.92057294676
2	276	667.115540953657	4.678617611942
2	279	671.369068179928	1.867719094037
2	296	715.633290642459	3.592090964511
2	311	750.768204498205	9.507272824581
2	332	802.278357629217	2.727114862792
2	343	828.272223852343	5.411939520472
2	374	883.594357394011	6.050546523366
2	381	887.981493951636	0.643888921869
2	388	896.248603754752	7.761098727149
2	398	907.591348466653	0.00290923241
2	408	919.480993014041	9.866170962074
2	414	936.447606586028	15.676003934914
2	432	965.312779511845	1.039304810765
2	441	982.667937219853	0.839132139788
2	449	993.305176217763	1.311485484535
2	469	1019.260783871674	3.0111597768
2	487	1089.353087055494	11.424381806581
2	488	1091.692768263468	11.390753237216
2	498	1110.702633925242	3.118055507239
2	511	1170.145939036469	11.212129441666
2	531	1200.481287161832	11.484564104808
2	551	1282.066377257918	3.078179314312
2	573	1335.197201893783	3.498124988207
2	589	1364.032104050904	9.705517054504
2	609	1412.671643441996	1.980821669629
2	617	1449.361086328333	6.959276247817
2	625	1466.283209009988	8.019558333195
2	626	1466.981461513805	8.127661919052
2	630	1474.734688693141	0.057186985191
2	637	1483.582042992274	4.990104718287
2	644	1505.552821052008	6.202696556626
2	660	1541.691799751987	0.764400920116
2	663	1547.345029913686	3.509301297566
2	669	1571.604113417143	0.443876699366
2	697	1632.542187791374	5.530655580078
2	706	1650.985624075942	9.784895092746
2	711	1664.906565313518	15.76677713409
2	714	1668.340439789491	16.453674819676
2	726	1678.753813486626	0.776584978906
2	732	1692.193355286041	0.972136353245
2	739	1705.528400955309	10.058497617893
2	748	1714.34105433376	4.367101391325
2	758	1740.885426651111	6.711674872872
2	761	1746.515230778877	4.883514900713
2	781	1814.16435191181	18.912574881811
2	786	1822.334657476856	26.148142605925
2	789	1835.236298225579	25.002598303202
2	790	1841.102952863946	19.355545518519
2	801	1854.466024420374	1.905476227548
2	804	1859.063315848651	4.486801987635
2	810	1869.05312402433	0.877291056872
2	813	1870.180849006436	1.0797365993
2	818	1883.917001060696	0.837557925198
2	828	1907.685850962181	1.513627177212
2	839	1946.480143467533	16.970968876505
2	845	1971.223281072027	3.879316991551
2	849	1979.684398410201	0.002330029494
2	854	1985.137222768579	2.779790433528
2	864	2005.675900795327	1.889214297742
2	867	2010.179427631525	3.629005323625
2	882	2043.939784820892	3.690149299734
2	891	2070.210194896341	17.147187526594
2	900	2076.414622236344	0.16717054057
2	907	2093.402430249246	12.753051813077
2	912	2104.992143675572	18.662615330259
2	924	2120.636182388701	3.876029729993
2	927	2131.294609548714	0.644908268633
2	934	2158.802554833642	9.452867344438
2	946	2178.029613062688	6.710415796786
2	953	2192.713321185297	9.672358287971
2	954	2192.864993012527	9.386631719383
2	996	2265.309014011623	1.450617155567
2	1014	2295.615478093588	1.157485646024
2	1017	2319.596523400409	0.452955203026
2	1042	2372.209816886562	8.1121007102
2	1043	2375.657852537123	6.623436160316
2	1053	2387.626387864249	8.294089097683
2	1054	2399.241094336128	16.242635668118
2	1065	2439.534449033754	19.469655164965
2	1066	2440.412170163124	4.870403621338
2	1074	2464.235331930885	2.925805395717
2	1077	2470.276651419965	1.446451363945
2	1080	2479.772752411169	8.73796405097
3	134	354.172507827807	1
3	137	373.165573927013	1
3	149	393.279838510632	1
3	156	408.207277351423	1
3	158	411.99829745011	2
3	160	412.37183081957	3
3	163	436.073400872944	4
3	165	437.314233815506	5
3	167	437.327952946813	6
3	174	451.242256151972	7
3	180	459.810452974783	6
3	183	462.544540123058	6
3	190	468.979055047066	4
3	195	471.920162134502	3
3	199	475.095408618298	2
3	203	494.588354537745	1
3	206	497.713550616588	1
3	219	527.626775085374	1
3	230	571.143215401286	2
3	233	579.391432256081	3
3	239	605.943574795199	1
3	241	607.913223543641	2
3	244	609.957947543076	2
3	248	624.665666816139	1
3	254	630.706851864441	1
3	257	637.487093734645	1
3	262	643.417267897842	2
3	266	653.393714807935	1
3	269	656.310268947339	1
3	281	674.6047529137	1
3	284	695.335114389194	1
3	287	701.516242444663	1
3	290	704.925125838561	1
3	293	711.815483747498	1
3	298	715.664169776615	2
3	302	727.040126940911	1
3	305	735.618888755847	1
3	310	746.139589939481	1
3	314	762.644089716245	1
3	317	765.774707186922	1
3	320	768.538631314541	1
3	323	769.235612506848	1
3	326	787.248359323836	1
3	331	802.008149240264	1
3	335	815.757023724541	1
3	338	822.315232027055	1
3	342	828.136835226231	2
3	347	832.129773314188	1
3	349	833.062464632352	2
3	353	840.209054935251	1
3	356	845.043579502083	1
3	359	848.103789288935	1
3	362	853.51756743213	1
3	365	857.235620783026	1
3	368	871.716141047027	1
3	373	881.573981200952	1
3	376	883.796395950465	2
3	385	891.948409974863	1
3	387	892.451265341315	2
3	390	896.287023108023	3
3	395	907.496880138223	1
3	403	912.519557305623	1
3	405	912.719751269411	2
3	407	915.703469079402	3
3	413	931.627609079209	3
3	419	940.35611761368	1
3	422	952.926673196333	1
3	424	954.689615315032	2
3	428	958.18994317615	1
3	434	967.306304503991	1
3	437	971.293520383222	1
3	443	988.770386098451	1
3	446	991.89196686214	1
3	451	993.592636988663	2
3	453	995.06088645478	3
3	458	1008.314780315635	1
3	461	1012.966214610902	1
3	466	1018.219575777321	1
3	468	1018.378246406112	2
3	473	1033.460060157527	1
3	476	1037.687100701228	1
3	479	1053.982005230281	1
3	486	1087.119359711866	1
3	491	1102.540491660609	1
3	494	1104.720238786165	1
3	500	1113.692156924454	1
3	503	1148.073931961739	1
3	508	1158.994943503307	1
3	510	1159.869971217089	2
3	513	1170.270592856227	3
3	518	1172.886145916887	1
3	521	1178.431073673036	1
3	523	1180.180260533885	2
3	527	1187.386849011417	1
3	533	1213.938108252133	1
3	536	1220.894768537029	1
3	539	1246.89843674697	1
3	541	1247.276325723585	2
3	545	1266.056222790817	1
3	548	1278.370214318002	1
3	554	1284.448987743469	1
3	557	1294.136166031973	1
3	560	1301.96258254879	1
3	563	1317.004740683419	1
3	566	1321.089472312076	1
3	569	1327.240403897141	1
3	575	1339.31192988468	1
3	578	1344.089152158986	1
3	581	1354.139097917223	1
3	586	1357.590687385923	1
3	588	1362.401640317386	2
3	593	1370.548662839093	1
3	596	1393.477834516225	1
3	599	1394.357009853883	1
3	602	1399.467597341814	1
3	605	1409.444819982285	1
3	611	1413.916469106427	1
3	616	1442.842899766702	1
3	624	1460.245386861678	1
3	634	1482.431277285998	1
3	636	1482.922469037112	2
3	643	1504.007678257348	1
3	647	1516.603279450633	1
3	650	1520.830688733209	1
3	653	1521.897440116271	1
3	656	1534.041056993256	1
3	665	1567.933072131845	1
3	671	1575.426811134132	1
3	674	1577.614321941095	1
3	677	1588.382349111459	1
3	680	1604.98445020996	1
3	683	1608.10816906207	1
3	686	1611.611585584382	1
3	689	1620.970579796187	1
3	694	1629.016241169596	1
3	696	1629.509796788956	2
3	703	1645.107593448206	1
3	710	1656.998456245854	2
3	713	1667.385312246145	3
3	719	1670.941665386543	1
3	722	1677.340756018396	1
3	728	1679.151605878875	1
3	736	1698.499432454028	1
3	738	1702.537875751213	2
3	745	1710.023199632792	1
3	747	1711.831678986269	2
3	752	1715.794270075167	1
3	757	1740.402810295447	1
3	764	1754.371851842985	1
3	767	1757.712952114246	1
3	774	1803.563631578393	1
3	776	1804.702121163114	2
3	780	1813.945618333506	3
3	783	1815.189939142241	4
3	788	1830.000877789753	5
3	793	1844.087242559274	5
3	806	1865.352465476735	1
3	817	1883.609421275364	1
3	821	1885.977274496929	1
3	823	1886.339112843074	2
3	830	1925.322903074237	1
3	833	1926.617656675168	1
3	838	1946.452518246029	1
3	844	1968.617331088617	1
3	853	1983.774184273965	1
3	857	1991.012150132266	1
3	860	1995.96333466045	1
3	869	2021.788839862228	1
3	872	2027.965610252793	1
3	875	2036.670246191136	1
3	878	2038.612038391061	1
3	886	2053.451391923639	1
3	888	2059.720372977221	2
3	890	2065.213904978399	3
3	894	2070.960011779213	3
3	906	2088.416297189241	1
3	909	2094.55514914724	2
3	911	2099.423059657969	3
3	917	2109.526301819064	1
3	920	2113.901216392289	1
3	931	2152.7373224416	1
3	933	2158.324858173646	2
3	938	2170.032935115697	1
3	943	2175.059280819876	1
3	945	2175.89386075536	2
3	956	2194.513301538501	1
3	959	2197.181186761374	1
3	962	2201.862421686758	1
3	965	2205.989717082358	1
3	968	2210.635198036061	1
3	971	2215.605995918517	1
3	974	2220.983562150837	1
3	977	2237.146804838887	1
3	980	2242.672738216294	1
3	982	2243.211192938679	2
3	986	2254.082127145278	1
3	988	2255.276179260871	2
3	990	2257.380623580054	3
3	998	2265.712071714624	1
3	1001	2278.530645851194	1
3	1003	2279.373335041389	2
3	1007	2282.299088262717	1
3	1010	2288.557943251978	1
3	1019	2321.438632138943	1
3	1022	2332.743083346899	1
3	1025	2334.166339972331	1
3	1027	2334.24183420918	2
3	1031	2350.681956625492	1
3	1034	2362.032617962155	1
3	1039	2366.417596998391	1
3	1048	2382.613350806866	1
3	1052	2383.497710697982	2
3	1058	2419.292970577924	1
3	1062	2432.429685492346	2
3	1070	2452.103637946343	1
4	134	354.172507827807	0
4	135	355.64877000227	0
4	137	373.165573927013	0
4	138	373.361740477136	0
4	149	393.279838510632	0
4	150	393.75029794062	0
4	156	408.207277351423	0
4	158	411.99829745011	1
4	160	412.37183081957	2
4	163	436.073400872944	3
4	165	437.314233815506	4
4	167	437.327952946813	5
4	174	451.242256151972	6
4	177	458.07011614108	6
4	178	458.624770755744	5
4	180	459.810452974783	5
4	181	460.617665074666	5
4	183	462.544540123058	5
4	184	464.029286610033	5
4	185	465.452011949472	4
4	186	465.783355750564	3
4	190	468.979055047066	3
4	192	469.942739475856	3
4	193	471.366954005154	2
4	195	471.920162134502	2
4	196	474.393869249278	2
4	197	475.085970923436	1
4	199	475.095408618298	1
4	200	475.57088521628	1
4	201	475.914875627327	0
4	203	494.588354537745	0
4	204	495.113817315202	0
4	206	497.713550616588	0
4	207	498.557272568542	0
4	219	527.626775085374	0
4	230	571.143215401286	1
4	233	579.391432256081	2
4	235	582.750101073941	2
4	236	584.835662045205	1
4	237	585.151290705255	0
4	239	605.943574795199	0
4	241	607.913223543641	1
4	242	608.553561780588	1
4	244	609.957947543076	1
4	245	610.478415265556	1
4	246	613.623879101514	0
4	248	624.665666816139	0
4	249	627.10940044587	0
4	254	630.706851864441	0
4	255	631.05323367465	0
4	257	637.487093734645	0
4	262	643.417267897842	1
4	263	644.030976344148	1
4	264	644.29571454535	0
4	266	653.393714807935	0
4	267	654.120767407768	0
4	269	656.310268947339	0
4	270	656.620837409855	0
4	281	674.6047529137	0
4	282	674.788478377485	0
4	284	695.335114389194	0
4	285	695.424133747209	0
4	287	701.516242444663	0
4	288	701.871050973591	0
4	290	704.925125838561	0
4	291	706.314847736807	0
4	293	711.815483747498	0
4	298	715.664169776615	1
4	299	715.814746223729	1
4	300	716.301551606635	0
4	302	727.040126940911	0
4	303	727.436452807332	0
4	305	735.618888755847	0
4	306	736.551964001255	0
4	310	746.139589939481	0
4	312	751.38465055345	0
4	314	762.644089716245	0
4	315	762.821847553472	0
4	317	765.774707186922	0
4	318	766.560777782104	0
4	320	768.538631314541	0
4	321	769.051945757092	0
4	323	769.235612506848	0
4	324	769.480747181256	0
4	326	787.248359323836	0
4	327	788.879908886221	0
4	331	802.008149240264	0
4	333	803.887137401921	0
4	335	815.757023724541	0
4	336	816.535534104551	0
4	338	822.315232027055	0
4	342	828.136835226231	1
4	344	829.340321561421	1
4	345	830.757125370169	0
4	347	832.129773314188	0
4	349	833.062464632352	1
4	350	834.022189135803	1
4	351	834.530225848474	0
4	353	840.209054935251	0
4	354	840.520376642516	0
4	356	845.043579502083	0
4	357	846.660373089452	0
4	359	848.103789288935	0
4	360	849.057846028739	0
4	362	853.51756743213	0
4	363	855.405391897857	0
4	365	857.235620783026	0
4	366	858.29334856816	0
4	368	871.716141047027	0
4	369	871.802024623564	0
4	373	881.573981200952	0
4	376	883.796395950465	1
4	377	884.083448325385	1
4	378	886.940557905904	0
4	385	891.948409974863	0
4	387	892.451265341315	1
4	390	896.287023108023	2
4	391	896.776836973141	2
4	392	897.517809838693	1
4	393	899.179370611239	0
4	395	907.496880138223	0
4	399	908.536945006468	0
4	403	912.519557305623	0
4	405	912.719751269411	1
4	407	915.703469079402	2
4	409	920.398207330307	2
4	413	931.627609079209	2
4	415	938.733731336465	2
4	416	940.065911224805	1
4	417	940.308732629097	0
4	419	940.35611761368	0
4	420	941.02952535368	0
4	422	952.926673196333	0
4	424	954.689615315032	1
4	425	955.160328357669	1
4	426	956.922440446438	0
4	428	958.18994317615	0
4	429	959.647832152135	0
4	434	967.306304503991	0
4	435	969.264516327803	0
4	437	971.293520383222	0
4	438	971.843992547213	0
4	443	988.770386098451	0
4	444	990.323657022847	0
4	446	991.89196686214	0
4	451	993.592636988663	1
4	453	995.06088645478	2
4	454	995.084009814795	2
4	455	997.270194539404	1
4	456	997.299414776073	0
4	458	1008.314780315635	0
4	459	1009.514962957842	0
4	461	1012.966214610902	0
4	462	1013.296790920779	0
4	466	1018.219575777321	0
4	468	1018.378246406112	1
4	470	1019.866635269909	1
4	471	1021.113988641074	0
4	473	1033.460060157527	0
4	474	1033.825221247862	0
4	476	1037.687100701228	0
4	477	1038.163051239035	0
4	479	1053.982005230281	0
4	480	1055.697272679277	0
4	486	1087.119359711866	0
4	489	1092.602554981682	0
4	491	1102.540491660609	0
4	492	1102.690924685801	0
4	494	1104.720238786165	0
4	495	1106.040426525858	0
4	500	1113.692156924454	0
4	501	1114.205145720495	0
4	503	1148.073931961739	0
4	504	1148.403038272595	0
4	508	1158.994943503307	0
4	510	1159.869971217089	1
4	513	1170.270592856227	2
4	514	1170.408879476891	2
4	515	1171.317480659184	1
4	516	1172.210195889515	0
4	518	1172.886145916887	0
4	519	1173.584809377525	0
4	521	1178.431073673036	0
4	523	1180.180260533885	1
4	524	1180.604984653116	1
4	525	1180.750042401007	0
4	527	1187.386849011417	0
4	528	1187.783961478663	0
4	533	1213.938108252133	0
4	534	1214.949466772893	0
4	536	1220.894768537029	0
4	537	1222.527524489956	0
4	539	1246.89843674697	0
4	541	1247.276325723585	1
4	542	1247.444799322486	1
4	543	1249.041581857857	0
4	545	1266.056222790817	0
4	546	1266.413671198578	0
4	548	1278.370214318002	0
4	552	1282.813526172276	0
4	554	1284.448987743469	0
4	555	1287.410989298003	0
4	557	1294.136166031973	0
4	558	1294.416028744578	0
4	560	1301.96258254879	0
4	561	1303.122660027014	0
4	563	1317.004740683419	0
4	564	1318.715969050463	0
4	566	1321.089472312076	0
4	567	1322.390643456789	0
4	569	1327.240403897141	0
4	570	1327.870766320122	0
4	575	1339.31192988468	0
4	576	1339.809578363605	0
4	578	1344.089152158986	0
4	579	1345.4328036954	0
4	581	1354.139097917223	0
4	582	1354.223324199173	0
4	586	1357.590687385923	0
4	588	1362.401640317386	1
4	590	1364.649488069997	1
4	591	1365.142923780311	0
4	593	1370.548662839093	0
4	594	1372.54439397984	0
4	596	1393.477834516225	0
4	597	1393.588611425587	0
4	599	1394.357009853883	0
4	600	1395.568223113389	0
4	602	1399.467597341814	0
4	603	1402.580327482705	0
4	605	1409.444819982285	0
4	606	1409.62871285494	0
4	611	1413.916469106427	0
4	612	1415.178087403448	0
4	616	1442.842899766702	0
4	618	1449.558618754658	0
4	624	1460.245386861678	0
4	627	1467.451262281711	0
4	634	1482.431277285998	0
4	636	1482.922469037112	1
4	638	1485.478530013835	1
4	639	1488.430596435011	0
4	643	1504.007678257348	0
4	645	1506.007128115666	0
4	647	1516.603279450633	0
4	648	1516.872606292942	0
4	650	1520.830688733209	0
4	651	1521.310395505614	0
4	653	1521.897440116271	0
4	654	1523.101050145306	0
4	656	1534.041056993256	0
4	657	1534.083137581338	0
4	665	1567.933072131845	0
4	666	1569.2064076792	0
4	671	1575.426811134132	0
4	672	1576.432378740096	0
4	674	1577.614321941095	0
4	675	1578.068430238165	0
4	677	1588.382349111459	0
4	678	1590.012900080889	0
4	680	1604.98445020996	0
4	681	1605.014694372771	0
4	683	1608.10816906207	0
4	684	1610.384237825205	0
4	686	1611.611585584382	0
4	687	1612.167534408768	0
4	689	1620.970579796187	0
4	690	1621.187199037634	0
4	694	1629.016241169596	0
4	696	1629.509796788956	1
4	698	1632.672726433083	1
4	699	1634.62003407055	0
4	703	1645.107593448206	0
4	710	1656.998456245854	1
4	713	1667.385312246145	2
4	715	1669.655562169317	2
4	716	1669.850032699652	1
4	717	1670.3283127448	0
4	719	1670.941665386543	0
4	720	1671.409305568374	0
4	722	1677.340756018396	0
4	723	1677.590389078091	0
4	728	1679.151605878875	0
4	729	1679.633323873079	0
4	736	1698.499432454028	0
4	738	1702.537875751213	1
4	740	1707.005637720265	1
4	741	1707.85110896244	0
4	745	1710.023199632792	0
4	747	1711.831678986269	1
4	749	1714.770966077494	1
4	750	1715.486638478434	0
4	752	1715.794270075167	0
4	753	1717.362266542543	0
4	757	1740.402810295447	0
4	762	1746.528714102252	0
4	764	1754.371851842985	0
4	765	1754.751375065958	0
4	767	1757.712952114246	0
4	768	1758.45361594382	0
4	774	1803.563631578393	0
4	776	1804.702121163114	1
4	780	1813.945618333506	2
4	783	1815.189939142241	3
4	788	1830.000877789753	4
4	791	1841.889796553237	4
4	793	1844.087242559274	4
4	794	1844.576245147409	4
4	795	1845.384404850507	3
4	796	1845.667531886139	2
4	797	1846.694446440854	1
4	798	1846.92802304178	0
4	806	1865.352465476735	0
4	807	1865.628340017599	0
4	817	1883.609421275364	0
4	819	1885.609985756739	0
4	821	1885.977274496929	0
4	823	1886.339112843074	1
4	824	1888.740205947687	1
4	825	1889.102420478812	0
4	830	1925.322903074237	0
4	831	1926.358210834871	0
4	833	1926.617656675168	0
4	834	1927.742794852941	0
4	838	1946.452518246029	0
4	840	1946.724527724805	0
4	844	1968.617331088617	0
4	846	1973.795813762114	0
4	853	1983.774184273965	0
4	855	1986.290029128118	0
4	857	1991.012150132266	0
4	858	1991.08468793951	0
4	860	1995.96333466045	0
4	861	1996.742280702543	0
4	869	2021.788839862228	0
4	870	2023.311043021756	0
4	872	2027.965610252793	0
4	873	2028.486374479475	0
4	875	2036.670246191136	0
4	876	2036.705980100818	0
4	878	2038.612038391061	0
4	879	2039.178038515953	0
4	886	2053.451391923639	0
4	888	2059.720372977221	1
4	890	2065.213904978399	2
4	892	2070.921668307297	2
4	894	2070.960011779213	2
4	895	2072.094384629671	2
4	896	2072.672047725885	1
4	897	2073.31140523664	0
4	906	2088.416297189241	0
4	909	2094.55514914724	1
4	911	2099.423059657969	2
4	913	2106.16501122799	2
4	914	2107.980282395094	1
4	915	2109.490991568182	0
4	917	2109.526301819064	0
4	918	2109.665228275738	0
4	920	2113.901216392289	0
4	921	2113.949597228512	0
4	931	2152.7373224416	0
4	933	2158.324858173646	1
4	935	2159.546514860888	1
4	936	2159.624002138335	0
4	938	2170.032935115697	0
4	939	2170.051147552946	0
4	943	2175.059280819876	0
4	945	2175.89386075536	1
4	947	2178.958089073698	1
4	948	2180.591333250376	0
4	956	2194.513301538501	0
4	957	2195.75931236364	0
4	959	2197.181186761374	0
4	960	2199.479721106582	0
4	962	2201.862421686758	0
4	963	2202.025852265245	0
4	965	2205.989717082358	0
4	966	2206.340441709243	0
4	968	2210.635198036061	0
4	969	2211.589096090775	0
4	971	2215.605995918517	0
4	972	2215.86302497215	0
4	974	2220.983562150837	0
4	975	2221.14708273979	0
4	977	2237.146804838887	0
4	978	2239.251091924106	0
4	980	2242.672738216294	0
4	982	2243.211192938679	1
4	983	2243.2921373208	1
4	984	2243.823389892953	0
4	986	2254.082127145278	0
4	988	2255.276179260871	1
4	990	2257.380623580054	2
4	991	2258.007401669491	2
4	992	2258.145181589342	1
4	993	2260.000003283911	0
4	998	2265.712071714624	0
4	999	2267.877533920643	0
4	1001	2278.530645851194	0
4	1003	2279.373335041389	1
4	1004	2279.708024714756	1
4	1005	2279.954033016853	0
4	1007	2282.299088262717	0
4	1008	2282.920471080486	0
4	1010	2288.557943251978	0
4	1011	2289.509517462562	0
4	1019	2321.438632138943	0
4	1020	2323.92482305938	0
4	1022	2332.743083346899	0
4	1023	2333.327742839165	0
4	1025	2334.166339972331	0
4	1027	2334.24183420918	1
4	1028	2335.48522799005	1
4	1029	2336.884346876361	0
4	1031	2350.681956625492	0
4	1032	2350.684059338181	0
4	1034	2362.032617962155	0
4	1035	2362.644183326589	0
4	1039	2366.417596998391	0
4	1044	2376.775431310408	0
4	1048	2382.613350806866	0
4	1052	2383.497710697982	1
4	1055	2399.278397436454	1
4	1056	2400.142916823554	0
4	1058	2419.292970577924	0
4	1062	2432.429685492346	1
4	1067	2440.942094954696	1
4	1068	2441.59411080263	0
4	1070	2452.103637946343	0
4	1071	2452.526768661168	0
5	134	354.172507827807	0
5	137	373.165573927013	0
5	149	393.279838510632	0
5	176	457.385076896313	49.17779954489
5	177	458.07011614108	46.07181869097
5	178	458.624770755744	46.252939936174
5	181	460.617665074666	24.544264201722
5	184	464.029286610033	26.715052794527
5	185	465.452011949472	28.124059002659
5	186	465.783355750564	14.541099598592
5	191	469.070084802075	9.259631827292
5	192	469.942739475856	7.398199352798
5	193	471.366954005154	4.2618012971
5	196	474.393869249278	5.414814202212
5	197	475.085970923436	3.165808788934
5	200	475.57088521628	0.475476597982
5	203	494.588354537745	0
5	206	497.713550616588	0
5	234	581.500571396334	53.87379631096
5	235	582.750101073941	11.606885672655
5	236	584.835662045205	5.444229789124
5	239	605.943574795199	0
5	242	608.553561780588	0.640338236947
5	245	610.478415265556	0.52046772248
5	248	624.665666816139	0
5	254	630.706851864441	0
5	257	637.487093734645	0
5	260	642.97887073899	4.756331462425
5	263	644.030976344148	0.613708446306
5	266	653.393714807935	0
5	269	656.310268947339	0
5	281	674.6047529137	0
5	284	695.335114389194	0
5	287	701.516242444663	0
5	290	704.925125838561	0
5	293	711.815483747498	0
5	296	715.633290642459	3.592090964511
5	299	715.814746223729	0.150576447114
5	302	727.040126940911	0
5	305	735.618888755847	0
5	311	750.768204498205	4.628614558724
5	314	762.644089716245	0
5	317	765.774707186922	0
5	320	768.538631314541	0
5	323	769.235612506848	0
5	326	787.248359323836	0
5	332	802.278357629217	0.270208388953
5	335	815.757023724541	0
5	338	822.315232027055	0
5	343	828.272223852343	5.411939520472
5	344	829.340321561421	1.20348633519
5	347	832.129773314188	0
5	350	834.022189135803	0.959724503451
5	353	840.209054935251	0
5	356	845.043579502083	0
5	359	848.103789288935	0
5	362	853.51756743213	0
5	365	857.235620783026	0
5	368	871.716141047027	0
5	374	883.594357394011	2.020376193059
5	377	884.083448325385	0.28705237492
5	388	896.248603754752	4.300193779889
5	391	896.776836973141	4.325571631826
5	392	897.517809838693	1.23078673067
5	395	907.496880138223	0
5	398	907.591348466653	0.00290923241
5	408	919.480993014041	6.961435708418
5	409	920.398207330307	7.678456060896
5	414	936.447606586028	20.744137506626
5	415	938.733731336465	17.962128685351
5	416	940.065911224805	8.438302145596
5	419	940.35611761368	0
5	422	952.926673196333	0
5	425	955.160328357669	0.470713042637
5	428	958.18994317615	0
5	434	967.306304503991	0
5	437	971.293520383222	0
5	443	988.770386098451	0
5	446	991.89196686214	0
5	449	993.305176217763	1.311485484535
5	454	995.084009814795	1.491372826132
5	455	997.270194539404	2.209308084624
5	458	1008.314780315635	0
5	461	1012.966214610902	0
5	469	1019.260783871674	1.041208094353
5	470	1019.866635269909	1.488388863797
5	473	1033.460060157527	0
5	476	1037.687100701228	0
5	479	1053.982005230281	0
5	488	1091.692768263468	4.573408551602
5	491	1102.540491660609	0
5	494	1104.720238786165	0
5	500	1113.692156924454	0
5	503	1148.073931961739	0
5	511	1170.145939036469	11.150995533162
5	514	1170.408879476891	10.538908259802
5	515	1171.317480659184	1.046887802957
5	518	1172.886145916887	0
5	521	1178.431073673036	0
5	524	1180.604984653116	0.424724119231
5	527	1187.386849011417	0
5	533	1213.938108252133	0
5	536	1220.894768537029	0
5	539	1246.89843674697	0
5	542	1247.444799322486	0.168473598901
5	545	1266.056222790817	0
5	548	1278.370214318002	0
5	551	1282.066377257918	3.078179314312
5	554	1284.448987743469	0
5	557	1294.136166031973	0
5	560	1301.96258254879	0
5	563	1317.004740683419	0
5	566	1321.089472312076	0
5	569	1327.240403897141	0
5	575	1339.31192988468	0
5	578	1344.089152158986	0
5	581	1354.139097917223	0
5	589	1364.032104050904	6.441416664981
5	590	1364.649488069997	2.247847752611
5	593	1370.548662839093	0
5	596	1393.477834516225	0
5	599	1394.357009853883	0
5	602	1399.467597341814	0
5	605	1409.444819982285	0
5	611	1413.916469106427	0
5	617	1449.361086328333	6.518186561631
5	626	1466.981461513805	6.736074652127
5	637	1483.582042992274	1.150765706276
5	638	1485.478530013835	2.556060976723
5	644	1505.552821052008	1.54514279466
5	647	1516.603279450633	0
5	650	1520.830688733209	0
5	653	1521.897440116271	0
5	656	1534.041056993256	0
5	665	1567.933072131845	0
5	671	1575.426811134132	0
5	674	1577.614321941095	0
5	677	1588.382349111459	0
5	680	1604.98445020996	0
5	683	1608.10816906207	0
5	686	1611.611585584382	0
5	689	1620.970579796187	0
5	697	1632.542187791374	3.525946621778
5	698	1632.672726433083	3.162929644127
5	714	1668.340439789491	23.232846341285
5	715	1669.655562169317	12.657105923463
5	716	1669.850032699652	2.464720453507
5	719	1670.941665386543	0
5	722	1677.340756018396	0
5	728	1679.151605878875	0
5	739	1705.528400955309	7.028968501281
5	740	1707.005637720265	4.467761969052
5	748	1714.34105433376	4.317854700968
5	749	1714.770966077494	2.939287091225
5	752	1715.794270075167	0
5	758	1740.885426651111	0.482616355664
5	761	1746.515230778877	4.883514900713
5	764	1754.371851842985	0
5	767	1757.712952114246	0
5	790	1841.102952863946	37.539321285553
5	791	1841.889796553237	37.187675390123
5	794	1844.576245147409	30.630626813903
5	795	1845.384404850507	30.194465708266
5	796	1845.667531886139	15.666654096386
5	797	1846.694446440854	2.60720388158
5	806	1865.352465476735	0
5	818	1883.917001060696	0.307579785332
5	821	1885.977274496929	0
5	824	1888.740205947687	2.401093104613
5	830	1925.322903074237	0
5	833	1926.617656675168	0
5	839	1946.480143467533	0.027625221504
5	845	1971.223281072027	2.60594998341
5	854	1985.137222768579	1.363038494614
5	857	1991.012150132266	0
5	860	1995.96333466045	0
5	869	2021.788839862228	0
5	872	2027.965610252793	0
5	875	2036.670246191136	0
5	878	2038.612038391061	0
5	891	2070.210194896341	16.758802972702
5	892	2070.921668307297	11.201295330076
5	895	2072.094384629671	6.880479651272
5	896	2072.672047725885	1.712035946672
5	912	2104.992143675572	16.575846486331
5	913	2106.16501122799	11.60986208075
5	914	2107.980282395094	8.557222737125
5	917	2109.526301819064	0
5	920	2113.901216392289	0
5	934	2158.802554833642	6.065232392042
5	935	2159.546514860888	1.221656687242
5	938	2170.032935115697	0
5	946	2178.029613062688	2.970332242812
5	947	2178.958089073698	3.064228318338
5	956	2194.513301538501	0
5	959	2197.181186761374	0
5	962	2201.862421686758	0
5	965	2205.989717082358	0
5	968	2210.635198036061	0
5	971	2215.605995918517	0
5	974	2220.983562150837	0
5	977	2237.146804838887	0
5	980	2242.672738216294	0
5	983	2243.2921373208	0.080944382121
5	986	2254.082127145278	0
5	991	2258.007401669491	2.73122240862
5	992	2258.145181589342	0.764558009288
5	998	2265.712071714624	0
5	1001	2278.530645851194	0
5	1004	2279.708024714756	0.334689673367
5	1007	2282.299088262717	0
5	1010	2288.557943251978	0
5	1019	2321.438632138943	0
5	1022	2332.743083346899	0
5	1025	2334.166339972331	0
5	1028	2335.48522799005	1.24339378087
5	1031	2350.681956625492	0
5	1034	2362.032617962155	0
5	1043	2375.657852537123	9.240255538732
5	1054	2399.241094336128	16.627743529262
5	1055	2399.278397436454	15.780686738472
5	1058	2419.292970577924	0
5	1066	2440.412170163124	20.347376294335
5	1067	2440.942094954696	8.51240946235
5	1070	2452.103637946343	0
6	135	355.64877000227	26
6	138	373.361740477136	27
6	150	393.75029794062	28
6	177	458.07011614108	29
6	178	458.624770755744	30
6	181	460.617665074666	31
6	184	464.029286610033	32
6	185	465.452011949472	33
6	186	465.783355750564	34
6	192	469.942739475856	35
6	193	471.366954005154	36
6	196	474.393869249278	37
6	197	475.085970923436	38
6	200	475.57088521628	39
6	201	475.914875627327	40
6	204	495.113817315202	41
6	207	498.557272568542	42
6	235	582.750101073941	43
6	236	584.835662045205	44
6	237	585.151290705255	45
6	242	608.553561780588	46
6	245	610.478415265556	47
6	246	613.623879101514	48
6	249	627.10940044587	49
6	255	631.05323367465	50
6	263	644.030976344148	51
6	264	644.29571454535	52
6	267	654.120767407768	53
6	270	656.620837409855	54
6	282	674.788478377485	55
6	285	695.424133747209	56
6	288	701.871050973591	57
6	291	706.314847736807	58
6	299	715.814746223729	59
6	300	716.301551606635	60
6	303	727.436452807332	61
6	306	736.551964001255	62
6	312	751.38465055345	63
6	315	762.821847553472	64
6	318	766.560777782104	65
6	321	769.051945757092	66
6	324	769.480747181256	67
6	327	788.879908886221	68
6	333	803.887137401921	69
6	336	816.535534104551	70
6	344	829.340321561421	71
6	345	830.757125370169	72
6	350	834.022189135803	73
6	351	834.530225848474	74
6	354	840.520376642516	75
6	357	846.660373089452	76
6	360	849.057846028739	77
6	363	855.405391897857	78
6	366	858.29334856816	79
6	369	871.802024623564	80
6	377	884.083448325385	81
6	378	886.940557905904	82
6	391	896.776836973141	83
6	392	897.517809838693	84
6	393	899.179370611239	85
6	399	908.536945006468	86
6	409	920.398207330307	87
6	415	938.733731336465	88
6	416	940.065911224805	89
6	417	940.308732629097	90
6	420	941.02952535368	91
6	425	955.160328357669	92
6	426	956.922440446438	93
6	429	959.647832152135	94
6	435	969.264516327803	95
6	438	971.843992547213	96
6	444	990.323657022847	97
6	454	995.084009814795	98
6	455	997.270194539404	99
6	456	997.299414776073	100
6	459	1009.514962957842	101
6	462	1013.296790920779	102
6	470	1019.866635269909	103
6	471	1021.113988641074	104
6	474	1033.825221247862	105
6	477	1038.163051239035	106
6	480	1055.697272679277	107
6	489	1092.602554981682	108
6	492	1102.690924685801	109
6	495	1106.040426525858	110
6	501	1114.205145720495	111
6	504	1148.403038272595	112
6	514	1170.408879476891	113
6	515	1171.317480659184	114
6	516	1172.210195889515	115
6	519	1173.584809377525	116
6	524	1180.604984653116	117
6	525	1180.750042401007	118
6	528	1187.783961478663	119
6	534	1214.949466772893	120
6	537	1222.527524489956	121
6	542	1247.444799322486	122
6	543	1249.041581857857	123
6	546	1266.413671198578	124
6	552	1282.813526172276	125
6	555	1287.410989298003	126
6	558	1294.416028744578	127
6	561	1303.122660027014	128
6	564	1318.715969050463	129
6	567	1322.390643456789	130
6	570	1327.870766320122	131
6	576	1339.809578363605	132
6	579	1345.4328036954	133
6	582	1354.223324199173	134
6	590	1364.649488069997	135
6	591	1365.142923780311	136
6	594	1372.54439397984	137
6	597	1393.588611425587	138
6	600	1395.568223113389	139
6	603	1402.580327482705	140
6	606	1409.62871285494	141
6	612	1415.178087403448	142
6	618	1449.558618754658	143
6	627	1467.451262281711	144
6	638	1485.478530013835	145
6	639	1488.430596435011	146
6	645	1506.007128115666	147
6	648	1516.872606292942	148
6	651	1521.310395505614	149
6	654	1523.101050145306	150
6	657	1534.083137581338	151
6	666	1569.2064076792	152
6	672	1576.432378740096	153
6	675	1578.068430238165	154
6	678	1590.012900080889	155
6	681	1605.014694372771	156
6	684	1610.384237825205	157
6	687	1612.167534408768	158
6	690	1621.187199037634	159
6	698	1632.672726433083	160
6	699	1634.62003407055	161
6	715	1669.655562169317	162
6	716	1669.850032699652	163
6	717	1670.3283127448	164
6	720	1671.409305568374	165
6	723	1677.590389078091	166
6	729	1679.633323873079	167
6	740	1707.005637720265	168
6	741	1707.85110896244	169
6	749	1714.770966077494	170
6	750	1715.486638478434	171
6	753	1717.362266542543	172
6	762	1746.528714102252	173
6	765	1754.751375065958	174
6	768	1758.45361594382	175
6	791	1841.889796553237	176
6	794	1844.576245147409	177
6	795	1845.384404850507	178
6	796	1845.667531886139	179
6	797	1846.694446440854	180
6	798	1846.92802304178	181
6	807	1865.628340017599	182
6	819	1885.609985756739	183
6	824	1888.740205947687	184
6	825	1889.102420478812	185
6	831	1926.358210834871	186
6	834	1927.742794852941	187
6	840	1946.724527724805	188
6	846	1973.795813762114	189
6	855	1986.290029128118	190
6	858	1991.08468793951	191
6	861	1996.742280702543	192
6	870	2023.311043021756	193
6	873	2028.486374479475	194
6	876	2036.705980100818	195
6	879	2039.178038515953	196
6	892	2070.921668307297	197
6	895	2072.094384629671	198
6	896	2072.672047725885	199
6	897	2073.31140523664	200
6	913	2106.16501122799	201
6	914	2107.980282395094	202
6	915	2109.490991568182	203
6	918	2109.665228275738	204
6	921	2113.949597228512	205
6	935	2159.546514860888	206
6	936	2159.624002138335	207
6	939	2170.051147552946	208
6	947	2178.958089073698	209
6	948	2180.591333250376	210
6	957	2195.75931236364	211
6	960	2199.479721106582	212
6	963	2202.025852265245	213
6	966	2206.340441709243	214
6	969	2211.589096090775	215
6	972	2215.86302497215	216
6	975	2221.14708273979	217
6	978	2239.251091924106	218
6	983	2243.2921373208	219
6	984	2243.823389892953	220
6	991	2258.007401669491	221
6	992	2258.145181589342	222
6	993	2260.000003283911	223
6	999	2267.877533920643	224
6	1004	2279.708024714756	225
6	1005	2279.954033016853	226
6	1008	2282.920471080486	227
6	1011	2289.509517462562	228
6	1020	2323.92482305938	229
6	1023	2333.327742839165	230
6	1028	2335.48522799005	231
6	1029	2336.884346876361	232
6	1032	2350.684059338181	233
6	1035	2362.644183326589	234
6	1044	2376.775431310408	235
6	1055	2399.278397436454	236
6	1056	2400.142916823554	237
6	1067	2440.942094954696	238
6	1068	2441.59411080263	239
6	1071	2452.526768661168	240
7	135	355.64877000227	1.476262174463
7	138	373.361740477136	0.196166550123
7	150	393.75029794062	0.470459429988
7	177	458.07011614108	49.862838789657
7	178	458.624770755744	46.626473305634
7	181	460.617665074666	48.245834255096
7	184	464.029286610033	27.955885737089
7	185	465.452011949472	28.137778133966
7	186	465.783355750564	28.455402803751
7	192	469.942739475856	10.132286501073
7	193	471.366954005154	8.822413882096
7	196	474.393869249278	7.288716541224
7	197	475.085970923436	6.10691587637
7	200	475.57088521628	3.650723081778
7	201	475.914875627327	0.819467009029
7	204	495.113817315202	0.525462777457
7	207	498.557272568542	0.843721951954
7	235	582.750101073941	55.123325988567
7	236	584.835662045205	13.692446643919
7	237	585.151290705255	5.759858449174
7	242	608.553561780588	2.609986985389
7	245	610.478415265556	2.565191721915
7	246	613.623879101514	3.665931558438
7	249	627.10940044587	2.443733629731
7	255	631.05323367465	0.346381810209
7	263	644.030976344148	5.808437067583
7	264	644.29571454535	0.878446647508
7	267	654.120767407768	0.727052599833
7	270	656.620837409855	0.310568462516
7	282	674.788478377485	0.183725463785
7	285	695.424133747209	0.089019358015
7	288	701.871050973591	0.354808528928
7	291	706.314847736807	1.389721898246
7	299	715.814746223729	3.773546545781
7	300	716.301551606635	0.63738183002
7	303	727.436452807332	0.396325866421
7	306	736.551964001255	0.933075245408
7	312	751.38465055345	5.245060613969
7	315	762.821847553472	0.177757837227
7	318	766.560777782104	0.786070595182
7	321	769.051945757092	0.513314442551
7	324	769.480747181256	0.245134674408
7	327	788.879908886221	1.631549562385
7	333	803.887137401921	1.878988161657
7	336	816.535534104551	0.77851038001
7	344	829.340321561421	6.48003722955
7	345	830.757125370169	2.620290143938
7	350	834.022189135803	1.892415821615
7	351	834.530225848474	1.467761216122
7	354	840.520376642516	0.311321707265
7	357	846.660373089452	1.616793587369
7	360	849.057846028739	0.954056739804
7	363	855.405391897857	1.887824465727
7	366	858.29334856816	1.057727785134
7	369	871.802024623564	0.085883576537
7	377	884.083448325385	2.509467124433
7	378	886.940557905904	3.144161955439
7	391	896.776836973141	4.828426998278
7	392	897.517809838693	5.066544497378
7	393	899.179370611239	2.892347503216
7	399	908.536945006468	0.948505772225
7	409	920.398207330307	7.878650024684
7	415	938.733731336465	23.030262257063
7	416	940.065911224805	19.294308573691
7	417	940.308732629097	8.681123549888
7	420	941.02952535368	0.67340774
7	425	955.160328357669	2.233655161336
7	426	956.922440446438	2.232825131406
7	429	959.647832152135	1.457888975985
7	435	969.264516327803	1.958211823812
7	438	971.843992547213	0.550472163991
7	444	990.323657022847	1.553270924396
7	454	995.084009814795	3.090319081567
7	455	997.270194539404	3.677557550741
7	456	997.299414776073	2.238528321293
7	459	1009.514962957842	1.200182642207
7	462	1013.296790920779	0.330576309877
7	470	1019.866635269909	1.647059492588
7	471	1021.113988641074	2.735742234962
7	474	1033.825221247862	0.365161090335
7	477	1038.163051239035	0.475950537807
7	480	1055.697272679277	1.715267448996
7	489	1092.602554981682	5.483195269816
7	492	1102.690924685801	0.150433025192
7	495	1106.040426525858	1.320187739693
7	501	1114.205145720495	0.512988796041
7	504	1148.403038272595	0.329106310856
7	514	1170.408879476891	11.413935973584
7	515	1171.317480659184	11.447509442095
7	516	1172.210195889515	1.939603033288
7	519	1173.584809377525	0.698663460638
7	524	1180.604984653116	2.17391098008
7	525	1180.750042401007	0.569781867122
7	528	1187.783961478663	0.397112467246
7	534	1214.949466772893	1.01135852076
7	537	1222.527524489956	1.632755952927
7	542	1247.444799322486	0.546362575516
7	543	1249.041581857857	1.765256134272
7	546	1266.413671198578	0.357448407761
7	552	1282.813526172276	3.82532822867
7	555	1287.410989298003	2.962001554534
7	558	1294.416028744578	0.279862712605
7	561	1303.122660027014	1.160077478224
7	564	1318.715969050463	1.711228367044
7	567	1322.390643456789	1.301171144713
7	570	1327.870766320122	0.630362422981
7	576	1339.809578363605	0.497648478925
7	579	1345.4328036954	1.343651536414
7	582	1354.223324199173	0.08422628195
7	590	1364.649488069997	7.058800684074
7	591	1365.142923780311	2.741283462925
7	594	1372.54439397984	1.995731140747
7	597	1393.588611425587	0.110776909362
7	600	1395.568223113389	1.211213259506
7	603	1402.580327482705	3.112730140891
7	606	1409.62871285494	0.183892872655
7	612	1415.178087403448	1.261618297021
7	618	1449.558618754658	6.715718987956
7	627	1467.451262281711	7.205875420033
7	638	1485.478530013835	3.047252727837
7	639	1488.430596435011	5.508127397899
7	645	1506.007128115666	1.999449858318
7	648	1516.872606292942	0.269326842309
7	651	1521.310395505614	0.479706772405
7	654	1523.101050145306	1.203610029035
7	657	1534.083137581338	0.042080588082
7	666	1569.2064076792	1.273335547355
7	672	1576.432378740096	1.005567605964
7	675	1578.068430238165	0.45410829707
7	678	1590.012900080889	1.63055096943
7	681	1605.014694372771	0.030244162811
7	684	1610.384237825205	2.276068763135
7	687	1612.167534408768	0.555948824386
7	690	1621.187199037634	0.216619241447
7	698	1632.672726433083	3.656485263487
7	699	1634.62003407055	5.110237281594
7	715	1669.655562169317	24.547968721111
7	716	1669.850032699652	12.851576453798
7	717	1670.3283127448	2.943000498655
7	720	1671.409305568374	0.467640181831
7	723	1677.590389078091	0.249633059695
7	729	1679.633323873079	0.481717994204
7	740	1707.005637720265	8.506205266237
7	741	1707.85110896244	5.313233211227
7	749	1714.770966077494	4.747766444702
7	750	1715.486638478434	3.654959492165
7	753	1717.362266542543	1.567996467376
7	762	1746.528714102252	4.896998224088
7	765	1754.751375065958	0.379523222973
7	768	1758.45361594382	0.740663829574
7	791	1841.889796553237	38.326164974844
7	794	1844.576245147409	39.874123984295
7	795	1845.384404850507	31.438786517001
7	796	1845.667531886139	30.477592743898
7	797	1846.694446440854	16.693568651101
7	798	1846.92802304178	2.840780482506
7	807	1865.628340017599	0.275874540864
7	819	1885.609985756739	2.000564481375
7	824	1888.740205947687	2.762931450758
7	825	1889.102420478812	2.763307635738
7	831	1926.358210834871	1.035307760634
7	834	1927.742794852941	1.125138177773
7	840	1946.724527724805	0.272009478776
7	846	1973.795813762114	5.178482673497
7	855	1986.290029128118	2.515844854153
7	858	1991.08468793951	0.072537807244
7	861	1996.742280702543	0.778946042093
7	870	2023.311043021756	1.522203159528
7	873	2028.486374479475	0.520764226682
7	876	2036.705980100818	0.035733909682
7	879	2039.178038515953	0.566000124892
7	892	2070.921668307297	17.470276383658
7	895	2072.094384629671	12.37401165245
7	896	2072.672047725885	7.458142747486
7	897	2073.31140523664	2.351393457427
7	913	2106.16501122799	17.748714038749
7	914	2107.980282395094	13.425133247854
7	915	2109.490991568182	10.067931910213
7	918	2109.665228275738	0.138926456674
7	921	2113.949597228512	0.048380836223
7	935	2159.546514860888	6.809192419288
7	936	2159.624002138335	1.299143964689
7	939	2170.051147552946	0.018212437249
7	947	2178.958089073698	3.898808253822
7	948	2180.591333250376	4.697472495016
7	957	2195.75931236364	1.246010825139
7	960	2199.479721106582	2.298534345208
7	963	2202.025852265245	0.163430578487
7	966	2206.340441709243	0.350724626885
7	969	2211.589096090775	0.953898054714
7	972	2215.86302497215	0.257029053633
7	975	2221.14708273979	0.163520588953
7	978	2239.251091924106	2.104287085219
7	983	2243.2921373208	0.619399104506
7	984	2243.823389892953	0.612196954274
7	991	2258.007401669491	3.925274524213
7	992	2258.145181589342	2.869002328471
7	993	2260.000003283911	2.619379703857
7	999	2267.877533920643	2.165462206019
7	1004	2279.708024714756	1.177378863562
7	1005	2279.954033016853	0.580697975464
7	1008	2282.920471080486	0.621382817769
7	1011	2289.509517462562	0.951574210584
7	1020	2323.92482305938	2.486190920437
7	1023	2333.327742839165	0.584659492266
7	1028	2335.48522799005	1.318888017719
7	1029	2336.884346876361	2.642512667181
7	1032	2350.684059338181	0.002102712689
7	1035	2362.644183326589	0.611565364434
7	1044	2376.775431310408	10.357834312017
7	1055	2399.278397436454	16.665046629588
7	1056	2400.142916823554	16.645206125572
7	1067	2440.942094954696	20.877301085907
7	1068	2441.59411080263	9.164425310284
7	1071	2452.526768661168	0.423130714825
8	140	381.910508285344	1
8	142	382.12216177113	2
8	146	385.458599038288	1
8	152	401.932998597983	1
8	154	404.293112790177	2
8	169	437.903864460807	2
8	171	439.767450543379	3
8	188	467.105152708054	1
8	209	507.778352471988	1
8	211	511.970843354015	2
8	213	523.641403692857	3
8	215	523.764599663184	4
8	217	526.525142992614	5
8	224	556.097184880185	3
8	228	564.45633319999	2
8	251	627.778284939314	1
8	259	638.222539276565	1
8	272	662.431607004495	1
8	274	662.436923341715	2
8	278	669.501349085891	1
8	295	712.041199677948	1
8	308	741.260931673624	1
8	329	799.551242766425	1
8	340	822.860284331871	1
8	371	877.543810870645	1
8	380	887.337605029767	1
8	383	888.487505027603	1
8	397	907.588439234243	1
8	401	909.614822051967	1
8	411	920.771602651114	1
8	431	964.27347470108	1
8	440	981.828805080065	1
8	448	991.993690733228	1
8	464	1016.249624094874	1
8	482	1077.928705248913	1
8	484	1080.302015026252	2
8	497	1107.584578418003	1
8	506	1158.933809594803	1
8	530	1188.996723057024	1
8	550	1278.988197943606	1
8	572	1331.699076905576	1
8	584	1354.3265869964	1
8	608	1410.690821772367	1
8	614	1442.401810080516	1
8	620	1458.263650676793	1
8	622	1458.853799594753	2
8	629	1474.67750170795	1
8	632	1478.591938273987	1
8	641	1499.350124495382	1
8	659	1540.927398831871	1
8	662	1543.83572861612	1
8	668	1571.160236717777	1
8	692	1627.011532211296	1
8	701	1641.200728983196	1
8	705	1649.139788179428	2
8	708	1651.886764969815	2
8	725	1677.97722850772	1
8	731	1691.221218932796	1
8	734	1695.469903337416	1
8	743	1709.973952942435	1
8	755	1734.173751778239	1
8	760	1741.631715878164	1
8	770	1795.251777029999	1
8	772	1796.186514870931	2
8	778	1810.233699922377	3
8	785	1821.747407345427	3
8	800	1852.560548192826	1
8	803	1854.576513861016	1
8	809	1868.175832967458	1
8	812	1869.101112407136	1
8	815	1883.079443135498	1
8	827	1906.172223784969	1
8	836	1929.509174591028	1
8	842	1967.343964080476	1
8	848	1979.682068380707	1
8	851	1982.357432335051	1
8	863	2003.786686497585	1
8	866	2006.5504223079	1
8	881	2040.249635521158	1
8	884	2053.063007369747	1
8	899	2076.247451695774	1
8	902	2080.649378436169	1
8	904	2086.329528345313	2
8	923	2116.760152658708	1
8	926	2130.649701280081	1
8	929	2149.349687489204	1
8	941	2171.319197265902	1
8	950	2183.040962897326	1
8	952	2183.478361293144	2
8	995	2263.858396856056	1
8	1013	2294.457992447564	1
8	1016	2319.143568197383	1
8	1037	2364.097716176362	1
8	1041	2369.034416376807	2
8	1046	2379.332298766566	1
8	1050	2382.99845866801	2
8	1060	2420.064793868789	1
8	1064	2435.541766541786	2
8	1073	2461.309526535168	1
8	1076	2468.83020005602	1
8	1079	2471.034788360199	1
9	140	381.910508285344	0
9	143	384.971039197779	2.848877426649
9	146	385.458599038288	0
9	152	401.932998597983	0
9	161	413.7824323843	9.489319594123
9	172	445.49160086173	7.587736400923
9	175	457.384619861621	17.617169318242
9	188	467.105152708054	0
9	209	507.778352471988	0
9	220	528.281371041501	16.310527687486
9	221	533.179554435613	9.538150742756
9	222	536.167227012591	12.402627349407
9	225	557.266926190985	30.741783198371
9	226	563.56064843232	7.463463552135
9	231	573.817794461848	9.361461261858
9	251	627.778284939314	0
9	259	638.222539276565	0
9	272	662.431607004495	0
9	275	664.352179951255	1.91525660954
9	278	669.501349085891	0
9	295	712.041199677948	0
9	308	741.260931673624	0
9	329	799.551242766425	0
9	340	822.860284331871	0
9	371	877.543810870645	0
9	380	887.337605029767	0
9	383	888.487505027603	0
9	397	907.588439234243	0
9	401	909.614822051967	0
9	411	920.771602651114	0
9	431	964.27347470108	0
9	440	981.828805080065	0
9	448	991.993690733228	0
9	464	1016.249624094874	0
9	482	1077.928705248913	0
9	487	1089.353087055494	9.051072029242
9	497	1107.584578418003	0
9	506	1158.933809594803	0
9	530	1188.996723057024	0
9	550	1278.988197943606	0
9	572	1331.699076905576	0
9	584	1354.3265869964	0
9	608	1410.690821772367	0
9	614	1442.401810080516	0
9	620	1458.263650676793	0
9	625	1466.283209009988	7.429409415235
9	629	1474.67750170795	0
9	632	1478.591938273987	0
9	641	1499.350124495382	0
9	659	1540.927398831871	0
9	662	1543.83572861612	0
9	668	1571.160236717777	0
9	692	1627.011532211296	0
9	701	1641.200728983196	0
9	706	1650.985624075942	1.845835896514
9	711	1664.906565313518	13.019800343703
9	725	1677.97722850772	0
9	731	1691.221218932796	0
9	734	1695.469903337416	0
9	743	1709.973952942435	0
9	755	1734.173751778239	0
9	760	1741.631715878164	0
9	770	1795.251777029999	0
9	781	1814.16435191181	17.977837040879
9	786	1822.334657476856	12.100957554479
9	789	1835.236298225579	13.488890880152
9	800	1852.560548192826	0
9	803	1854.576513861016	0
9	809	1868.175832967458	0
9	812	1869.101112407136	0
9	815	1883.079443135498	0
9	827	1906.172223784969	0
9	836	1929.509174591028	0
9	842	1967.343964080476	0
9	848	1979.682068380707	0
9	851	1982.357432335051	0
9	863	2003.786686497585	0
9	866	2006.5504223079	0
9	881	2040.249635521158	0
9	884	2053.063007369747	0
9	899	2076.247451695774	0
9	902	2080.649378436169	0
9	907	2093.402430249246	7.072901903933
9	923	2116.760152658708	0
9	926	2130.649701280081	0
9	929	2149.349687489204	0
9	941	2171.319197265902	0
9	950	2183.040962897326	0
9	953	2192.713321185297	9.234959892153
9	995	2263.858396856056	0
9	1013	2294.457992447564	0
9	1016	2319.143568197383	0
9	1037	2364.097716176362	0
9	1042	2372.209816886562	3.175400509755
9	1046	2379.332298766566	0
9	1053	2387.626387864249	4.627929196239
9	1060	2420.064793868789	0
9	1065	2439.534449033754	3.992682491968
9	1073	2461.309526535168	0
9	1076	2468.83020005602	0
9	1079	2471.034788360199	0
10	188	467.105152708054	2
10	259	638.222539276565	3
10	295	712.041199677948	4
10	340	822.860284331871	5
10	397	907.588439234243	6
10	411	920.771602651114	7
10	448	991.993690733228	8
10	550	1278.988197943606	9
10	760	1741.631715878164	10
10	1060	2420.064793868789	11
11	1081	2500	0.096
12	1081	2500	0.048

