version 2
run experiments_easy_game_mode1-502-20230308-12:03:39-20919
attr configname experiments_easy_game_mode1
attr datetime 20230308-12:03:39
attr experiment experiments_easy_game_mode1
attr inifile omnetpp.ini
attr iterationvars "$0=5.5, $1=2, $2=0"
attr iterationvarsf 5.5,2,0-
attr measurement "$0=5.5, $1=2, $2=0"
attr network Network
attr processid 20919
attr repetition 22
attr replication #22
attr resultdir results
attr runnumber 502
attr seedset 22
param *.boss.arrival_mean 20
param *.boss.service_mean 5.5
param *.minion.arrival_mean 10
param *.minion.service_mean 2
param *.player.recover_rate_x 0
param **.minion.arrival_distribution 0
param **.minion.service_distribution 0
param **.boss.arrival_distribution 0
param **.boss.service_distribution 0

vector 0 Network.player boss_jobs_number_stat:vector ETV
attr source signal_boss_jobs_number
vector 1 Network.player boss_jobs_queue_number_stat:vector ETV
attr source signal_boss_jobs_queue_number
vector 2 Network.player boss_waiting_time_stat:vector ETV
attr source signal_boss_waiting_time
vector 3 Network.player minion_jobs_number_stat:vector ETV
attr source signal_minion_jobs_number
vector 4 Network.player minion_jobs_queue_number_stat:vector ETV
attr source signal_minion_jobs_queue_number
vector 5 Network.player boss_defeated_stat:vector ETV
attr source signal_boss_defeated
vector 6 Network.player boss_response_time_stat:vector ETV
attr source signal_boss_response_time
vector 7 Network.player minion_waiting_time_stat:vector ETV
attr source signal_minion_waiting_time
vector 8 Network.player minion_defeated_stat:vector ETV
attr source signal_minion_defeated
vector 9 Network.player minion_response_time_stat:vector ETV
attr source signal_minion_response_time
vector 10 Network.player minion_recovered_stat:vector ETV
attr source signal_minion_recovered
vector 11 Network.player minion_throughput:vector ETV
attr source signal_minion_throughput
vector 12 Network.player boss_throughput:vector ETV
attr source signal_boss_throughput
0	149	352.732720250375	1
0	151	355.433047855263	2
0	170	372.773431743755	1
0	180	389.911696294157	2
0	191	409.20090723275	1
0	196	419.115805167906	1
0	203	428.285912979846	1
0	206	432.020690320547	1
0	212	437.993320757065	1
0	222	448.984162645259	1
0	229	453.306284690797	1
0	251	510.387125889854	1
0	257	526.46961230785	1
0	261	533.563355917929	2
0	272	568.494963728278	1
0	275	577.631216787148	1
0	287	591.632646903891	1
0	293	601.54926800305	1
0	302	624.816116876814	1
0	305	640.060494979796	1
0	311	668.565266190094	1
0	335	746.322986805191	1
0	346	766.884422485837	1
0	353	769.669052624047	1
0	359	779.391853016187	1
0	367	815.902299426086	1
0	372	817.572190500044	1
0	374	818.393229417335	2
0	392	851.345356059816	1
0	416	906.013461760535	1
0	434	939.383849919173	1
0	440	955.915434262725	1
0	442	956.958761290858	2
0	444	957.461455670674	3
0	452	975.50190493379	1
0	460	986.879967410732	1
0	494	1055.885023117775	1
0	500	1059.630242846955	2
0	527	1145.316987997786	1
0	539	1165.70992133794	1
0	563	1199.983447462322	1
0	573	1227.224402541465	1
0	578	1250.640409287308	1
0	580	1253.598628145409	2
0	584	1273.121481900732	1
0	587	1278.10411848818	1
0	600	1296.391501752732	1
0	623	1373.490195164909	1
0	632	1396.378671918339	1
0	635	1404.998596004887	1
0	641	1441.491428769926	1
0	656	1500.224709875965	1
0	668	1512.548829056849	1
0	674	1521.35570542557	1
0	683	1537.225514547729	1
0	695	1568.230041862579	1
0	710	1630.928663981691	1
0	749	1737.19410452424	1
0	753	1743.875031036989	2
0	760	1764.137385416466	1
0	768	1777.384326312965	2
0	771	1784.016498561004	2
0	788	1817.563950498099	1
0	793	1831.000081940892	1
0	800	1849.6697379151	1
0	802	1850.828071912874	2
0	815	1870.994647250275	1
0	821	1893.698305662355	1
0	826	1904.479950762439	1
0	828	1904.750086054783	2
0	842	1935.146117081951	1
0	858	1974.554008801891	1
0	863	1981.808488126002	1
0	866	1986.362462881426	1
0	881	2014.879474030786	1
0	905	2072.110436258973	1
0	907	2082.323736446278	2
0	920	2102.142222095481	1
0	923	2130.15466470212	1
0	940	2151.655274757864	1
0	950	2170.100655578106	1
0	956	2177.404956811009	1
0	962	2189.05207409054	2
0	966	2191.23146393384	3
0	976	2209.341922937825	1
0	979	2218.118859979382	1
0	986	2267.984510232703	1
0	992	2295.117984520488	1
0	1004	2341.666917677911	1
0	1007	2343.790800771955	1
0	1013	2361.192018666655	1
0	1016	2371.777703174319	1
0	1046	2425.669696899728	1
0	1048	2426.874752860027	2
0	1052	2450.298982238692	1
0	1073	2486.924382343612	1
1	149	352.732720250375	0
1	151	355.433047855263	1
1	154	358.162617602767	1
1	159	360.922830431956	0
1	170	372.773431743755	0
1	180	389.911696294157	1
1	181	399.52962521083	1
1	182	400.73364044599	0
1	191	409.20090723275	0
1	192	409.636366619946	0
1	196	419.115805167906	0
1	199	422.505892525648	0
1	203	428.285912979846	0
1	204	430.593028754721	0
1	206	432.020690320547	0
1	209	432.605203667792	0
1	212	437.993320757065	0
1	213	440.009798037887	0
1	222	448.984162645259	0
1	227	451.248869884121	0
1	229	453.306284690797	0
1	232	460.118476041538	0
1	251	510.387125889854	0
1	252	513.794876707278	0
1	257	526.46961230785	0
1	261	533.563355917929	1
1	262	540.179725387191	1
1	263	544.293442477686	0
1	272	568.494963728278	0
1	273	568.958985734479	0
1	275	577.631216787148	0
1	278	581.652514192437	0
1	287	591.632646903891	0
1	288	591.989564076633	0
1	293	601.54926800305	0
1	294	607.42416420959	0
1	302	624.816116876814	0
1	303	629.615837911279	0
1	305	640.060494979796	0
1	308	645.171347195689	0
1	311	668.565266190094	0
1	312	674.649563880947	0
1	335	746.322986805191	0
1	336	746.541884458391	0
1	346	766.884422485837	0
1	347	766.936041587613	0
1	353	769.669052624047	0
1	354	770.559859923047	0
1	359	779.391853016187	0
1	360	782.406152289457	0
1	367	815.902299426086	0
1	368	816.713241242724	0
1	372	817.572190500044	0
1	374	818.393229417335	1
1	375	820.339647630002	1
1	378	826.107440066327	0
1	392	851.345356059816	0
1	393	851.763476327979	0
1	416	906.013461760535	0
1	417	913.942869603809	0
1	434	939.383849919173	0
1	435	947.474204883242	0
1	440	955.915434262725	0
1	442	956.958761290858	1
1	444	957.461455670674	2
1	445	965.239220240706	2
1	446	966.393836864514	1
1	449	973.812819299705	0
1	452	975.50190493379	0
1	453	978.973099912757	0
1	460	986.879967410732	0
1	461	991.477725073554	0
1	494	1055.885023117775	0
1	500	1059.630242846955	1
1	501	1061.686590468829	1
1	508	1068.48496496559	0
1	527	1145.316987997786	0
1	528	1145.362053626024	0
1	539	1165.70992133794	0
1	540	1166.104664710139	0
1	563	1199.983447462322	0
1	564	1200.370623557264	0
1	573	1227.224402541465	0
1	574	1229.492957673967	0
1	578	1250.640409287308	0
1	580	1253.598628145409	1
1	581	1258.197903352588	1
1	582	1271.966615576844	0
1	584	1273.121481900732	0
1	585	1274.063886356439	0
1	587	1278.10411848818	0
1	588	1279.664861182284	0
1	600	1296.391501752732	0
1	601	1300.600626496151	0
1	623	1373.490195164909	0
1	624	1377.338385133613	0
1	632	1396.378671918339	0
1	633	1402.581929845801	0
1	635	1404.998596004887	0
1	636	1424.084861616067	0
1	641	1441.491428769926	0
1	642	1445.523165740561	0
1	656	1500.224709875965	0
1	659	1506.151149698785	0
1	668	1512.548829056849	0
1	669	1516.57879230483	0
1	674	1521.35570542557	0
1	675	1523.40181927005	0
1	683	1537.225514547729	0
1	684	1540.673536067968	0
1	695	1568.230041862579	0
1	696	1569.75447602699	0
1	710	1630.928663981691	0
1	711	1632.471806806884	0
1	749	1737.19410452424	0
1	753	1743.875031036989	1
1	754	1746.359361121552	1
1	755	1759.6979856033	0
1	760	1764.137385416466	0
1	768	1777.384326312965	1
1	769	1783.39682938084	1
1	771	1784.016498561004	1
1	772	1784.02341142361	1
1	775	1792.820414009133	0
1	788	1817.563950498099	0
1	789	1821.179180520694	0
1	793	1831.000081940892	0
1	796	1833.669427232875	0
1	800	1849.6697379151	0
1	802	1850.828071912874	1
1	805	1857.266040060042	1
1	806	1859.510026179552	0
1	815	1870.994647250275	0
1	816	1873.668303773102	0
1	821	1893.698305662355	0
1	822	1894.666792537301	0
1	826	1904.479950762439	0
1	828	1904.750086054783	1
1	831	1912.147434026255	1
1	834	1912.789686802688	0
1	842	1935.146117081951	0
1	843	1942.986883732228	0
1	858	1974.554008801891	0
1	859	1976.076601271789	0
1	863	1981.808488126002	0
1	864	1983.676068381018	0
1	866	1986.362462881426	0
1	867	1988.607138909535	0
1	881	2014.879474030786	0
1	882	2021.034606964993	0
1	905	2072.110436258973	0
1	907	2082.323736446278	1
1	908	2090.608059242947	1
1	909	2091.669931703462	0
1	920	2102.142222095481	0
1	921	2115.522830786127	0
1	923	2130.15466470212	0
1	926	2136.285048176101	0
1	940	2151.655274757864	0
1	943	2155.482074437977	0
1	950	2170.100655578106	0
1	951	2172.035119263329	0
1	956	2177.404956811009	0
1	962	2189.05207409054	1
1	966	2191.23146393384	2
1	969	2196.783012710501	2
1	970	2200.706094751121	1
1	971	2203.988431698282	0
1	976	2209.341922937825	0
1	977	2210.95188969459	0
1	979	2218.118859979382	0
1	980	2222.750046905141	0
1	986	2267.984510232703	0
1	987	2272.153728857116	0
1	992	2295.117984520488	0
1	993	2297.382166364337	0
1	1004	2341.666917677911	0
1	1005	2342.504416499346	0
1	1007	2343.790800771955	0
1	1008	2344.115917330902	0
1	1013	2361.192018666655	0
1	1014	2366.453540890676	0
1	1016	2371.777703174319	0
1	1019	2375.230531402022	0
1	1046	2425.669696899728	0
1	1048	2426.874752860027	1
1	1049	2429.1656118885	1
1	1050	2430.649251686356	0
1	1052	2450.298982238692	0
1	1057	2466.875109606193	0
1	1073	2486.924382343612	0
1	1074	2489.155591909584	0
2	149	352.732720250375	0
2	154	358.162617602767	2.729569747504
2	170	372.773431743755	0
2	181	399.52962521083	9.617928916673
2	191	409.20090723275	0
2	196	419.115805167906	0
2	203	428.285912979846	0
2	206	432.020690320547	0
2	212	437.993320757065	0
2	222	448.984162645259	0
2	229	453.306284690797	0
2	251	510.387125889854	0
2	257	526.46961230785	0
2	262	540.179725387191	6.616369469262
2	272	568.494963728278	0
2	275	577.631216787148	0
2	287	591.632646903891	0
2	293	601.54926800305	0
2	302	624.816116876814	0
2	305	640.060494979796	0
2	311	668.565266190094	0
2	335	746.322986805191	0
2	346	766.884422485837	0
2	353	769.669052624047	0
2	359	779.391853016187	0
2	367	815.902299426086	0
2	372	817.572190500044	0
2	375	820.339647630002	1.946418212667
2	392	851.345356059816	0
2	416	906.013461760535	0
2	434	939.383849919173	0
2	440	955.915434262725	0
2	445	965.239220240706	8.280458949848
2	446	966.393836864514	8.93238119384
2	452	975.50190493379	0
2	460	986.879967410732	0
2	494	1055.885023117775	0
2	501	1061.686590468829	2.056347621874
2	527	1145.316987997786	0
2	539	1165.70992133794	0
2	563	1199.983447462322	0
2	573	1227.224402541465	0
2	578	1250.640409287308	0
2	581	1258.197903352588	4.599275207179
2	584	1273.121481900732	0
2	587	1278.10411848818	0
2	600	1296.391501752732	0
2	623	1373.490195164909	0
2	632	1396.378671918339	0
2	635	1404.998596004887	0
2	641	1441.491428769926	0
2	656	1500.224709875965	0
2	668	1512.548829056849	0
2	674	1521.35570542557	0
2	683	1537.225514547729	0
2	695	1568.230041862579	0
2	710	1630.928663981691	0
2	749	1737.19410452424	0
2	754	1746.359361121552	2.484330084563
2	760	1764.137385416466	0
2	769	1783.39682938084	6.012503067875
2	772	1784.02341142361	0.006912862606
2	788	1817.563950498099	0
2	793	1831.000081940892	0
2	800	1849.6697379151	0
2	805	1857.266040060042	6.437968147168
2	815	1870.994647250275	0
2	821	1893.698305662355	0
2	826	1904.479950762439	0
2	831	1912.147434026255	7.397347971472
2	842	1935.146117081951	0
2	858	1974.554008801891	0
2	863	1981.808488126002	0
2	866	1986.362462881426	0
2	881	2014.879474030786	0
2	905	2072.110436258973	0
2	908	2090.608059242947	8.284322796669
2	920	2102.142222095481	0
2	923	2130.15466470212	0
2	940	2151.655274757864	0
2	950	2170.100655578106	0
2	956	2177.404956811009	0
2	969	2196.783012710501	7.730938619961
2	970	2200.706094751121	9.474630817281
2	976	2209.341922937825	0
2	979	2218.118859979382	0
2	986	2267.984510232703	0
2	992	2295.117984520488	0
2	1004	2341.666917677911	0
2	1007	2343.790800771955	0
2	1013	2361.192018666655	0
2	1016	2371.777703174319	0
2	1046	2425.669696899728	0
2	1049	2429.1656118885	2.290859028473
2	1052	2450.298982238692	0
2	1073	2486.924382343612	0
3	153	357.110273761727	1
3	156	360.782346563254	2
3	158	360.900786523798	3
3	163	365.810453568358	2
3	167	367.412899786366	1
3	172	376.122387271869	1
3	174	384.627559805106	2
3	176	385.834413027814	3
3	178	386.576892817182	4
3	184	401.181908524793	5
3	194	416.321708143119	1
3	198	420.069603263322	2
3	208	432.528569256868	1
3	215	442.913448376436	1
3	218	444.803130129404	1
3	220	445.135584916655	2
3	224	449.401489746978	3
3	226	451.221452777944	4
3	231	454.576488467537	5
3	234	460.202995459364	6
3	238	464.638686879267	5
3	241	467.223887546964	5
3	248	484.831073808571	1
3	254	518.735864083602	1
3	259	529.169429449537	1
3	266	552.701837662188	1
3	268	557.823998198495	2
3	277	577.898028766112	1
3	281	583.100866190608	1
3	283	583.427779886505	2
3	290	592.018243094432	1
3	296	608.087541157606	1
3	299	618.533539022096	1
3	307	642.194701466183	1
3	314	682.979150824183	1
3	317	695.150857070289	1
3	320	698.967478304851	1
3	322	701.57739216657	2
3	326	713.191993803831	1
3	329	718.492683037777	1
3	332	722.564048108325	1
3	338	761.028255665413	1
3	340	761.487909032096	2
3	344	765.478455412807	1
3	350	767.320131015934	1
3	356	776.371885117411	1
3	362	804.13294165697	1
3	365	811.808337935243	1
3	370	817.455280928788	2
3	377	823.637458456528	3
3	381	831.508393944909	3
3	385	834.067640015354	2
3	389	843.377789365346	1
3	395	868.704436630748	1
3	398	878.544751053541	1
3	401	887.981957247444	1
3	404	888.398460733039	1
3	407	890.884252885326	1
3	410	901.853393344468	1
3	412	902.25416399318	2
3	419	915.149172449138	1
3	422	923.087460793294	1
3	425	926.920114016937	1
3	427	927.865272905843	2
3	429	930.983038456167	3
3	437	948.024276580382	1
3	448	970.800367903949	1
3	455	982.306886979273	1
3	457	983.530452524714	2
3	464	1010.992334053645	1
3	467	1021.313715227685	1
3	469	1022.255844706883	2
3	473	1031.154393004607	1
3	475	1031.28886926745	2
3	477	1033.225056498623	3
3	480	1035.659953448519	3
3	485	1038.551823205842	1
3	487	1043.392157736558	2
3	489	1045.419253597348	3
3	496	1058.795578569949	1
3	498	1059.042887166149	2
3	503	1061.987326247723	3
3	505	1062.741491367953	4
3	507	1065.690552507971	5
3	515	1088.20665058496	1
3	517	1090.936952841159	2
3	521	1140.475554567249	1
3	524	1141.601879095854	1
3	530	1157.494283946164	1
3	533	1159.506583065727	1
3	535	1159.587698204853	2
3	542	1181.930640896007	1
3	545	1182.152906295878	1
3	547	1182.768867144938	2
3	550	1184.969599222507	2
3	552	1186.784380597366	3
3	555	1192.143366601033	3
3	557	1192.520514962675	4
3	566	1211.805728267594	1
3	569	1223.873945092779	1
3	571	1224.744438681014	2
3	590	1281.731393799702	1
3	593	1288.810266778806	1
3	596	1289.987153130249	1
3	598	1290.252851183042	2
3	603	1303.146600035626	3
3	608	1312.273084810844	1
3	611	1316.389124757649	1
3	614	1346.850799411842	1
3	616	1348.796696255572	2
3	620	1356.337181890864	1
3	626	1384.787550339199	1
3	629	1393.455638340852	1
3	638	1430.725391606938	1
3	644	1452.039160495682	1
3	647	1466.510899405055	1
3	650	1491.916215156343	1
3	653	1497.066978577859	1
3	658	1504.221754487347	1
3	662	1509.634805061608	1
3	664	1510.171494330509	2
3	671	1520.527234707304	1
3	677	1524.96445812091	1
3	680	1525.327820162718	1
3	686	1541.829508091436	1
3	689	1543.276083854784	1
3	692	1560.585597844298	1
3	698	1570.658007599415	1
3	701	1595.824246247895	1
3	704	1622.495889256859	1
3	706	1623.642751490942	2
3	713	1653.684944445692	1
3	716	1669.074259599486	1
3	719	1677.360257209685	1
3	722	1696.172959194833	1
3	725	1698.555926067567	1
3	727	1701.053979771413	2
3	731	1708.839332401317	1
3	734	1721.058067293559	1
3	736	1722.961603454763	2
3	740	1727.137787525301	1
3	743	1728.733597568893	1
3	746	1730.093735591804	1
3	751	1743.058090492531	1
3	758	1763.393878676221	1
3	762	1765.748169376143	2
3	764	1775.793398433086	3
3	766	1776.016775535124	4
3	774	1789.277059377877	5
3	780	1799.111210359416	3
3	782	1800.559418640174	4
3	791	1830.70500639445	1
3	795	1832.010909947143	2
3	804	1854.416367651413	1
3	808	1862.229586683131	2
3	811	1866.838260173935	2
3	818	1874.052896741215	1
3	824	1900.459589706337	1
3	830	1905.322787154266	2
3	833	1912.556391803308	3
3	839	1923.034351827729	1
3	845	1951.806771612204	1
3	848	1961.866252201993	1
3	851	1970.293660341468	1
3	854	1973.607775948638	1
3	856	1973.741657500567	2
3	869	1989.469899896957	1
3	872	1993.598979995522	1
3	875	1995.919065059989	1
3	877	1997.182016906037	2
3	884	2024.339075712373	1
3	887	2028.503767400147	1
3	890	2042.844716623217	1
3	893	2047.370582727142	1
3	896	2055.676399834504	1
3	899	2066.310848008636	1
3	901	2066.779377899461	2
3	911	2094.26848032071	1
3	913	2094.311972251083	2
3	917	2096.536844739733	1
3	925	2131.423627661612	1
3	929	2141.199999379404	1
3	932	2146.335326496691	1
3	935	2148.0452512445	1
3	938	2151.136001806825	1
3	942	2151.997696375118	2
3	947	2164.023702648272	1
3	953	2175.835942713852	1
3	958	2183.253664310616	1
3	960	2186.451739360042	2
3	964	2190.271191358363	3
3	968	2195.461831745553	4
3	983	2224.188134757312	1
3	989	2282.880082712992	1
3	995	2298.569973153469	1
3	998	2305.584008865002	1
3	1001	2327.57412025814	1
3	1010	2355.384984240619	1
3	1018	2374.355315969987	1
3	1022	2378.768449697843	1
3	1025	2381.829432356643	1
3	1028	2385.367600433471	1
3	1031	2398.60852433365	1
3	1033	2399.836363075805	2
3	1035	2402.207237734363	3
3	1040	2408.222033721261	1
3	1043	2418.017793774835	1
3	1054	2456.153930869414	1
3	1056	2463.66316072287	2
3	1061	2469.955638397126	1
3	1063	2471.525547650354	2
3	1065	2471.855350292107	3
3	1070	2481.15861096232	1
3	1076	2491.824172234539	1
4	153	357.110273761727	0
4	156	360.782346563254	1
4	158	360.900786523798	2
4	160	361.425936058966	2
4	161	363.616061879675	1
4	163	365.810453568358	1
4	164	366.633180771478	1
4	165	366.931014778832	0
4	167	367.412899786366	0
4	168	368.54205177207	0
4	172	376.122387271869	0
4	174	384.627559805106	1
4	176	385.834413027814	2
4	178	386.576892817182	3
4	184	401.181908524793	4
4	185	404.2826558019	4
4	186	405.641479407116	3
4	187	405.904431426411	2
4	188	406.836733012339	1
4	189	408.609185226258	0
4	194	416.321708143119	0
4	198	420.069603263322	1
4	200	427.140534440415	1
4	201	427.270888661627	0
4	208	432.528569256868	0
4	210	433.633184412524	0
4	215	442.913448376436	0
4	216	444.288187163344	0
4	218	444.803130129404	0
4	220	445.135584916655	1
4	224	449.401489746978	2
4	226	451.221452777944	3
4	231	454.576488467537	4
4	234	460.202995459364	5
4	235	460.51840011938	5
4	236	463.017392402784	4
4	238	464.638686879267	4
4	239	466.297504633966	4
4	241	467.223887546964	4
4	242	469.513259946193	4
4	243	469.975338104859	3
4	244	470.417607352028	2
4	245	470.95965582861	1
4	246	471.806761884304	0
4	248	484.831073808571	0
4	249	485.038217418182	0
4	254	518.735864083602	0
4	255	520.266166715483	0
4	259	529.169429449537	0
4	264	545.266020013112	0
4	266	552.701837662188	0
4	268	557.823998198495	1
4	269	560.389021807	1
4	270	563.95737458837	0
4	277	577.898028766112	0
4	279	583.051023788231	0
4	281	583.100866190608	0
4	283	583.427779886505	1
4	284	584.61225288488	1
4	285	585.465980270239	0
4	290	592.018243094432	0
4	291	593.911555489479	0
4	296	608.087541157606	0
4	297	608.566052797461	0
4	299	618.533539022096	0
4	300	619.096639904975	0
4	307	642.194701466183	0
4	309	645.562049002194	0
4	314	682.979150824183	0
4	315	683.062498204725	0
4	317	695.150857070289	0
4	318	695.370550649443	0
4	320	698.967478304851	0
4	322	701.57739216657	1
4	323	702.941903582562	1
4	324	703.35707267066	0
4	326	713.191993803831	0
4	327	713.399706295896	0
4	329	718.492683037777	0
4	330	718.574980769866	0
4	332	722.564048108325	0
4	333	725.395214056426	0
4	338	761.028255665413	0
4	340	761.487909032096	1
4	341	761.576911649932	1
4	342	765.336141048241	0
4	344	765.478455412807	0
4	348	767.110460148759	0
4	350	767.320131015934	0
4	351	769.146896508066	0
4	356	776.371885117411	0
4	357	776.837725403361	0
4	362	804.13294165697	0
4	363	806.6831513323	0
4	365	811.808337935243	0
4	370	817.455280928788	1
4	377	823.637458456528	2
4	379	828.170394533458	2
4	381	831.508393944909	2
4	382	833.058334905885	2
4	383	833.822367521235	1
4	385	834.067640015354	1
4	386	839.484022304726	1
4	387	840.557863516753	0
4	389	843.377789365346	0
4	390	844.998332363773	0
4	395	868.704436630748	0
4	396	874.352143806685	0
4	398	878.544751053541	0
4	399	878.641081634039	0
4	401	887.981957247444	0
4	402	888.363788578224	0
4	404	888.398460733039	0
4	405	890.044907366617	0
4	407	890.884252885326	0
4	408	892.598491016614	0
4	410	901.853393344468	0
4	412	902.25416399318	1
4	413	902.596052115079	1
4	414	903.362033816498	0
4	419	915.149172449138	0
4	420	915.952975626271	0
4	422	923.087460793294	0
4	423	924.137602519064	0
4	425	926.920114016937	0
4	427	927.865272905843	1
4	429	930.983038456167	2
4	430	933.247361835649	2
4	431	935.190210074993	1
4	432	938.596921765397	0
4	437	948.024276580382	0
4	438	951.146607519166	0
4	448	970.800367903949	0
4	450	973.851738607821	0
4	455	982.306886979273	0
4	457	983.530452524714	1
4	458	984.031411191676	1
4	462	991.478485795331	0
4	464	1010.992334053645	0
4	465	1011.67399819451	0
4	467	1021.313715227685	0
4	469	1022.255844706883	1
4	470	1022.363529980817	1
4	471	1022.499264764575	0
4	473	1031.154393004607	0
4	475	1031.28886926745	1
4	477	1033.225056498623	2
4	478	1035.265710427117	2
4	480	1035.659953448519	2
4	481	1035.864401203066	2
4	482	1036.117796935587	1
4	483	1037.599658827919	0
4	485	1038.551823205842	0
4	487	1043.392157736558	1
4	489	1045.419253597348	2
4	490	1046.023282134763	2
4	491	1047.548331311037	1
4	492	1047.802240151409	0
4	496	1058.795578569949	0
4	498	1059.042887166149	1
4	503	1061.987326247723	2
4	505	1062.741491367953	3
4	507	1065.690552507971	4
4	509	1070.397334870561	4
4	510	1073.263047516884	3
4	511	1073.379948676002	2
4	512	1074.199373853833	1
4	513	1074.801122152992	0
4	515	1088.20665058496	0
4	517	1090.936952841159	1
4	518	1092.673445833234	1
4	519	1098.957268320796	0
4	521	1140.475554567249	0
4	522	1140.731841565399	0
4	524	1141.601879095854	0
4	525	1141.80390552582	0
4	530	1157.494283946164	0
4	531	1158.71870374919	0
4	533	1159.506583065727	0
4	535	1159.587698204853	1
4	536	1161.586017696637	1
4	537	1163.516975764164	0
4	542	1181.930640896007	0
4	543	1182.053258108933	0
4	545	1182.152906295878	0
4	547	1182.768867144938	1
4	548	1184.857361734526	1
4	550	1184.969599222507	1
4	552	1186.784380597366	2
4	553	1186.941767179459	2
4	555	1192.143366601033	2
4	557	1192.520514962675	3
4	558	1193.733540159632	3
4	559	1197.666789968831	2
4	560	1198.24138434683	1
4	561	1199.942850497484	0
4	566	1211.805728267594	0
4	567	1212.314865582197	0
4	569	1223.873945092779	0
4	571	1224.744438681014	1
4	575	1229.592347002306	1
4	576	1231.356525550291	0
4	590	1281.731393799702	0
4	591	1282.613704772629	0
4	593	1288.810266778806	0
4	594	1289.224687085411	0
4	596	1289.987153130249	0
4	598	1290.252851183042	1
4	603	1303.146600035626	2
4	604	1307.641509136276	2
4	605	1310.111076560312	1
4	606	1310.559265538221	0
4	608	1312.273084810844	0
4	609	1315.020725868663	0
4	611	1316.389124757649	0
4	612	1316.912988165897	0
4	614	1346.850799411842	0
4	616	1348.796696255572	1
4	617	1349.298559641026	1
4	618	1351.853399737935	0
4	620	1356.337181890864	0
4	621	1356.897188244657	0
4	626	1384.787550339199	0
4	627	1387.239676166034	0
4	629	1393.455638340852	0
4	630	1396.058179452096	0
4	638	1430.725391606938	0
4	639	1431.820604007201	0
4	644	1452.039160495682	0
4	645	1454.151799874543	0
4	647	1466.510899405055	0
4	648	1469.121824891166	0
4	650	1491.916215156343	0
4	651	1493.353842258447	0
4	653	1497.066978577859	0
4	654	1497.7057213142	0
4	658	1504.221754487347	0
4	660	1506.838878457171	0
4	662	1509.634805061608	0
4	664	1510.171494330509	1
4	665	1510.72965445406	1
4	666	1511.822111821973	0
4	671	1520.527234707304	0
4	672	1520.545667179699	0
4	677	1524.96445812091	0
4	678	1525.157095063888	0
4	680	1525.327820162718	0
4	681	1526.060576693703	0
4	686	1541.829508091436	0
4	687	1542.932117453385	0
4	689	1543.276083854784	0
4	690	1546.408760287471	0
4	692	1560.585597844298	0
4	693	1561.811988302761	0
4	698	1570.658007599415	0
4	699	1571.385655390427	0
4	701	1595.824246247895	0
4	702	1596.022727574699	0
4	704	1622.495889256859	0
4	706	1623.642751490942	1
4	707	1624.629913483175	1
4	708	1629.991000818243	0
4	713	1653.684944445692	0
4	714	1655.920988281339	0
4	716	1669.074259599486	0
4	717	1669.199350398396	0
4	719	1677.360257209685	0
4	720	1678.231669865784	0
4	722	1696.172959194833	0
4	723	1696.180104811957	0
4	725	1698.555926067567	0
4	727	1701.053979771413	1
4	728	1703.537166225552	1
4	729	1703.776218553717	0
4	731	1708.839332401317	0
4	732	1710.32359645052	0
4	734	1721.058067293559	0
4	736	1722.961603454763	1
4	737	1723.959679937133	1
4	738	1726.637022553168	0
4	740	1727.137787525301	0
4	741	1727.408650011928	0
4	743	1728.733597568893	0
4	744	1729.153467168844	0
4	746	1730.093735591804	0
4	747	1730.627574304503	0
4	751	1743.058090492531	0
4	756	1759.881132457661	0
4	758	1763.393878676221	0
4	762	1765.748169376143	1
4	764	1775.793398433086	2
4	766	1776.016775535124	3
4	774	1789.277059377877	4
4	776	1795.798123420589	4
4	777	1796.331173592802	3
4	778	1797.566238897319	2
4	780	1799.111210359416	2
4	782	1800.559418640174	3
4	783	1811.83316939248	3
4	784	1812.486860581823	2
4	785	1813.028646172991	1
4	786	1814.650161217834	0
4	791	1830.70500639445	0
4	795	1832.010909947143	1
4	797	1837.794076698207	1
4	798	1843.534552768089	0
4	804	1854.416367651413	0
4	808	1862.229586683131	1
4	809	1865.020887073339	1
4	811	1866.838260173935	1
4	812	1867.227855843067	1
4	813	1870.048332702662	0
4	818	1874.052896741215	0
4	819	1874.694507177302	0
4	824	1900.459589706337	0
4	830	1905.322787154266	1
4	833	1912.556391803308	2
4	835	1915.975016298022	2
4	836	1918.777120643659	1
4	837	1921.121038991816	0
4	839	1923.034351827729	0
4	840	1924.661452696	0
4	845	1951.806771612204	0
4	846	1951.895446705748	0
4	848	1961.866252201993	0
4	849	1963.686369597163	0
4	851	1970.293660341468	0
4	852	1970.459919403496	0
4	854	1973.607775948638	0
4	856	1973.741657500567	1
4	860	1978.355853809435	1
4	861	1979.916271497951	0
4	869	1989.469899896957	0
4	870	1992.733680185614	0
4	872	1993.598979995522	0
4	873	1994.272670858919	0
4	875	1995.919065059989	0
4	877	1997.182016906037	1
4	878	2002.644836115743	1
4	879	2003.300026607203	0
4	884	2024.339075712373	0
4	885	2024.512650424908	0
4	887	2028.503767400147	0
4	888	2033.201257009028	0
4	890	2042.844716623217	0
4	891	2043.338455347801	0
4	893	2047.370582727142	0
4	894	2052.092742760802	0
4	896	2055.676399834504	0
4	897	2056.077613615024	0
4	899	2066.310848008636	0
4	901	2066.779377899461	1
4	902	2067.39777761338	1
4	903	2067.974328446973	0
4	911	2094.26848032071	0
4	913	2094.311972251083	1
4	914	2095.18268940331	1
4	915	2095.517054315337	0
4	917	2096.536844739733	0
4	918	2097.043532164462	0
4	925	2131.423627661612	0
4	927	2138.907903559154	0
4	929	2141.199999379404	0
4	930	2142.388266548912	0
4	932	2146.335326496691	0
4	933	2147.671380621603	0
4	935	2148.0452512445	0
4	936	2149.174898076386	0
4	938	2151.136001806825	0
4	942	2151.997696375118	1
4	944	2160.659466453336	1
4	945	2160.921145608467	0
4	947	2164.023702648272	0
4	948	2169.769155988556	0
4	953	2175.835942713852	0
4	954	2176.535827437938	0
4	958	2183.253664310616	0
4	960	2186.451739360042	1
4	964	2190.271191358363	2
4	968	2195.461831745553	3
4	972	2204.590956048687	3
4	973	2207.85972561789	2
4	974	2208.241393967544	1
4	981	2223.871345374606	0
4	983	2224.188134757312	0
4	984	2224.78874356902	0
4	989	2282.880082712992	0
4	990	2283.429393304872	0
4	995	2298.569973153469	0
4	996	2298.614091295526	0
4	998	2305.584008865002	0
4	999	2306.354857163566	0
4	1001	2327.57412025814	0
4	1002	2329.808202095326	0
4	1010	2355.384984240619	0
4	1011	2357.379737960343	0
4	1018	2374.355315969987	0
4	1020	2376.780022230967	0
4	1022	2378.768449697843	0
4	1023	2380.568177934831	0
4	1025	2381.829432356643	0
4	1026	2384.53061741295	0
4	1028	2385.367600433471	0
4	1029	2389.422548110965	0
4	1031	2398.60852433365	0
4	1033	2399.836363075805	1
4	1035	2402.207237734363	2
4	1036	2404.518170022315	2
4	1037	2405.621812449613	1
4	1038	2407.091272428153	0
4	1040	2408.222033721261	0
4	1041	2408.445640947176	0
4	1043	2418.017793774835	0
4	1044	2422.456426601049	0
4	1054	2456.153930869414	0
4	1056	2463.66316072287	1
4	1058	2468.327947414707	1
4	1059	2468.342281688958	0
4	1061	2469.955638397126	0
4	1063	2471.525547650354	1
4	1065	2471.855350292107	2
4	1066	2473.943956169991	2
4	1067	2474.452769651765	1
4	1068	2475.40640870139	0
4	1070	2481.15861096232	0
4	1071	2481.432513061066	0
4	1076	2491.824172234539	0
4	1077	2492.671583729041	0
5	154	358.162617602767	19
5	159	360.922830431956	20
5	181	399.52962521083	21
5	182	400.73364044599	22
5	192	409.636366619946	23
5	199	422.505892525648	24
5	204	430.593028754721	25
5	209	432.605203667792	26
5	213	440.009798037887	27
5	227	451.248869884121	28
5	232	460.118476041538	29
5	252	513.794876707278	30
5	262	540.179725387191	31
5	263	544.293442477686	32
5	273	568.958985734479	33
5	278	581.652514192437	34
5	288	591.989564076633	35
5	294	607.42416420959	36
5	303	629.615837911279	37
5	308	645.171347195689	38
5	312	674.649563880947	39
5	336	746.541884458391	40
5	347	766.936041587613	41
5	354	770.559859923047	42
5	360	782.406152289457	43
5	368	816.713241242724	44
5	375	820.339647630002	45
5	378	826.107440066327	46
5	393	851.763476327979	47
5	417	913.942869603809	48
5	435	947.474204883242	49
5	445	965.239220240706	50
5	446	966.393836864514	51
5	449	973.812819299705	52
5	453	978.973099912757	53
5	461	991.477725073554	54
5	501	1061.686590468829	55
5	508	1068.48496496559	56
5	528	1145.362053626024	57
5	540	1166.104664710139	58
5	564	1200.370623557264	59
5	574	1229.492957673967	60
5	581	1258.197903352588	61
5	582	1271.966615576844	62
5	585	1274.063886356439	63
5	588	1279.664861182284	64
5	601	1300.600626496151	65
5	624	1377.338385133613	66
5	633	1402.581929845801	67
5	636	1424.084861616067	68
5	642	1445.523165740561	69
5	659	1506.151149698785	70
5	669	1516.57879230483	71
5	675	1523.40181927005	72
5	684	1540.673536067968	73
5	696	1569.75447602699	74
5	711	1632.471806806884	75
5	754	1746.359361121552	76
5	755	1759.6979856033	77
5	769	1783.39682938084	78
5	772	1784.02341142361	79
5	775	1792.820414009133	80
5	789	1821.179180520694	81
5	796	1833.669427232875	82
5	805	1857.266040060042	83
5	806	1859.510026179552	84
5	816	1873.668303773102	85
5	822	1894.666792537301	86
5	831	1912.147434026255	87
5	834	1912.789686802688	88
5	843	1942.986883732228	89
5	859	1976.076601271789	90
5	864	1983.676068381018	91
5	867	1988.607138909535	92
5	882	2021.034606964993	93
5	908	2090.608059242947	94
5	909	2091.669931703462	95
5	921	2115.522830786127	96
5	926	2136.285048176101	97
5	943	2155.482074437977	98
5	951	2172.035119263329	99
5	969	2196.783012710501	100
5	970	2200.706094751121	101
5	971	2203.988431698282	102
5	977	2210.95188969459	103
5	980	2222.750046905141	104
5	987	2272.153728857116	105
5	993	2297.382166364337	106
5	1005	2342.504416499346	107
5	1008	2344.115917330902	108
5	1014	2366.453540890676	109
5	1019	2375.230531402022	110
5	1049	2429.1656118885	111
5	1050	2430.649251686356	112
5	1057	2466.875109606193	113
5	1074	2489.155591909584	114
6	154	358.162617602767	5.429897352392
6	159	360.922830431956	5.489782576693
6	181	399.52962521083	26.756193467075
6	182	400.73364044599	10.821944151833
6	192	409.636366619946	0.435459387196
6	199	422.505892525648	3.390087357742
6	204	430.593028754721	2.307115774875
6	209	432.605203667792	0.584513347245
6	213	440.009798037887	2.016477280822
6	227	451.248869884121	2.264707238862
6	232	460.118476041538	6.812191350741
6	252	513.794876707278	3.407750817424
6	262	540.179725387191	13.710113079341
6	263	544.293442477686	10.730086559757
6	273	568.958985734479	0.464022006201
6	278	581.652514192437	4.021297405289
6	288	591.989564076633	0.356917172742
6	294	607.42416420959	5.87489620654
6	303	629.615837911279	4.799721034465
6	308	645.171347195689	5.110852215893
6	312	674.649563880947	6.084297690853
6	336	746.541884458391	0.2188976532
6	347	766.936041587613	0.051619101776
6	354	770.559859923047	0.890807299
6	360	782.406152289457	3.01429927327
6	368	816.713241242724	0.810941816638
6	375	820.339647630002	2.767457129958
6	378	826.107440066327	7.714210648992
6	393	851.763476327979	0.418120268163
6	417	913.942869603809	7.929407843274
6	435	947.474204883242	8.090354964069
6	445	965.239220240706	9.323785977981
6	446	966.393836864514	9.435075573656
6	449	973.812819299705	16.351363629031
6	453	978.973099912757	3.471194978967
6	461	991.477725073554	4.597757662822
6	501	1061.686590468829	5.801567351054
6	508	1068.48496496559	8.854722118635
6	528	1145.362053626024	0.045065628238
6	540	1166.104664710139	0.394743372199
6	564	1200.370623557264	0.387176094942
6	574	1229.492957673967	2.268555132502
6	581	1258.197903352588	7.55749406528
6	582	1271.966615576844	18.367987431435
6	585	1274.063886356439	0.942404455707
6	588	1279.664861182284	1.560742694104
6	601	1300.600626496151	4.209124743419
6	624	1377.338385133613	3.848189968704
6	633	1402.581929845801	6.203257927462
6	636	1424.084861616067	19.08626561118
6	642	1445.523165740561	4.031736970635
6	659	1506.151149698785	5.92643982282
6	669	1516.57879230483	4.029963247981
6	675	1523.40181927005	2.04611384448
6	684	1540.673536067968	3.448021520239
6	696	1569.75447602699	1.524434164411
6	711	1632.471806806884	1.543142825193
6	754	1746.359361121552	9.165256597312
6	755	1759.6979856033	15.822954566311
6	769	1783.39682938084	19.259443964374
6	772	1784.02341142361	6.639085110645
6	775	1792.820414009133	8.803915448129
6	789	1821.179180520694	3.615230022595
6	796	1833.669427232875	2.669345291983
6	805	1857.266040060042	7.596302144942
6	806	1859.510026179552	8.681954266678
6	816	1873.668303773102	2.673656522827
6	822	1894.666792537301	0.968486874946
6	831	1912.147434026255	7.667483263816
6	834	1912.789686802688	8.039600747905
6	843	1942.986883732228	7.840766650277
6	859	1976.076601271789	1.522592469898
6	864	1983.676068381018	1.867580255016
6	867	1988.607138909535	2.244676028109
6	882	2021.034606964993	6.155132934207
6	908	2090.608059242947	18.497622983974
6	909	2091.669931703462	9.346195257184
6	921	2115.522830786127	13.380608690646
6	926	2136.285048176101	6.130383473981
6	943	2155.482074437977	3.826799680113
6	951	2172.035119263329	1.934463685223
6	969	2196.783012710501	19.378055899492
6	970	2200.706094751121	11.654020660581
6	971	2203.988431698282	12.756967764442
6	977	2210.95188969459	1.609966756765
6	980	2222.750046905141	4.631186925759
6	987	2272.153728857116	4.169218624413
6	993	2297.382166364337	2.264181843849
6	1005	2342.504416499346	0.837498821435
6	1008	2344.115917330902	0.325116558947
6	1014	2366.453540890676	5.261522224021
6	1019	2375.230531402022	3.452828227703
6	1049	2429.1656118885	3.495914988772
6	1050	2430.649251686356	3.774498826329
6	1057	2466.875109606193	16.576127367501
6	1074	2489.155591909584	2.231209565972
7	159	360.922830431956	3.812556670229
7	160	361.425936058966	0.643589495712
7	161	363.616061879675	2.715275355877
7	164	366.633180771478	0.82272720312
7	167	367.412899786366	0
7	182	400.73364044599	24.611253174121
7	185	404.2826558019	19.655095996794
7	186	405.641479407116	19.807066379302
7	187	405.904431426411	19.327538609229
7	188	406.836733012339	5.654824487546
7	194	416.321708143119	0
7	199	422.505892525648	3.390087357742
7	200	427.140534440415	7.070931177093
7	209	432.605203667792	0.076634410924
7	215	442.913448376436	0
7	218	444.803130129404	0
7	227	451.248869884121	6.113284967466
7	232	460.118476041538	11.134313396279
7	235	460.51840011938	11.116910372402
7	236	463.017392402784	11.79593962484
7	239	466.297504633966	12.991219943169
7	242	469.513259946193	14.936771478656
7	243	469.975338104859	9.772342645495
7	244	470.417607352028	5.778920472761
7	245	470.95965582861	3.735768281646
7	248	484.831073808571	0
7	254	518.735864083602	0
7	263	544.293442477686	15.124013028149
7	266	552.701837662188	0
7	269	560.389021807	2.565023608505
7	278	581.652514192437	3.754485426325
7	281	583.100866190608	0
7	284	584.61225288488	1.184472998375
7	290	592.018243094432	0
7	296	608.087541157606	0
7	299	618.533539022096	0
7	308	645.171347195689	2.976645729506
7	314	682.979150824183	0
7	317	695.150857070289	0
7	320	698.967478304851	0
7	323	702.941903582562	1.364511415992
7	326	713.191993803831	0
7	329	718.492683037777	0
7	332	722.564048108325	0
7	338	761.028255665413	0
7	341	761.576911649932	0.089002617836
7	344	765.478455412807	0
7	347	766.936041587613	0.051619101776
7	350	767.320131015934	0
7	356	776.371885117411	0
7	362	804.13294165697	0
7	365	811.808337935243	0
7	368	816.713241242724	0.810941816638
7	378	826.107440066327	8.652159137539
7	379	828.170394533458	10.598204033414
7	382	833.058334905885	9.420876449357
7	383	833.822367521235	2.313973576326
7	386	839.484022304726	5.416382289372
7	389	843.377789365346	0
7	395	868.704436630748	0
7	398	878.544751053541	0
7	401	887.981957247444	0
7	404	888.398460733039	0
7	407	890.884252885326	0
7	410	901.853393344468	0
7	413	902.596052115079	0.341888121899
7	419	915.149172449138	0
7	422	923.087460793294	0
7	425	926.920114016937	0
7	430	933.247361835649	5.382088929806
7	431	935.190210074993	4.207171618826
7	437	948.024276580382	0
7	449	973.812819299705	3.012451395756
7	455	982.306886979273	0
7	458	984.031411191676	0.500958666962
7	461	991.477725073554	4.597757662822
7	464	1010.992334053645	0
7	467	1021.313715227685	0
7	470	1022.363529980817	0.107685273934
7	473	1031.154393004607	0
7	478	1035.265710427117	3.976841159667
7	481	1035.864401203066	2.639344704443
7	482	1036.117796935587	0.457843487068
7	485	1038.551823205842	0
7	490	1046.023282134763	2.631124398205
7	491	1047.548331311037	2.129077713689
7	508	1068.48496496559	9.689386395641
7	509	1070.397334870561	11.354447704412
7	510	1073.263047516884	11.275721269161
7	511	1073.379948676002	10.638457308049
7	512	1074.199373853833	8.508821345862
7	515	1088.20665058496	0
7	518	1092.673445833234	1.736492992075
7	521	1140.475554567249	0
7	524	1141.601879095854	0
7	530	1157.494283946164	0
7	533	1159.506583065727	0
7	536	1161.586017696637	1.998319491784
7	542	1181.930640896007	0
7	545	1182.152906295878	0
7	548	1184.857361734526	2.088494589588
7	553	1186.941767179459	1.972167956952
7	558	1193.733540159632	6.949159562266
7	559	1197.666789968831	5.523423367798
7	560	1198.24138434683	5.720869384155
7	566	1211.805728267594	0
7	569	1223.873945092779	0
7	574	1229.492957673967	4.748518992953
7	575	1229.592347002306	2.367944460841
7	590	1281.731393799702	0
7	593	1288.810266778806	0
7	596	1289.987153130249	0
7	601	1300.600626496151	10.347775313109
7	604	1307.641509136276	11.250007383544
7	605	1310.111076560312	6.964476524686
7	608	1312.273084810844	0
7	611	1316.389124757649	0
7	614	1346.850799411842	0
7	617	1349.298559641026	0.501863385454
7	620	1356.337181890864	0
7	626	1384.787550339199	0
7	629	1393.455638340852	0
7	638	1430.725391606938	0
7	644	1452.039160495682	0
7	647	1466.510899405055	0
7	650	1491.916215156343	0
7	653	1497.066978577859	0
7	659	1506.151149698785	1.929395211438
7	662	1509.634805061608	0
7	665	1510.72965445406	0.558160123551
7	671	1520.527234707304	0
7	677	1524.96445812091	0
7	680	1525.327820162718	0
7	686	1541.829508091436	0
7	689	1543.276083854784	0
7	692	1560.585597844298	0
7	698	1570.658007599415	0
7	701	1595.824246247895	0
7	704	1622.495889256859	0
7	707	1624.629913483175	0.987161992233
7	713	1653.684944445692	0
7	716	1669.074259599486	0
7	719	1677.360257209685	0
7	722	1696.172959194833	0
7	725	1698.555926067567	0
7	728	1703.537166225552	2.483186454139
7	731	1708.839332401317	0
7	734	1721.058067293559	0
7	737	1723.959679937133	0.99807648237
7	740	1727.137787525301	0
7	743	1728.733597568893	0
7	746	1730.093735591804	0
7	755	1759.6979856033	16.639895110769
7	758	1763.393878676221	0
7	775	1792.820414009133	28.683028592667
7	776	1795.798123420589	30.049954044446
7	777	1796.331173592802	20.537775159716
7	778	1797.566238897319	21.549463362195
7	783	1811.83316939248	22.556110014603
7	784	1812.486860581823	13.375650222407
7	785	1813.028646172991	12.469227532817
7	791	1830.70500639445	0
7	796	1833.669427232875	2.669345291983
7	797	1837.794076698207	5.783166751064
7	806	1859.510026179552	5.093658528139
7	809	1865.020887073339	2.791300390208
7	812	1867.227855843067	0.389595669132
7	818	1874.052896741215	0
7	824	1900.459589706337	0
7	834	1912.789686802688	8.309736040249
7	835	1915.975016298022	10.652229143756
7	836	1918.777120643659	6.220728840351
7	839	1923.034351827729	0
7	845	1951.806771612204	0
7	848	1961.866252201993	0
7	851	1970.293660341468	0
7	854	1973.607775948638	0
7	859	1976.076601271789	2.334943771222
7	860	1978.355853809435	3.801845007544
7	869	1989.469899896957	0
7	872	1993.598979995522	0
7	875	1995.919065059989	0
7	878	2002.644836115743	5.462819209706
7	884	2024.339075712373	0
7	887	2028.503767400147	0
7	890	2042.844716623217	0
7	893	2047.370582727142	0
7	896	2055.676399834504	0
7	899	2066.310848008636	0
7	902	2067.39777761338	0.618399713919
7	911	2094.26848032071	0
7	914	2095.18268940331	0.870717152227
7	917	2096.536844739733	0
7	926	2136.285048176101	4.861420514489
7	929	2141.199999379404	0
7	932	2146.335326496691	0
7	935	2148.0452512445	0
7	938	2151.136001806825	0
7	943	2155.482074437977	3.826799680113
7	944	2160.659466453336	8.661770078218
7	947	2164.023702648272	0
7	953	2175.835942713852	0
7	971	2203.988431698282	20.734767387666
7	972	2204.590956048687	18.139216688645
7	973	2207.85972561789	17.588534259527
7	974	2208.241393967544	12.779562221991
7	977	2210.95188969459	1.609966756765
7	980	2222.750046905141	4.631186925759
7	983	2224.188134757312	0
7	989	2282.880082712992	0
7	995	2298.569973153469	0
7	998	2305.584008865002	0
7	1001	2327.57412025814	0
7	1010	2355.384984240619	0
7	1019	2375.230531402022	0.875215432035
7	1022	2378.768449697843	0
7	1025	2381.829432356643	0
7	1028	2385.367600433471	0
7	1031	2398.60852433365	0
7	1036	2404.518170022315	4.68180694651
7	1037	2405.621812449613	3.41457471525
7	1040	2408.222033721261	0
7	1043	2418.017793774835	0
7	1057	2466.875109606193	10.721178736779
7	1058	2468.327947414707	4.664786691837
7	1061	2469.955638397126	0
7	1066	2473.943956169991	2.418408519637
7	1067	2474.452769651765	2.597419359658
7	1070	2481.15861096232	0
7	1076	2491.824172234539	0
8	160	361.425936058966	32
8	161	363.616061879675	33
8	164	366.633180771478	34
8	165	366.931014778832	35
8	168	368.54205177207	36
8	185	404.2826558019	37
8	186	405.641479407116	38
8	187	405.904431426411	39
8	188	406.836733012339	40
8	189	408.609185226258	41
8	200	427.140534440415	42
8	201	427.270888661627	43
8	210	433.633184412524	44
8	216	444.288187163344	45
8	235	460.51840011938	46
8	236	463.017392402784	47
8	239	466.297504633966	48
8	242	469.513259946193	49
8	243	469.975338104859	50
8	244	470.417607352028	51
8	245	470.95965582861	52
8	246	471.806761884304	53
8	249	485.038217418182	54
8	255	520.266166715483	55
8	264	545.266020013112	56
8	269	560.389021807	57
8	270	563.95737458837	58
8	279	583.051023788231	59
8	284	584.61225288488	60
8	285	585.465980270239	61
8	291	593.911555489479	62
8	297	608.566052797461	63
8	300	619.096639904975	64
8	309	645.562049002194	65
8	315	683.062498204725	66
8	318	695.370550649443	67
8	323	702.941903582562	68
8	324	703.35707267066	69
8	327	713.399706295896	70
8	330	718.574980769866	71
8	333	725.395214056426	72
8	341	761.576911649932	73
8	342	765.336141048241	74
8	348	767.110460148759	75
8	351	769.146896508066	76
8	357	776.837725403361	77
8	363	806.6831513323	78
8	379	828.170394533458	79
8	382	833.058334905885	80
8	383	833.822367521235	81
8	386	839.484022304726	82
8	387	840.557863516753	83
8	390	844.998332363773	84
8	396	874.352143806685	85
8	399	878.641081634039	86
8	402	888.363788578224	87
8	405	890.044907366617	88
8	408	892.598491016614	89
8	413	902.596052115079	90
8	414	903.362033816498	91
8	420	915.952975626271	92
8	423	924.137602519064	93
8	430	933.247361835649	94
8	431	935.190210074993	95
8	432	938.596921765397	96
8	438	951.146607519166	97
8	450	973.851738607821	98
8	458	984.031411191676	99
8	462	991.478485795331	100
8	465	1011.67399819451	101
8	470	1022.363529980817	102
8	471	1022.499264764575	103
8	478	1035.265710427117	104
8	481	1035.864401203066	105
8	482	1036.117796935587	106
8	483	1037.599658827919	107
8	490	1046.023282134763	108
8	491	1047.548331311037	109
8	492	1047.802240151409	110
8	509	1070.397334870561	111
8	510	1073.263047516884	112
8	511	1073.379948676002	113
8	512	1074.199373853833	114
8	513	1074.801122152992	115
8	518	1092.673445833234	116
8	519	1098.957268320796	117
8	522	1140.731841565399	118
8	525	1141.80390552582	119
8	531	1158.71870374919	120
8	536	1161.586017696637	121
8	537	1163.516975764164	122
8	543	1182.053258108933	123
8	548	1184.857361734526	124
8	553	1186.941767179459	125
8	558	1193.733540159632	126
8	559	1197.666789968831	127
8	560	1198.24138434683	128
8	561	1199.942850497484	129
8	567	1212.314865582197	130
8	575	1229.592347002306	131
8	576	1231.356525550291	132
8	591	1282.613704772629	133
8	594	1289.224687085411	134
8	604	1307.641509136276	135
8	605	1310.111076560312	136
8	606	1310.559265538221	137
8	609	1315.020725868663	138
8	612	1316.912988165897	139
8	617	1349.298559641026	140
8	618	1351.853399737935	141
8	621	1356.897188244657	142
8	627	1387.239676166034	143
8	630	1396.058179452096	144
8	639	1431.820604007201	145
8	645	1454.151799874543	146
8	648	1469.121824891166	147
8	651	1493.353842258447	148
8	654	1497.7057213142	149
8	660	1506.838878457171	150
8	665	1510.72965445406	151
8	666	1511.822111821973	152
8	672	1520.545667179699	153
8	678	1525.157095063888	154
8	681	1526.060576693703	155
8	687	1542.932117453385	156
8	690	1546.408760287471	157
8	693	1561.811988302761	158
8	699	1571.385655390427	159
8	702	1596.022727574699	160
8	707	1624.629913483175	161
8	708	1629.991000818243	162
8	714	1655.920988281339	163
8	717	1669.199350398396	164
8	720	1678.231669865784	165
8	723	1696.180104811957	166
8	728	1703.537166225552	167
8	729	1703.776218553717	168
8	732	1710.32359645052	169
8	737	1723.959679937133	170
8	738	1726.637022553168	171
8	741	1727.408650011928	172
8	744	1729.153467168844	173
8	747	1730.627574304503	174
8	756	1759.881132457661	175
8	776	1795.798123420589	176
8	777	1796.331173592802	177
8	778	1797.566238897319	178
8	783	1811.83316939248	179
8	784	1812.486860581823	180
8	785	1813.028646172991	181
8	786	1814.650161217834	182
8	797	1837.794076698207	183
8	798	1843.534552768089	184
8	809	1865.020887073339	185
8	812	1867.227855843067	186
8	813	1870.048332702662	187
8	819	1874.694507177302	188
8	835	1915.975016298022	189
8	836	1918.777120643659	190
8	837	1921.121038991816	191
8	840	1924.661452696	192
8	846	1951.895446705748	193
8	849	1963.686369597163	194
8	852	1970.459919403496	195
8	860	1978.355853809435	196
8	861	1979.916271497951	197
8	870	1992.733680185614	198
8	873	1994.272670858919	199
8	878	2002.644836115743	200
8	879	2003.300026607203	201
8	885	2024.512650424908	202
8	888	2033.201257009028	203
8	891	2043.338455347801	204
8	894	2052.092742760802	205
8	897	2056.077613615024	206
8	902	2067.39777761338	207
8	903	2067.974328446973	208
8	914	2095.18268940331	209
8	915	2095.517054315337	210
8	918	2097.043532164462	211
8	927	2138.907903559154	212
8	930	2142.388266548912	213
8	933	2147.671380621603	214
8	936	2149.174898076386	215
8	944	2160.659466453336	216
8	945	2160.921145608467	217
8	948	2169.769155988556	218
8	954	2176.535827437938	219
8	972	2204.590956048687	220
8	973	2207.85972561789	221
8	974	2208.241393967544	222
8	981	2223.871345374606	223
8	984	2224.78874356902	224
8	990	2283.429393304872	225
8	996	2298.614091295526	226
8	999	2306.354857163566	227
8	1002	2329.808202095326	228
8	1011	2357.379737960343	229
8	1020	2376.780022230967	230
8	1023	2380.568177934831	231
8	1026	2384.53061741295	232
8	1029	2389.422548110965	233
8	1036	2404.518170022315	234
8	1037	2405.621812449613	235
8	1038	2407.091272428153	236
8	1041	2408.445640947176	237
8	1044	2422.456426601049	238
8	1058	2468.327947414707	239
8	1059	2468.342281688958	240
8	1066	2473.943956169991	241
8	1067	2474.452769651765	242
8	1068	2475.40640870139	243
8	1071	2481.432513061066	244
8	1077	2492.671583729041	245
9	160	361.425936058966	4.315662297239
9	161	363.616061879675	2.833715316421
9	164	366.633180771478	5.73239424768
9	165	366.931014778832	1.120561210474
9	168	368.54205177207	1.129151985704
9	185	404.2826558019	28.160268530031
9	186	405.641479407116	21.01391960201
9	187	405.904431426411	20.070018398597
9	188	406.836733012339	20.259840195157
9	189	408.609185226258	7.427276701465
9	200	427.140534440415	8.024729272509
9	201	427.270888661627	7.201285398305
9	210	433.633184412524	1.104615155656
9	216	444.288187163344	1.374738786908
9	235	460.51840011938	11.534237474121
9	236	463.017392402784	13.615902655806
9	239	466.297504633966	15.076051856022
9	242	469.513259946193	16.206975255396
9	243	469.975338104859	15.398849637322
9	244	470.417607352028	10.214611892664
9	245	470.95965582861	6.320968949343
9	246	471.806761884304	4.58287433734
9	249	485.038217418182	0.207143609611
9	255	520.266166715483	1.530302631881
9	264	545.266020013112	16.096590563575
9	269	560.389021807	7.687184144812
9	270	563.95737458837	6.133376389875
9	279	583.051023788231	5.152995022119
9	284	584.61225288488	1.511386694272
9	285	585.465980270239	2.038200383734
9	291	593.911555489479	1.893312395047
9	297	608.566052797461	0.478511639855
9	300	619.096639904975	0.563100882879
9	309	645.562049002194	3.367347536011
9	315	683.062498204725	0.083347380542
9	318	695.370550649443	0.219693579154
9	323	702.941903582562	3.974425277711
9	324	703.35707267066	1.77968050409
9	327	713.399706295896	0.207712492065
9	330	718.574980769866	0.082297732089
9	333	725.395214056426	2.831165948101
9	341	761.576911649932	0.548655984519
9	342	765.336141048241	3.848232016145
9	348	767.110460148759	0.226037662922
9	351	769.146896508066	1.826765492132
9	357	776.837725403361	0.46584028595
9	363	806.6831513323	2.55020967533
9	379	828.170394533458	10.71511360467
9	382	833.058334905885	15.486144405841
9	383	833.822367521235	10.184909064707
9	386	839.484022304726	7.975628359817
9	387	840.557863516753	6.490223501399
9	390	844.998332363773	1.620542998427
9	396	874.352143806685	5.647707175937
9	399	878.641081634039	0.096330580498
9	402	888.363788578224	0.38183133078
9	405	890.044907366617	1.646446633578
9	408	892.598491016614	1.714238131288
9	413	902.596052115079	0.742658770611
9	414	903.362033816498	1.107869823318
9	420	915.952975626271	0.803803177133
9	423	924.137602519064	1.05014172577
9	430	933.247361835649	6.327247818712
9	431	935.190210074993	7.32493716915
9	432	938.596921765397	7.61388330923
9	438	951.146607519166	3.122330938784
9	450	973.851738607821	3.051370703872
9	458	984.031411191676	1.724524212403
9	462	991.478485795331	4.598518384599
9	465	1011.67399819451	0.681664140865
9	470	1022.363529980817	1.049814753132
9	471	1022.499264764575	0.243420057692
9	478	1035.265710427117	4.11131742251
9	481	1035.864401203066	4.575531935616
9	482	1036.117796935587	2.892740436964
9	483	1037.599658827919	1.9397053794
9	490	1046.023282134763	7.471458928921
9	491	1047.548331311037	4.156173574479
9	492	1047.802240151409	2.382986554061
9	509	1070.397334870561	11.601756300612
9	510	1073.263047516884	14.220160350735
9	511	1073.379948676002	11.392622428279
9	512	1074.199373853833	11.45788248588
9	513	1074.801122152992	9.110569645021
9	518	1092.673445833234	4.466795248274
9	519	1098.957268320796	8.020315479637
9	522	1140.731841565399	0.25628699815
9	525	1141.80390552582	0.202026429966
9	531	1158.71870374919	1.224419803026
9	536	1161.586017696637	2.07943463091
9	537	1163.516975764164	3.929277559311
9	543	1182.053258108933	0.122617212926
9	548	1184.857361734526	2.704455438648
9	553	1186.941767179459	4.172900034521
9	558	1193.733540159632	8.763940937125
9	559	1197.666789968831	10.882409371465
9	560	1198.24138434683	6.098017745797
9	561	1199.942850497484	7.422335534809
9	567	1212.314865582197	0.509137314603
9	575	1229.592347002306	4.847908321292
9	576	1231.356525550291	4.132123008826
9	591	1282.613704772629	0.882310972927
9	594	1289.224687085411	0.414420306605
9	604	1307.641509136276	17.388657953234
9	605	1310.111076560312	13.71957480758
9	606	1310.559265538221	7.412665502595
9	609	1315.020725868663	2.747641057819
9	612	1316.912988165897	0.523863408248
9	617	1349.298559641026	2.447760229184
9	618	1351.853399737935	3.056703482363
9	621	1356.897188244657	0.560006353793
9	627	1387.239676166034	2.452125826835
9	630	1396.058179452096	2.602541111244
9	639	1431.820604007201	1.095212400263
9	645	1454.151799874543	2.112639378861
9	648	1469.121824891166	2.610925486111
9	651	1493.353842258447	1.437627102104
9	654	1497.7057213142	0.638742736341
9	660	1506.838878457171	2.617123969824
9	665	1510.72965445406	1.094849392452
9	666	1511.822111821973	1.650617491464
9	672	1520.545667179699	0.018432472395
9	678	1525.157095063888	0.192636942978
9	681	1526.060576693703	0.732756530985
9	687	1542.932117453385	1.102609361949
9	690	1546.408760287471	3.132676432687
9	693	1561.811988302761	1.226390458463
9	699	1571.385655390427	0.727647791012
9	702	1596.022727574699	0.198481326804
9	707	1624.629913483175	2.134024226316
9	708	1629.991000818243	6.348249327301
9	714	1655.920988281339	2.236043835647
9	717	1669.199350398396	0.12509079891
9	720	1678.231669865784	0.871412656099
9	723	1696.180104811957	0.007145617124
9	728	1703.537166225552	4.981240157985
9	729	1703.776218553717	2.722238782304
9	732	1710.32359645052	1.484264049203
9	737	1723.959679937133	2.901612643574
9	738	1726.637022553168	3.675419098405
9	741	1727.408650011928	0.270862486627
9	744	1729.153467168844	0.419869599951
9	747	1730.627574304503	0.533838712699
9	756	1759.881132457661	16.82304196513
9	776	1795.798123420589	31.660738004123
9	777	1796.331173592802	30.583004216659
9	778	1797.566238897319	21.772840464233
9	783	1811.83316939248	35.816393857356
9	784	1812.486860581823	23.209801203946
9	785	1813.028646172991	13.917435813575
9	786	1814.650161217834	14.09074257766
9	797	1837.794076698207	6.793994757315
9	798	1843.534552768089	11.523642820946
9	809	1865.020887073339	10.604519421926
9	812	1867.227855843067	4.998269159936
9	813	1870.048332702662	3.210072528727
9	819	1874.694507177302	0.641610436087
9	835	1915.975016298022	11.495065535583
9	836	1918.777120643659	13.454333489393
9	837	1921.121038991816	8.564647188508
9	840	1924.661452696	1.627100868271
9	846	1951.895446705748	0.088675093544
9	849	1963.686369597163	1.82011739517
9	852	1970.459919403496	0.166259062028
9	860	1978.355853809435	4.614196308868
9	861	1979.916271497951	5.36226269606
9	870	1992.733680185614	3.263780288657
9	873	1994.272670858919	0.673690863397
9	878	2002.644836115743	6.725771055754
9	879	2003.300026607203	6.118009701166
9	885	2024.512650424908	0.173574712535
9	888	2033.201257009028	4.697489608881
9	891	2043.338455347801	0.493738724584
9	894	2052.092742760802	4.72216003366
9	897	2056.077613615024	0.40121378052
9	902	2067.39777761338	1.086929604744
9	903	2067.974328446973	1.194950547512
9	914	2095.18268940331	0.9142090826
9	915	2095.517054315337	1.205082064254
9	918	2097.043532164462	0.506687424729
9	927	2138.907903559154	7.484275897542
9	930	2142.388266548912	1.188267169508
9	933	2147.671380621603	1.336054124912
9	936	2149.174898076386	1.129646831886
9	944	2160.659466453336	9.004191695472
9	945	2160.921145608467	8.923449233349
9	948	2169.769155988556	5.745453340284
9	954	2176.535827437938	0.699884724086
9	972	2204.590956048687	21.337291738071
9	973	2207.85972561789	21.407986257848
9	974	2208.241393967544	17.970202609181
9	981	2223.871345374606	5.752485395224
9	984	2224.78874356902	0.600608811708
9	990	2283.429393304872	0.54931059188
9	996	2298.614091295526	0.044118142057
9	999	2306.354857163566	0.770848298564
9	1002	2329.808202095326	2.234081837186
9	1011	2357.379737960343	1.994753719724
9	1020	2376.780022230967	2.42470626098
9	1023	2380.568177934831	1.799728236988
9	1026	2384.53061741295	2.701185056307
9	1029	2389.422548110965	4.054947677494
9	1036	2404.518170022315	5.909645688665
9	1037	2405.621812449613	5.785449373808
9	1038	2407.091272428153	4.88403469379
9	1041	2408.445640947176	0.223607225915
9	1044	2422.456426601049	4.438632826214
9	1058	2468.327947414707	12.174016545293
9	1059	2468.342281688958	4.679120966088
9	1066	2473.943956169991	3.988317772865
9	1067	2474.452769651765	2.927222001411
9	1068	2475.40640870139	3.551058409283
9	1071	2481.432513061066	0.273902098746
9	1077	2492.671583729041	0.847411494502
10	196	419.115805167906	3
10	222	448.984162645259	4
10	229	453.306284690797	5
10	346	766.884422485837	6
10	367	815.902299426086	7
10	372	817.572190500044	8
10	460	986.879967410732	9
10	573	1227.224402541465	10
10	600	1296.391501752732	11
10	760	1764.137385416466	12
10	793	1831.000081940892	13
10	826	1904.479950762439	14
10	858	1974.554008801891	15
10	940	2151.655274757864	16
10	976	2209.341922937825	17
10	979	2218.118859979382	18
11	1078	2500	0.098
12	1078	2500	0.0456

