version 2
run experiments_easy_game_mode1-305-20230308-12:02:58-19931
attr configname experiments_easy_game_mode1
attr datetime 20230308-12:02:58
attr experiment experiments_easy_game_mode1
attr inifile omnetpp.ini
attr iterationvars "$0=5, $1=3.5, $2=0"
attr iterationvarsf 5,3.5,0-
attr measurement "$0=5, $1=3.5, $2=0"
attr network Network
attr processid 19931
attr repetition 5
attr replication #5
attr resultdir results
attr runnumber 305
attr seedset 5
param *.boss.arrival_mean 20
param *.boss.service_mean 5
param *.minion.arrival_mean 10
param *.minion.service_mean 3.5
param *.player.recover_rate_x 0
param **.minion.arrival_distribution 0
param **.minion.service_distribution 0
param **.boss.arrival_distribution 0
param **.boss.service_distribution 0

vector 0 Network.player boss_defeated_stat:vector ETV
attr source signal_boss_defeated
vector 1 Network.player boss_jobs_queue_number_stat:vector ETV
attr source signal_boss_jobs_queue_number
vector 2 Network.player boss_response_time_stat:vector ETV
attr source signal_boss_response_time
vector 3 Network.player minion_jobs_number_stat:vector ETV
attr source signal_minion_jobs_number
vector 4 Network.player minion_jobs_queue_number_stat:vector ETV
attr source signal_minion_jobs_queue_number
vector 5 Network.player minion_waiting_time_stat:vector ETV
attr source signal_minion_waiting_time
vector 6 Network.player minion_defeated_stat:vector ETV
attr source signal_minion_defeated
vector 7 Network.player minion_response_time_stat:vector ETV
attr source signal_minion_response_time
vector 8 Network.player boss_jobs_number_stat:vector ETV
attr source signal_boss_jobs_number
vector 9 Network.player boss_waiting_time_stat:vector ETV
attr source signal_boss_waiting_time
vector 10 Network.player minion_recovered_stat:vector ETV
attr source signal_minion_recovered
vector 11 Network.player minion_throughput:vector ETV
attr source signal_minion_throughput
vector 12 Network.player boss_throughput:vector ETV
attr source signal_boss_throughput
0	132	352.153959226776	19
0	143	384.69280911483	20
0	144	384.705148719596	21
0	147	392.482374793744	22
0	161	412.705211130998	23
0	172	441.531727928661	24
0	175	452.343563383107	25
0	176	452.343978869191	26
0	186	468.891454611709	27
0	212	526.417460262455	28
0	217	530.870354257102	29
0	218	533.586420236173	30
0	219	552.767964943804	31
0	222	558.489530617745	32
0	225	567.814208826407	33
0	228	574.798551494121	34
0	250	628.11473213203	35
0	258	642.546476969679	36
0	275	664.17758241064	37
0	276	666.68972877646	38
0	279	671.199275535015	39
0	296	715.306736918413	40
0	311	749.903906968698	41
0	332	802.030438096236	42
0	341	827.780229350482	43
0	374	883.044307710069	44
0	380	887.922958595102	45
0	387	895.543049325011	46
0	397	907.591083990979	47
0	406	918.584068381125	48
0	411	935.022515319217	49
0	429	965.218297256321	50
0	439	982.591652479872	51
0	448	993.185950264623	52
0	469	1018.987042073783	53
0	487	1088.314506891259	54
0	488	1090.441489807599	55
0	497	1110.419174333675	56
0	511	1169.126654541772	57
0	531	1199.437235879577	58
0	551	1281.786542774799	59
0	573	1334.879190531219	60
0	588	1363.149784318676	61
0	608	1412.491568744757	62
0	617	1448.728424851259	63
0	625	1465.554158252425	64
0	626	1466.188933255895	65
0	630	1474.729489876305	66
0	637	1483.128397108793	67
0	643	1504.98893954686	68
0	660	1541.622308759249	69
0	663	1547.026002522998	70
0	668	1571.563760989928	71
0	697	1632.039400920458	72
0	706	1650.09608815842	73
0	711	1662.751489283489	74
0	712	1665.873193352555	75
0	725	1678.68321485218	76
0	732	1692.104979253927	77
0	739	1704.613992080955	78
0	747	1713.944045116367	79
0	756	1740.275274389941	80
0	761	1746.071274878812	81
0	779	1812.445026922555	82
0	784	1819.872577436233	83
0	789	1831.601341753254	84
0	790	1836.934664151769	85
0	798	1854.292799308779	86
0	801	1858.655424758866	87
0	810	1868.973370291887	88
0	813	1870.082691133772	89
0	818	1883.840859431133	90
0	828	1907.548248491526	91
0	836	1944.937328115123	92
0	845	1970.870615890977	93
0	848	1979.684186589338	94
0	854	1984.884514547349	95
0	864	2005.504154040987	96
0	867	2009.84951805665	97
0	881	2043.604316702735	98
0	891	2068.65135966665	99
0	898	2076.399424914474	100
0	907	2092.243061902602	101
0	912	2102.779165017444	102
0	921	2120.283816049611	103
0	927	2131.235981524293	104
0	932	2157.943203256875	105
0	946	2177.41957526298	106
0	952	2191.834015886391	107
0	953	2191.971899365691	108
0	993	2265.177139724753	109
0	1014	2295.510252125768	110
0	1017	2319.55534565468	111
0	1041	2371.472353185635	112
0	1042	2374.606931049781	113
0	1053	2386.87237976446	114
0	1054	2397.431203829804	115
0	1065	2437.764480382394	116
0	1066	2438.562408681822	117
0	1074	2463.969349622183	118
0	1077	2470.145155841424	119
0	1080	2478.978392042899	120
1	132	352.153959226776	0
1	140	381.910508285344	0
1	142	382.12216177113	1
1	143	384.69280911483	1
1	144	384.705148719596	0
1	146	385.458599038288	0
1	147	392.482374793744	0
1	152	401.932998597983	0
1	154	404.293112790177	1
1	161	412.705211130998	1
1	169	437.903864460807	1
1	171	439.767450543379	2
1	172	441.531727928661	2
1	175	452.343563383107	1
1	176	452.343978869191	0
1	185	467.105152708054	0
1	186	468.891454611709	0
1	205	507.778352471988	0
1	207	511.970843354015	1
1	209	523.641403692857	2
1	211	523.764599663184	3
1	212	526.417460262455	3
1	214	526.525142992614	3
1	217	530.870354257102	3
1	218	533.586420236173	2
1	219	552.767964943804	1
1	221	556.097184880185	1
1	222	558.489530617745	1
1	224	564.45633319999	1
1	225	567.814208826407	1
1	228	574.798551494121	0
1	249	627.778284939314	0
1	250	628.11473213203	0
1	257	638.222539276565	0
1	258	642.546476969679	0
1	272	662.431607004495	0
1	274	662.436923341715	1
1	275	664.17758241064	1
1	276	666.68972877646	0
1	278	669.501349085891	0
1	279	671.199275535015	0
1	295	712.041199677948	0
1	296	715.306736918413	0
1	308	741.260931673624	0
1	311	749.903906968698	0
1	329	799.551242766425	0
1	332	802.030438096236	0
1	340	822.860284331871	0
1	341	827.780229350482	0
1	371	877.543810870645	0
1	374	883.044307710069	0
1	379	887.337605029767	0
1	380	887.922958595102	0
1	382	888.487505027603	0
1	387	895.543049325011	0
1	396	907.588439234243	0
1	397	907.591083990979	0
1	399	909.614822051967	0
1	406	918.584068381125	0
1	408	920.771602651114	0
1	411	935.022515319217	0
1	428	964.27347470108	0
1	429	965.218297256321	0
1	438	981.828805080065	0
1	439	982.591652479872	0
1	447	991.993690733228	0
1	448	993.185950264623	0
1	464	1016.249624094874	0
1	469	1018.987042073783	0
1	482	1077.928705248913	0
1	484	1080.302015026252	1
1	487	1088.314506891259	1
1	488	1090.441489807599	0
1	496	1107.584578418003	0
1	497	1110.419174333675	0
1	506	1158.933809594803	0
1	511	1169.126654541772	0
1	530	1188.996723057024	0
1	531	1199.437235879577	0
1	550	1278.988197943606	0
1	551	1281.786542774799	0
1	572	1331.699076905576	0
1	573	1334.879190531219	0
1	583	1354.3265869964	0
1	588	1363.149784318676	0
1	607	1410.690821772367	0
1	608	1412.491568744757	0
1	614	1442.401810080516	0
1	617	1448.728424851259	0
1	620	1458.263650676793	0
1	622	1458.853799594753	1
1	625	1465.554158252425	1
1	626	1466.188933255895	0
1	629	1474.67750170795	0
1	630	1474.729489876305	0
1	632	1478.591938273987	0
1	637	1483.128397108793	0
1	640	1499.350124495382	0
1	643	1504.98893954686	0
1	659	1540.927398831871	0
1	660	1541.622308759249	0
1	662	1543.83572861612	0
1	663	1547.026002522998	0
1	667	1571.160236717777	0
1	668	1571.563760989928	0
1	692	1627.011532211296	0
1	697	1632.039400920458	0
1	701	1641.200728983196	0
1	705	1649.139788179428	1
1	706	1650.09608815842	1
1	708	1651.886764969815	1
1	711	1662.751489283489	1
1	712	1665.873193352555	0
1	724	1677.97722850772	0
1	725	1678.68321485218	0
1	731	1691.221218932796	0
1	732	1692.104979253927	0
1	734	1695.469903337416	0
1	739	1704.613992080955	0
1	742	1709.973952942435	0
1	747	1713.944045116367	0
1	755	1734.173751778239	0
1	756	1740.275274389941	0
1	760	1741.631715878164	0
1	761	1746.071274878812	0
1	770	1795.251777029999	0
1	772	1796.186514870931	1
1	778	1810.233699922377	2
1	779	1812.445026922555	2
1	784	1819.872577436233	1
1	786	1821.747407345427	1
1	789	1831.601341753254	1
1	790	1836.934664151769	0
1	797	1852.560548192826	0
1	798	1854.292799308779	0
1	800	1854.576513861016	0
1	801	1858.655424758866	0
1	809	1868.175832967458	0
1	810	1868.973370291887	0
1	812	1869.101112407136	0
1	813	1870.082691133772	0
1	815	1883.079443135498	0
1	818	1883.840859431133	0
1	827	1906.172223784969	0
1	828	1907.548248491526	0
1	835	1929.509174591028	0
1	836	1944.937328115123	0
1	842	1967.343964080476	0
1	845	1970.870615890977	0
1	847	1979.682068380707	0
1	848	1979.684186589338	0
1	851	1982.357432335051	0
1	854	1984.884514547349	0
1	863	2003.786686497585	0
1	864	2005.504154040987	0
1	866	2006.5504223079	0
1	867	2009.84951805665	0
1	880	2040.249635521158	0
1	881	2043.604316702735	0
1	884	2053.063007369747	0
1	891	2068.65135966665	0
1	897	2076.247451695774	0
1	898	2076.399424914474	0
1	902	2080.649378436169	0
1	904	2086.329528345313	1
1	907	2092.243061902602	1
1	912	2102.779165017444	0
1	920	2116.760152658708	0
1	921	2120.283816049611	0
1	926	2130.649701280081	0
1	927	2131.235981524293	0
1	929	2149.349687489204	0
1	932	2157.943203256875	0
1	941	2171.319197265902	0
1	946	2177.41957526298	0
1	949	2183.040962897326	0
1	951	2183.478361293144	1
1	952	2191.834015886391	1
1	953	2191.971899365691	0
1	992	2263.858396856056	0
1	993	2265.177139724753	0
1	1013	2294.457992447564	0
1	1014	2295.510252125768	0
1	1016	2319.143568197383	0
1	1017	2319.55534565468	0
1	1036	2364.097716176362	0
1	1040	2369.034416376807	1
1	1041	2371.472353185635	1
1	1042	2374.606931049781	0
1	1046	2379.332298766566	0
1	1050	2382.99845866801	1
1	1053	2386.87237976446	1
1	1054	2397.431203829804	0
1	1060	2420.064793868789	0
1	1064	2435.541766541786	1
1	1065	2437.764480382394	1
1	1066	2438.562408681822	0
1	1073	2461.309526535168	0
1	1074	2463.969349622183	0
1	1076	2468.83020005602	0
1	1077	2470.145155841424	0
1	1079	2471.034788360199	0
1	1080	2478.978392042899	0
2	132	352.153959226776	2.654547265895
2	143	384.69280911483	2.782300829486
2	144	384.705148719596	2.582986948466
2	147	392.482374793744	7.023775755456
2	161	412.705211130998	10.772212533015
2	172	441.531727928661	37.238615138484
2	175	452.343563383107	14.4396989223
2	176	452.343978869191	12.576528325812
2	186	468.891454611709	1.786301903655
2	212	526.417460262455	18.639107790467
2	217	530.870354257102	18.899510903087
2	218	533.586420236173	9.945016543316
2	219	552.767964943804	29.00336528062
2	222	558.489530617745	31.964387625131
2	225	567.814208826407	11.717023946222
2	228	574.798551494121	10.342218294131
2	250	628.11473213203	0.336447192716
2	258	642.546476969679	4.323937693114
2	275	664.17758241064	1.745975406145
2	276	666.68972877646	4.252805434745
2	279	671.199275535015	1.697926449124
2	296	715.306736918413	3.265537240465
2	311	749.903906968698	8.642975295074
2	332	802.030438096236	2.479195329811
2	341	827.780229350482	4.919945018611
2	374	883.044307710069	5.500496839424
2	380	887.922958595102	0.585353565335
2	387	895.543049325011	7.055544297408
2	397	907.591083990979	0.002644756736
2	406	918.584068381125	8.969246329158
2	411	935.022515319217	14.250912668103
2	429	965.218297256321	0.944822555241
2	439	982.591652479872	0.762847399807
2	448	993.185950264623	1.192259531395
2	469	1018.987042073783	2.737417978909
2	487	1088.314506891259	10.385801642346
2	488	1090.441489807599	10.139474781347
2	497	1110.419174333675	2.834595915672
2	511	1169.126654541772	10.192844946969
2	531	1199.437235879577	10.440512822553
2	551	1281.786542774799	2.798344831193
2	573	1334.879190531219	3.180113625643
2	588	1363.149784318676	8.823197322276
2	608	1412.491568744757	1.80074697239
2	617	1448.728424851259	6.326614770743
2	625	1465.554158252425	7.290507575632
2	626	1466.188933255895	7.335133661142
2	630	1474.729489876305	0.051988168355
2	637	1483.128397108793	4.536458834806
2	643	1504.98893954686	5.638815051478
2	660	1541.622308759249	0.694909927378
2	663	1547.026002522998	3.190273906878
2	668	1571.563760989928	0.403524272151
2	697	1632.039400920458	5.027868709162
2	706	1650.09608815842	8.895359175224
2	711	1662.751489283489	13.611701104061
2	712	1665.873193352555	13.98642838274
2	725	1678.68321485218	0.70598634446
2	732	1692.104979253927	0.883760321131
2	739	1704.613992080955	9.144088743539
2	747	1713.944045116367	3.970092173932
2	756	1740.275274389941	6.101522611702
2	761	1746.071274878812	4.439559000648
2	779	1812.445026922555	17.193249892556
2	784	1819.872577436233	23.686062565302
2	789	1831.601341753254	21.367641830877
2	790	1836.934664151769	15.187256806342
2	798	1854.292799308779	1.732251115953
2	801	1858.655424758866	4.07891089785
2	810	1868.973370291887	0.797537324429
2	813	1870.082691133772	0.981578726636
2	818	1883.840859431133	0.761416295635
2	828	1907.548248491526	1.376024706557
2	836	1944.937328115123	15.428153524095
2	845	1970.870615890977	3.526651810501
2	848	1979.684186589338	0.002118208631
2	854	1984.884514547349	2.527082212298
2	864	2005.504154040987	1.717467543402
2	867	2009.84951805665	3.29909574875
2	881	2043.604316702735	3.354681181577
2	891	2068.65135966665	15.588352296903
2	898	2076.399424914474	0.1519732187
2	907	2092.243061902602	11.593683466433
2	912	2102.779165017444	16.449636672131
2	921	2120.283816049611	3.523663390903
2	927	2131.235981524293	0.586280244212
2	932	2157.943203256875	8.593515767671
2	946	2177.41957526298	6.100377997078
2	952	2191.834015886391	8.793052989065
2	953	2191.971899365691	8.493538072547
2	993	2265.177139724753	1.318742868697
2	1014	2295.510252125768	1.052259678204
2	1017	2319.55534565468	0.411777457297
2	1041	2371.472353185635	7.374637009273
2	1042	2374.606931049781	5.572514672974
2	1053	2386.87237976446	7.540080997894
2	1054	2397.431203829804	14.432745161794
2	1065	2437.764480382394	17.699686513605
2	1066	2438.562408681822	3.020642140036
2	1074	2463.969349622183	2.659823087015
2	1077	2470.145155841424	1.314955785404
2	1080	2478.978392042899	7.9436036827
3	134	354.172507827807	1
3	137	373.165573927013	1
3	149	393.279838510632	1
3	156	408.207277351423	1
3	158	411.99829745011	2
3	160	412.37183081957	3
3	163	436.073400872944	4
3	165	437.314233815506	5
3	167	437.327952946813	6
3	174	451.242256151972	7
3	180	459.810452974783	6
3	182	462.544540123058	7
3	188	468.979055047066	7
3	190	471.920162134502	8
3	194	475.095408618298	7
3	198	494.588354537745	6
3	201	497.713550616588	6
3	216	527.626775085374	5
3	227	571.143215401286	6
3	232	579.391432256081	5
3	239	605.943574795199	1
3	241	607.913223543641	2
3	243	609.957947543076	3
3	247	624.665666816139	2
3	252	630.706851864441	3
3	255	637.487093734645	3
3	260	643.417267897842	4
3	266	653.393714807935	1
3	269	656.310268947339	1
3	281	674.6047529137	1
3	284	695.335114389194	1
3	287	701.516242444663	1
3	290	704.925125838561	1
3	293	711.815483747498	1
3	298	715.664169776615	2
3	302	727.040126940911	1
3	305	735.618888755847	1
3	310	746.139589939481	1
3	314	762.644089716245	1
3	317	765.774707186922	1
3	320	768.538631314541	1
3	322	769.235612506848	2
3	326	787.248359323836	1
3	331	802.008149240264	1
3	335	815.757023724541	1
3	338	822.315232027055	1
3	343	828.136835226231	2
3	346	832.129773314188	2
3	348	833.062464632352	3
3	351	840.209054935251	3
3	354	845.043579502083	3
3	358	848.103789288935	2
3	361	853.51756743213	2
3	364	857.235620783026	2
3	368	871.716141047027	1
3	373	881.573981200952	1
3	376	883.796395950465	2
3	384	891.948409974863	2
3	386	892.451265341315	3
3	389	896.287023108023	4
3	394	907.496880138223	2
3	401	912.519557305623	3
3	403	912.719751269411	4
3	405	915.703469079402	5
3	410	931.627609079209	6
3	415	940.35611761368	5
3	419	952.926673196333	4
3	421	954.689615315032	5
3	425	958.18994317615	4
3	431	967.306304503991	4
3	433	971.293520383222	5
3	443	988.770386098451	1
3	445	991.89196686214	2
3	450	993.592636988663	3
3	452	995.06088645478	4
3	456	1008.314780315635	3
3	460	1012.966214610902	2
3	466	1018.219575777321	1
3	468	1018.378246406112	2
3	473	1033.460060157527	1
3	476	1037.687100701228	1
3	479	1053.982005230281	1
3	486	1087.119359711866	1
3	491	1102.540491660609	1
3	494	1104.720238786165	1
3	500	1113.692156924454	1
3	503	1148.073931961739	1
3	508	1158.994943503307	1
3	510	1159.869971217089	2
3	514	1170.270592856227	2
3	516	1172.886145916887	3
3	520	1178.431073673036	2
3	523	1180.180260533885	2
3	527	1187.386849011417	1
3	533	1213.938108252133	1
3	536	1220.894768537029	1
3	539	1246.89843674697	1
3	541	1247.276325723585	2
3	545	1266.056222790817	1
3	548	1278.370214318002	1
3	553	1284.448987743469	2
3	556	1294.136166031973	2
3	560	1301.96258254879	1
3	563	1317.004740683419	1
3	565	1321.089472312076	2
3	568	1327.240403897141	2
3	575	1339.31192988468	1
3	578	1344.089152158986	1
3	581	1354.139097917223	1
3	585	1357.590687385923	2
3	587	1362.401640317386	3
3	593	1370.548662839093	1
3	596	1393.477834516225	1
3	599	1394.357009853883	1
3	602	1399.467597341814	1
3	604	1409.444819982285	2
3	611	1413.916469106427	1
3	616	1442.842899766702	1
3	624	1460.245386861678	1
3	634	1482.431277285998	1
3	636	1482.922469037112	2
3	642	1504.007678257348	2
3	647	1516.603279450633	1
3	650	1520.830688733209	1
3	652	1521.897440116271	2
3	656	1534.041056993256	1
3	665	1567.933072131845	1
3	671	1575.426811134132	1
3	673	1577.614321941095	2
3	677	1588.382349111459	1
3	680	1604.98445020996	1
3	683	1608.10816906207	1
3	685	1611.611585584382	2
3	689	1620.970579796187	1
3	694	1629.016241169596	1
3	696	1629.509796788956	2
3	703	1645.107593448206	1
3	710	1656.998456245854	2
3	714	1667.385312246145	3
3	717	1670.941665386543	3
3	722	1677.340756018396	1
3	728	1679.151605878875	1
3	736	1698.499432454028	1
3	738	1702.537875751213	2
3	744	1710.023199632792	2
3	746	1711.831678986269	3
3	749	1715.794270075167	4
3	758	1740.402810295447	1
3	764	1754.371851842985	1
3	767	1757.712952114246	1
3	774	1803.563631578393	1
3	776	1804.702121163114	2
3	781	1813.945618333506	3
3	783	1815.189939142241	4
3	788	1830.000877789753	5
3	793	1844.087242559274	5
3	806	1865.352465476735	1
3	817	1883.609421275364	1
3	820	1885.977274496929	2
3	822	1886.339112843074	3
3	830	1925.322903074237	1
3	832	1926.617656675168	2
3	838	1946.452518246029	2
3	844	1968.617331088617	1
3	853	1983.774184273965	1
3	857	1991.012150132266	1
3	860	1995.96333466045	1
3	869	2021.788839862228	1
3	872	2027.965610252793	1
3	875	2036.670246191136	1
3	878	2038.612038391061	1
3	886	2053.451391923639	1
3	888	2059.720372977221	2
3	890	2065.213904978399	3
3	893	2070.960011779213	4
3	906	2088.416297189241	1
3	909	2094.55514914724	2
3	911	2099.423059657969	3
3	915	2109.526301819064	3
3	918	2113.901216392289	3
3	931	2152.7373224416	1
3	934	2158.324858173646	2
3	938	2170.032935115697	1
3	943	2175.059280819876	1
3	945	2175.89386075536	2
3	955	2194.513301538501	2
3	958	2197.181186761374	2
3	961	2201.862421686758	2
3	963	2205.989717082358	3
3	968	2210.635198036061	1
3	971	2215.605995918517	1
3	974	2220.983562150837	1
3	977	2237.146804838887	1
3	979	2242.672738216294	2
3	981	2243.211192938679	3
3	986	2254.082127145278	1
3	988	2255.276179260871	2
3	990	2257.380623580054	3
3	996	2265.712071714624	3
3	1000	2278.530645851194	2
3	1002	2279.373335041389	3
3	1004	2282.299088262717	4
3	1008	2288.557943251978	3
3	1019	2321.438632138943	1
3	1022	2332.743083346899	1
3	1024	2334.166339972331	2
3	1026	2334.24183420918	3
3	1031	2350.681956625492	1
3	1034	2362.032617962155	1
3	1038	2366.417596998391	2
3	1048	2382.613350806866	1
3	1052	2383.497710697982	2
3	1058	2419.292970577924	1
3	1062	2432.429685492346	2
3	1070	2452.103637946343	1
4	134	354.172507827807	0
4	135	359.339425438426	0
4	137	373.165573927013	0
4	138	373.852156852444	0
4	149	393.279838510632	0
4	150	394.92644651559	0
4	156	408.207277351423	0
4	158	411.99829745011	1
4	160	412.37183081957	2
4	163	436.073400872944	3
4	165	437.314233815506	4
4	167	437.327952946813	5
4	174	451.242256151972	6
4	177	454.741616225876	6
4	178	456.6829073772	5
4	180	459.810452974783	5
4	182	462.544540123058	6
4	183	463.658037493428	6
4	188	468.979055047066	6
4	190	471.920162134502	7
4	191	473.870993299745	7
4	192	475.030696603568	6
4	194	475.095408618298	6
4	195	487.360709437689	6
4	196	490.415000795924	5
4	198	494.588354537745	5
4	199	495.399751648468	5
4	201	497.713550616588	5
4	202	503.893311807626	5
4	203	506.31566766718	4
4	216	527.626775085374	4
4	227	571.143215401286	5
4	229	576.002517932785	5
4	230	577.841637653885	4
4	232	579.391432256081	4
4	233	580.794664485726	4
4	234	581.029179705872	3
4	235	585.402533577495	2
4	236	592.701996976918	1
4	237	593.806697287092	0
4	239	605.943574795199	0
4	241	607.913223543641	1
4	243	609.957947543076	2
4	244	615.07852924406	2
4	245	621.815516441448	1
4	247	624.665666816139	1
4	252	630.706851864441	2
4	253	636.66779983609	2
4	255	637.487093734645	2
4	260	643.417267897842	3
4	261	643.758813305412	3
4	262	648.764764026628	2
4	263	652.25637951414	1
4	264	653.182963218345	0
4	266	653.393714807935	0
4	267	655.938398907351	0
4	269	656.310268947339	0
4	270	657.397258566147	0
4	281	674.6047529137	0
4	282	675.247792036948	0
4	284	695.335114389194	0
4	285	695.646682142247	0
4	287	701.516242444663	0
4	288	702.758072295912	0
4	290	704.925125838561	0
4	291	709.789152482421	0
4	293	711.815483747498	0
4	298	715.664169776615	1
4	299	716.250005488673	1
4	300	717.953824328844	0
4	302	727.040126940911	0
4	303	728.427267473385	0
4	305	735.618888755847	0
4	306	738.884652114776	0
4	310	746.139589939481	0
4	312	752.061468162056	0
4	314	762.644089716245	0
4	315	763.266242146539	0
4	317	765.774707186922	0
4	318	768.525954270058	0
4	320	768.538631314541	0
4	322	769.235612506848	1
4	323	770.335231863471	1
4	324	771.193203223899	0
4	326	787.248359323836	0
4	327	792.958782792182	0
4	331	802.008149240264	0
4	333	807.661167300699	0
4	335	815.757023724541	0
4	336	818.481810054575	0
4	338	822.315232027055	0
4	343	828.136835226231	1
4	344	831.775125990023	1
4	346	832.129773314188	1
4	348	833.062464632352	2
4	349	836.733939320639	2
4	351	840.209054935251	2
4	352	843.357394696292	2
4	354	845.043579502083	2
4	355	845.135523190639	2
4	356	846.225149166067	1
4	358	848.103789288935	1
4	359	851.883926721858	1
4	361	853.51756743213	1
4	362	855.223125311171	1
4	364	857.235620783026	1
4	365	861.830510941215	1
4	366	865.532558189185	0
4	368	871.716141047027	0
4	369	872.016733564906	0
4	373	881.573981200952	0
4	376	883.796395950465	1
4	377	884.756125969877	1
4	384	891.948409974863	1
4	386	892.451265341315	2
4	389	896.287023108023	3
4	390	902.396907364437	3
4	391	904.245723628799	2
4	392	906.83912865823	1
4	394	907.496880138223	1
4	401	912.519557305623	2
4	403	912.719751269411	3
4	405	915.703469079402	4
4	410	931.627609079209	5
4	412	936.339108382316	5
4	413	939.549358489246	4
4	415	940.35611761368	4
4	416	944.553307485451	4
4	417	952.554744111981	3
4	419	952.926673196333	3
4	421	954.689615315032	4
4	422	955.43336196989	4
4	423	956.283236884913	3
4	425	958.18994317615	3
4	426	958.640163974913	3
4	431	967.306304503991	3
4	433	971.293520383222	4
4	434	971.385689567012	4
4	435	976.48830098296	3
4	436	978.672783321469	2
4	440	984.518305053839	1
4	441	988.216024678584	0
4	443	988.770386098451	0
4	445	991.89196686214	1
4	450	993.592636988663	2
4	452	995.06088645478	3
4	453	999.432161737735	3
4	454	1001.645305338345	2
4	456	1008.314780315635	2
4	457	1009.296951874477	2
4	458	1009.399222702817	1
4	460	1012.966214610902	1
4	461	1013.599861950542	1
4	462	1014.75687903511	0
4	466	1018.219575777321	0
4	468	1018.378246406112	1
4	470	1021.107521967605	1
4	471	1025.473258766683	0
4	473	1033.460060157527	0
4	474	1034.738123973701	0
4	476	1037.687100701228	0
4	477	1039.352927583551	0
4	479	1053.982005230281	0
4	480	1059.985441301765	0
4	486	1087.119359711866	0
4	489	1093.625743321349	0
4	491	1102.540491660609	0
4	492	1103.067007248782	0
4	494	1104.720238786165	0
4	498	1112.175491790763	0
4	500	1113.692156924454	0
4	501	1115.487617710597	0
4	503	1148.073931961739	0
4	504	1149.225804049736	0
4	508	1158.994943503307	0
4	510	1159.869971217089	1
4	512	1170.04694608325	1
4	514	1170.270592856227	1
4	516	1172.886145916887	2
4	517	1173.227050221276	2
4	518	1176.351553527435	1
4	520	1178.431073673036	1
4	521	1178.796875639669	1
4	523	1180.180260533885	1
4	524	1186.40556406995	1
4	525	1186.913266187568	0
4	527	1187.386849011417	0
4	528	1188.776742646779	0
4	533	1213.938108252133	0
4	534	1217.477863074793	0
4	536	1220.894768537029	0
4	537	1226.609414372273	0
4	539	1246.89843674697	0
4	541	1247.276325723585	1
4	542	1248.810705761276	1
4	543	1254.399444635076	0
4	545	1266.056222790817	0
4	546	1267.307292217981	0
4	548	1278.370214318002	0
4	553	1284.448987743469	1
4	554	1285.003500272236	1
4	556	1294.136166031973	1
4	557	1295.370505713104	1
4	558	1296.350025207222	0
4	560	1301.96258254879	0
4	561	1306.022853722574	0
4	563	1317.004740683419	0
4	565	1321.089472312076	1
4	566	1322.994039968075	1
4	568	1327.240403897141	1
4	569	1327.54813897457	1
4	570	1329.754407455002	0
4	575	1339.31192988468	0
4	576	1341.053699560917	0
4	578	1344.089152158986	0
4	579	1348.791932536433	0
4	581	1354.139097917223	0
4	585	1357.590687385923	1
4	587	1362.401640317386	2
4	589	1363.257087226323	2
4	590	1365.41793129315	1
4	591	1367.144956279248	0
4	593	1370.548662839093	0
4	594	1377.533721831706	0
4	596	1393.477834516225	0
4	597	1393.865553698994	0
4	599	1394.357009853883	0
4	600	1398.596256262155	0
4	602	1399.467597341814	0
4	604	1409.444819982285	1
4	605	1410.362152834933	1
4	609	1412.806524861614	0
4	611	1413.916469106427	0
4	612	1418.332133145999	0
4	616	1442.842899766702	0
4	618	1449.419788343398	0
4	624	1460.245386861678	0
4	627	1467.833235943566	0
4	634	1482.431277285998	0
4	636	1482.922469037112	1
4	638	1489.766101684258	1
4	642	1504.007678257348	1
4	644	1505.737149209854	1
4	645	1507.327223932657	0
4	647	1516.603279450633	0
4	648	1517.545923398715	0
4	650	1520.830688733209	0
4	652	1521.897440116271	1
4	653	1522.509662436626	1
4	654	1526.722297538248	0
4	656	1534.041056993256	0
4	657	1534.188339051543	0
4	665	1567.933072131845	0
4	669	1572.79327081974	0
4	671	1575.426811134132	0
4	673	1577.614321941095	1
4	674	1578.946297755007	1
4	675	1580.535676794753	0
4	677	1588.382349111459	0
4	678	1594.089277504464	0
4	680	1604.98445020996	0
4	681	1605.0903047798	0
4	683	1608.10816906207	0
4	685	1611.611585584382	1
4	686	1616.074409733044	1
4	687	1618.020230618394	0
4	689	1620.970579796187	0
4	690	1621.728747141252	0
4	694	1629.016241169596	0
4	696	1629.509796788956	1
4	698	1632.496286166439	1
4	699	1639.311862897575	0
4	703	1645.107593448206	0
4	710	1656.998456245854	1
4	714	1667.385312246145	2
4	715	1670.476121681947	2
4	717	1670.941665386543	2
4	718	1671.156768538119	2
4	719	1672.830748696137	1
4	720	1674.467489332547	0
4	722	1677.340756018396	0
4	726	1678.92045807179	0
4	728	1679.151605878875	0
4	729	1680.837618858589	0
4	736	1698.499432454028	0
4	738	1702.537875751213	1
4	740	1709.784320758301	1
4	744	1710.023199632792	1
4	746	1711.831678986269	2
4	749	1715.794270075167	3
4	750	1716.713562279846	3
4	751	1718.218253382914	2
4	752	1720.723106786203	1
4	753	1726.211094422021	0
4	758	1740.402810295447	0
4	762	1747.47808398193	0
4	764	1754.371851842985	0
4	765	1755.700183123391	0
4	767	1757.712952114246	0
4	768	1760.305275517754	0
4	774	1803.563631578393	0
4	776	1804.702121163114	1
4	781	1813.945618333506	2
4	783	1815.189939142241	3
4	788	1830.000877789753	4
4	791	1839.688617064289	4
4	793	1844.087242559274	4
4	794	1849.091187143892	4
4	795	1851.919746104737	3
4	802	1859.472942862108	2
4	803	1859.823085398732	1
4	804	1863.133571787999	0
4	806	1865.352465476735	0
4	807	1866.31802636976	0
4	817	1883.609421275364	0
4	820	1885.977274496929	1
4	822	1886.339112843074	2
4	823	1889.766305867282	2
4	824	1899.436565944935	1
4	825	1900.704316803872	0
4	830	1925.322903074237	0
4	832	1926.617656675168	1
4	833	1928.946480236458	1
4	838	1946.452518246029	1
4	839	1948.312617382759	1
4	840	1949.16796228321	0
4	844	1968.617331088617	0
4	849	1979.876598514914	0
4	853	1983.774184273965	0
4	855	1988.919336805736	0
4	857	1991.012150132266	0
4	858	1991.266032457619	0
4	860	1995.96333466045	0
4	861	1998.689645807774	0
4	869	2021.788839862228	0
4	870	2027.116550920576	0
4	872	2027.965610252793	0
4	873	2029.788285046182	0
4	875	2036.670246191136	0
4	876	2036.795314875024	0
4	878	2038.612038391061	0
4	882	2043.947720009761	0
4	886	2053.451391923639	0
4	888	2059.720372977221	1
4	890	2065.213904978399	2
4	893	2070.960011779213	3
4	894	2071.141516604995	3
4	895	2075.246023733304	2
4	899	2078.637176202118	1
4	900	2079.657569076398	0
4	906	2088.416297189241	0
4	909	2094.55514914724	1
4	911	2099.423059657969	2
4	913	2106.884201450906	2
4	915	2109.526301819064	2
4	916	2113.237650535771	2
4	918	2113.901216392289	2
4	922	2120.770058647972	2
4	923	2120.939391574754	1
4	924	2122.704371557625	0
4	931	2152.7373224416	0
4	934	2158.324858173646	1
4	935	2160.547063352237	1
4	936	2160.818268823303	0
4	938	2170.032935115697	0
4	939	2170.096678646067	0
4	943	2175.059280819876	0
4	945	2175.89386075536	1
4	947	2180.669241301514	1
4	955	2194.513301538501	1
4	956	2195.316532388253	1
4	958	2197.181186761374	1
4	959	2199.677570276238	1
4	961	2201.862421686758	1
4	963	2205.989717082358	2
4	964	2207.722440484467	2
4	965	2208.29444750917	1
4	966	2209.521983703269	0
4	968	2210.635198036061	0
4	969	2213.97384122756	0
4	971	2215.605995918517	0
4	972	2216.505597606232	0
4	974	2220.983562150837	0
4	975	2221.555884212174	0
4	977	2237.146804838887	0
4	979	2242.672738216294	1
4	981	2243.211192938679	2
4	982	2244.511809637153	2
4	983	2246.679706502923	1
4	984	2248.539090505457	0
4	986	2254.082127145278	0
4	988	2255.276179260871	1
4	990	2257.380623580054	2
4	994	2265.659369444232	2
4	996	2265.712071714624	2
4	997	2272.151245375225	2
4	998	2276.113436499193	1
4	1000	2278.530645851194	1
4	1002	2279.373335041389	2
4	1004	2282.299088262717	3
4	1005	2283.69255422026	3
4	1006	2287.813380242728	2
4	1008	2288.557943251978	2
4	1009	2288.674409300069	2
4	1010	2290.849249162262	1
4	1011	2294.179758899305	0
4	1019	2321.438632138943	0
4	1020	2330.140300360474	0
4	1022	2332.743083346899	0
4	1024	2334.166339972331	1
4	1026	2334.24183420918	2
4	1027	2334.78939156983	2
4	1028	2339.405499631848	1
4	1029	2344.302415733936	0
4	1031	2350.681956625492	0
4	1032	2350.689316119905	0
4	1034	2362.032617962155	0
4	1038	2366.417596998391	1
4	1043	2374.682311611095	1
4	1044	2378.593837317593	0
4	1048	2382.613350806866	0
4	1052	2383.497710697982	1
4	1055	2397.561764680945	1
4	1056	2400.587582535794	0
4	1058	2419.292970577924	0
4	1062	2432.429685492346	1
4	1067	2441.574083015025	1
4	1068	2443.856138482795	0
4	1070	2452.103637946343	0
4	1071	2453.58459544823	0
5	134	354.172507827807	0
5	137	373.165573927013	0
5	149	393.279838510632	0
5	176	452.343978869191	44.136701517768
5	177	454.741616225876	42.743318775766
5	178	456.6829073772	44.31107655763
5	183	463.658037493428	27.584636620484
5	186	468.891454611709	31.577220796203
5	191	473.870993299745	36.543040352932
5	192	475.030696603568	23.788440451596
5	195	487.360709437689	27.550256462906
5	196	490.415000795924	27.870460672866
5	199	495.399751648468	28.294598940414
5	202	503.893311807626	34.91425676056
5	203	506.31566766718	34.395505532678
5	228	574.798551494121	99.703142875823
5	229	576.002517932785	81.41416339504
5	230	577.841637653885	80.128087037297
5	233	580.794664485726	73.016312013738
5	234	581.029179705872	53.402404620498
5	235	585.402533577495	14.259318176209
5	236	592.701996976918	13.310564720837
5	239	605.943574795199	0
5	244	615.07852924406	7.165305700419
5	245	621.815516441448	11.857568898372
5	250	628.11473213203	3.449065315891
5	253	636.66779983609	8.889514896776
5	258	642.546476969679	11.839625105238
5	261	643.758813305412	6.271719570767
5	262	648.764764026628	10.542224750063
5	263	652.25637951414	8.839111616298
5	266	653.393714807935	0
5	269	656.310268947339	0
5	281	674.6047529137	0
5	284	695.335114389194	0
5	287	701.516242444663	0
5	290	704.925125838561	0
5	293	711.815483747498	0
5	296	715.306736918413	3.265537240465
5	299	716.250005488673	0.585835712058
5	302	727.040126940911	0
5	305	735.618888755847	0
5	311	749.903906968698	3.764317029217
5	314	762.644089716245	0
5	317	765.774707186922	0
5	320	768.538631314541	0
5	323	770.335231863471	1.099619356623
5	326	787.248359323836	0
5	332	802.030438096236	0.022288855972
5	335	815.757023724541	0
5	338	822.315232027055	0
5	341	827.780229350482	4.919945018611
5	344	831.775125990023	3.638290763792
5	349	836.733939320639	4.604166006451
5	352	843.357394696292	10.29493006394
5	355	845.135523190639	4.926468255388
5	356	846.225149166067	1.181569663984
5	359	851.883926721858	3.780137432923
5	362	855.223125311171	1.705557879041
5	365	861.830510941215	4.594890158189
5	368	871.716141047027	0
5	374	883.044307710069	1.470326509117
5	377	884.756125969877	0.959730019412
5	380	887.922958595102	0.585353565335
5	387	895.543049325011	7.055544297408
5	390	902.396907364437	10.448497389574
5	391	904.245723628799	11.794458287484
5	392	906.83912865823	10.552105550207
5	397	907.591083990979	0.094203852756
5	406	918.584068381125	10.995629146882
5	411	935.022515319217	25.40769326725
5	412	936.339108382316	23.819551076693
5	413	939.549358489246	26.829607219835
5	416	944.553307485451	28.849838406049
5	417	952.554744111981	31.783141460867
5	422	955.43336196989	23.805752890681
5	423	956.283236884913	15.927119271233
5	426	958.640163974913	5.71349077858
5	429	965.218297256321	10.528681941289
5	434	971.385689567012	13.195746390862
5	435	976.48830098296	12.21482628188
5	436	978.672783321469	11.366478817478
5	439	982.591652479872	11.29813209665
5	440	984.518305053839	2.689499973774
5	443	988.770386098451	0
5	448	993.185950264623	1.293983402483
5	453	999.432161737735	7.438471004507
5	454	1001.645305338345	8.052668349682
5	457	1009.296951874477	14.236065419697
5	458	1009.399222702817	1.084442387182
5	461	1013.599861950542	0.63364733964
5	469	1018.987042073783	0.767466296462
5	470	1021.107521967605	2.729275561493
5	473	1033.460060157527	0
5	476	1037.687100701228	0
5	479	1053.982005230281	0
5	488	1090.441489807599	3.322130095733
5	491	1102.540491660609	0
5	494	1104.720238786165	0
5	497	1110.419174333675	2.834595915672
5	500	1113.692156924454	0
5	503	1148.073931961739	0
5	511	1169.126654541772	10.131711038465
5	512	1170.04694608325	10.176974866161
5	517	1173.227050221276	2.956457365049
5	518	1176.351553527435	3.465407610548
5	521	1178.796875639669	0.365801966633
5	524	1186.40556406995	6.225303536065
5	527	1187.386849011417	0
5	533	1213.938108252133	0
5	536	1220.894768537029	0
5	539	1246.89843674697	0
5	542	1248.810705761276	1.534380037691
5	545	1266.056222790817	0
5	548	1278.370214318002	0
5	551	1281.786542774799	2.798344831193
5	554	1285.003500272236	0.554512528767
5	557	1295.370505713104	1.234339681131
5	560	1301.96258254879	0
5	563	1317.004740683419	0
5	566	1322.994039968075	1.904567655999
5	569	1327.54813897457	0.307735077429
5	575	1339.31192988468	0
5	578	1344.089152158986	0
5	581	1354.139097917223	0
5	588	1363.149784318676	8.823197322276
5	589	1363.257087226323	5.6663998404
5	590	1365.41793129315	3.016290975764
5	593	1370.548662839093	0
5	596	1393.477834516225	0
5	599	1394.357009853883	0
5	602	1399.467597341814	0
5	605	1410.362152834933	0.917332852648
5	608	1412.491568744757	1.80074697239
5	611	1413.916469106427	0
5	617	1448.728424851259	5.885525084557
5	626	1466.188933255895	5.943546394217
5	637	1483.128397108793	0.697119822795
5	638	1489.766101684258	6.843632647146
5	643	1504.98893954686	5.638815051478
5	644	1505.737149209854	1.729470952506
5	647	1516.603279450633	0
5	650	1520.830688733209	0
5	653	1522.509662436626	0.612222320355
5	656	1534.041056993256	0
5	665	1567.933072131845	0
5	668	1571.563760989928	0.403524272151
5	671	1575.426811134132	0
5	674	1578.946297755007	1.331975813912
5	677	1588.382349111459	0
5	680	1604.98445020996	0
5	683	1608.10816906207	0
5	686	1616.074409733044	4.462824148662
5	689	1620.970579796187	0
5	697	1632.039400920458	3.023159750862
5	698	1632.496286166439	2.986489377483
5	712	1665.873193352555	20.765599904349
5	715	1670.476121681947	13.477665436093
5	718	1671.156768538119	3.771456291974
5	719	1672.830748696137	1.889083309594
5	722	1677.340756018396	0
5	725	1678.68321485218	0.70598634446
5	728	1679.151605878875	0
5	739	1704.613992080955	6.114559626927
5	740	1709.784320758301	7.246445007088
5	747	1713.944045116367	3.970092173932
5	750	1716.713562279846	6.690362647054
5	751	1718.218253382914	6.386574396645
5	752	1720.723106786203	4.928836711036
5	758	1740.402810295447	0
5	761	1746.071274878812	4.439559000648
5	764	1754.371851842985	0
5	767	1757.712952114246	0
5	790	1836.934664151769	33.371032573376
5	791	1839.688617064289	34.986495901175
5	794	1849.091187143892	35.145568810386
5	795	1851.919746104737	36.729806962496
5	798	1854.292799308779	24.291921519026
5	801	1858.655424758866	14.568182199592
5	802	1859.472942862108	6.912394669282
5	803	1859.823085398732	5.246571537716
5	806	1865.352465476735	0
5	818	1883.840859431133	0.231438155769
5	823	1889.766305867282	3.789031370353
5	824	1899.436565944935	13.097453101861
5	830	1925.322903074237	0
5	833	1928.946480236458	2.32882356129
5	836	1944.937328115123	15.428153524095
5	839	1948.312617382759	1.86009913673
5	845	1970.870615890977	2.25328480236
5	848	1979.684186589338	0.002118208631
5	854	1984.884514547349	1.110330273384
5	857	1991.012150132266	0
5	860	1995.96333466045	0
5	869	2021.788839862228	0
5	872	2027.965610252793	0
5	875	2036.670246191136	0
5	878	2038.612038391061	0
5	881	2043.604316702735	3.354681181577
5	891	2068.65135966665	15.199967743011
5	894	2071.141516604995	11.421143627774
5	895	2075.246023733304	10.032118754905
5	898	2076.399424914474	5.439413135261
5	899	2078.637176202118	2.389724506344
5	912	2102.779165017444	14.362867828203
5	913	2106.884201450906	12.329052303666
5	916	2113.237650535771	13.814590877802
5	921	2120.283816049611	10.757514230547
5	922	2120.770058647972	6.868842255683
5	923	2120.939391574754	4.179238916046
5	932	2157.943203256875	5.205880815275
5	935	2160.547063352237	2.222205178591
5	938	2170.032935115697	0
5	946	2177.41957526298	2.360294443104
5	947	2180.669241301514	4.775380546154
5	953	2191.971899365691	8.930936468365
5	956	2195.316532388253	0.803230849752
5	959	2199.677570276238	2.496383514864
5	964	2207.722440484467	5.860018797709
5	965	2208.29444750917	2.304730426812
5	968	2210.635198036061	0
5	971	2215.605995918517	0
5	974	2220.983562150837	0
5	977	2237.146804838887	0
5	982	2244.511809637153	1.839071420859
5	983	2246.679706502923	3.468513564244
5	986	2254.082127145278	0
5	993	2265.177139724753	9.900960463882
5	994	2265.659369444232	8.278745864178
5	997	2272.151245375225	8.292848519169
5	998	2276.113436499193	10.401364784569
5	1005	2283.69255422026	5.161908369066
5	1006	2287.813380242728	8.440045201339
5	1009	2288.674409300069	6.375321037352
5	1010	2290.849249162262	2.291305910284
5	1019	2321.438632138943	0
5	1022	2332.743083346899	0
5	1027	2334.78939156983	0.623051597499
5	1028	2339.405499631848	5.163665422668
5	1031	2350.681956625492	0
5	1034	2362.032617962155	0
5	1042	2374.606931049781	10.509214873419
5	1043	2374.682311611095	8.264714612704
5	1054	2397.431203829804	14.817853022938
5	1055	2397.561764680945	14.064053982963
5	1058	2419.292970577924	0
5	1066	2438.562408681822	18.497614813033
5	1067	2441.574083015025	9.144397522679
5	1070	2452.103637946343	0
6	135	359.339425438426	26
6	138	373.852156852444	27
6	150	394.92644651559	28
6	177	454.741616225876	29
6	178	456.6829073772	30
6	183	463.658037493428	31
6	191	473.870993299745	32
6	192	475.030696603568	33
6	195	487.360709437689	34
6	196	490.415000795924	35
6	199	495.399751648468	36
6	202	503.893311807626	37
6	203	506.31566766718	38
6	229	576.002517932785	39
6	230	577.841637653885	40
6	233	580.794664485726	41
6	234	581.029179705872	42
6	235	585.402533577495	43
6	236	592.701996976918	44
6	237	593.806697287092	45
6	244	615.07852924406	46
6	245	621.815516441448	47
6	253	636.66779983609	48
6	261	643.758813305412	49
6	262	648.764764026628	50
6	263	652.25637951414	51
6	264	653.182963218345	52
6	267	655.938398907351	53
6	270	657.397258566147	54
6	282	675.247792036948	55
6	285	695.646682142247	56
6	288	702.758072295912	57
6	291	709.789152482421	58
6	299	716.250005488673	59
6	300	717.953824328844	60
6	303	728.427267473385	61
6	306	738.884652114776	62
6	312	752.061468162056	63
6	315	763.266242146539	64
6	318	768.525954270058	65
6	323	770.335231863471	66
6	324	771.193203223899	67
6	327	792.958782792182	68
6	333	807.661167300699	69
6	336	818.481810054575	70
6	344	831.775125990023	71
6	349	836.733939320639	72
6	352	843.357394696292	73
6	355	845.135523190639	74
6	356	846.225149166067	75
6	359	851.883926721858	76
6	362	855.223125311171	77
6	365	861.830510941215	78
6	366	865.532558189185	79
6	369	872.016733564906	80
6	377	884.756125969877	81
6	390	902.396907364437	82
6	391	904.245723628799	83
6	392	906.83912865823	84
6	412	936.339108382316	85
6	413	939.549358489246	86
6	416	944.553307485451	87
6	417	952.554744111981	88
6	422	955.43336196989	89
6	423	956.283236884913	90
6	426	958.640163974913	91
6	434	971.385689567012	92
6	435	976.48830098296	93
6	436	978.672783321469	94
6	440	984.518305053839	95
6	441	988.216024678584	96
6	453	999.432161737735	97
6	454	1001.645305338345	98
6	457	1009.296951874477	99
6	458	1009.399222702817	100
6	461	1013.599861950542	101
6	462	1014.75687903511	102
6	470	1021.107521967605	103
6	471	1025.473258766683	104
6	474	1034.738123973701	105
6	477	1039.352927583551	106
6	480	1059.985441301765	107
6	489	1093.625743321349	108
6	492	1103.067007248782	109
6	498	1112.175491790763	110
6	501	1115.487617710597	111
6	504	1149.225804049736	112
6	512	1170.04694608325	113
6	517	1173.227050221276	114
6	518	1176.351553527435	115
6	521	1178.796875639669	116
6	524	1186.40556406995	117
6	525	1186.913266187568	118
6	528	1188.776742646779	119
6	534	1217.477863074793	120
6	537	1226.609414372273	121
6	542	1248.810705761276	122
6	543	1254.399444635076	123
6	546	1267.307292217981	124
6	554	1285.003500272236	125
6	557	1295.370505713104	126
6	558	1296.350025207222	127
6	561	1306.022853722574	128
6	566	1322.994039968075	129
6	569	1327.54813897457	130
6	570	1329.754407455002	131
6	576	1341.053699560917	132
6	579	1348.791932536433	133
6	589	1363.257087226323	134
6	590	1365.41793129315	135
6	591	1367.144956279248	136
6	594	1377.533721831706	137
6	597	1393.865553698994	138
6	600	1398.596256262155	139
6	605	1410.362152834933	140
6	609	1412.806524861614	141
6	612	1418.332133145999	142
6	618	1449.419788343398	143
6	627	1467.833235943566	144
6	638	1489.766101684258	145
6	644	1505.737149209854	146
6	645	1507.327223932657	147
6	648	1517.545923398715	148
6	653	1522.509662436626	149
6	654	1526.722297538248	150
6	657	1534.188339051543	151
6	669	1572.79327081974	152
6	674	1578.946297755007	153
6	675	1580.535676794753	154
6	678	1594.089277504464	155
6	681	1605.0903047798	156
6	686	1616.074409733044	157
6	687	1618.020230618394	158
6	690	1621.728747141252	159
6	698	1632.496286166439	160
6	699	1639.311862897575	161
6	715	1670.476121681947	162
6	718	1671.156768538119	163
6	719	1672.830748696137	164
6	720	1674.467489332547	165
6	726	1678.92045807179	166
6	729	1680.837618858589	167
6	740	1709.784320758301	168
6	750	1716.713562279846	169
6	751	1718.218253382914	170
6	752	1720.723106786203	171
6	753	1726.211094422021	172
6	762	1747.47808398193	173
6	765	1755.700183123391	174
6	768	1760.305275517754	175
6	791	1839.688617064289	176
6	794	1849.091187143892	177
6	795	1851.919746104737	178
6	802	1859.472942862108	179
6	803	1859.823085398732	180
6	804	1863.133571787999	181
6	807	1866.31802636976	182
6	823	1889.766305867282	183
6	824	1899.436565944935	184
6	825	1900.704316803872	185
6	833	1928.946480236458	186
6	839	1948.312617382759	187
6	840	1949.16796228321	188
6	849	1979.876598514914	189
6	855	1988.919336805736	190
6	858	1991.266032457619	191
6	861	1998.689645807774	192
6	870	2027.116550920576	193
6	873	2029.788285046182	194
6	876	2036.795314875024	195
6	882	2043.947720009761	196
6	894	2071.141516604995	197
6	895	2075.246023733304	198
6	899	2078.637176202118	199
6	900	2079.657569076398	200
6	913	2106.884201450906	201
6	916	2113.237650535771	202
6	922	2120.770058647972	203
6	923	2120.939391574754	204
6	924	2122.704371557625	205
6	935	2160.547063352237	206
6	936	2160.818268823303	207
6	939	2170.096678646067	208
6	947	2180.669241301514	209
6	956	2195.316532388253	210
6	959	2199.677570276238	211
6	964	2207.722440484467	212
6	965	2208.29444750917	213
6	966	2209.521983703269	214
6	969	2213.97384122756	215
6	972	2216.505597606232	216
6	975	2221.555884212174	217
6	982	2244.511809637153	218
6	983	2246.679706502923	219
6	984	2248.539090505457	220
6	994	2265.659369444232	221
6	997	2272.151245375225	222
6	998	2276.113436499193	223
6	1005	2283.69255422026	224
6	1006	2287.813380242728	225
6	1009	2288.674409300069	226
6	1010	2290.849249162262	227
6	1011	2294.179758899305	228
6	1020	2330.140300360474	229
6	1027	2334.78939156983	230
6	1028	2339.405499631848	231
6	1029	2344.302415733936	232
6	1032	2350.689316119905	233
6	1043	2374.682311611095	234
6	1044	2378.593837317593	235
6	1055	2397.561764680945	236
6	1056	2400.587582535794	237
6	1067	2441.574083015025	238
6	1068	2443.856138482795	239
6	1071	2453.58459544823	240
7	135	359.339425438426	5.166917610619
7	138	373.852156852444	0.686582925431
7	150	394.92644651559	1.646608004958
7	177	454.741616225876	46.534338874453
7	178	456.6829073772	44.68460992709
7	183	463.658037493428	51.286206673858
7	191	473.870993299745	36.556759484239
7	192	475.030696603568	37.702743656755
7	195	487.360709437689	36.118453285717
7	196	490.415000795924	30.604547821141
7	199	495.399751648468	32.85521152541
7	202	503.893311807626	36.788159099572
7	203	506.31566766718	37.336612620114
7	229	576.002517932785	100.90710931449
7	230	577.841637653885	83.25328311614
7	233	580.794664485726	83.081113869138
7	234	581.029179705872	73.250827233884
7	235	585.402533577495	57.775758492121
7	236	592.701996976918	21.558781575632
7	237	593.806697287092	14.415265031011
7	244	615.07852924406	9.134954448861
7	245	621.815516441448	13.902292897807
7	253	636.66779983609	12.002133019951
7	261	643.758813305412	13.051961440971
7	262	648.764764026628	11.277670291983
7	263	652.25637951414	14.033840237575
7	264	653.182963218345	9.765695320503
7	267	655.938398907351	2.544684099416
7	270	657.397258566147	1.086989618808
7	282	675.247792036948	0.643039123248
7	285	695.646682142247	0.311567753053
7	288	702.758072295912	1.241829851249
7	291	709.789152482421	4.86402664386
7	299	716.250005488673	4.208805810725
7	300	717.953824328844	2.289654552229
7	303	728.427267473385	1.387140532474
7	306	738.884652114776	3.265763358929
7	312	752.061468162056	5.921878222575
7	315	763.266242146539	0.622152430294
7	318	768.525954270058	2.751247083136
7	323	770.335231863471	1.79660054893
7	324	771.193203223899	1.957590717051
7	327	792.958782792182	5.710423468346
7	333	807.661167300699	5.653018060435
7	336	818.481810054575	2.724786330034
7	344	831.775125990023	8.914841658152
7	349	836.733939320639	8.597104094408
7	352	843.357394696292	11.227621382104
7	355	845.135523190639	12.073058558287
7	356	846.225149166067	6.016094230816
7	359	851.883926721858	6.840347219775
7	362	855.223125311171	7.119336022236
7	365	861.830510941215	8.312943509085
7	366	865.532558189185	8.296937406159
7	369	872.016733564906	0.300592517879
7	377	884.756125969877	3.182144768925
7	390	902.396907364437	13.909402336834
7	391	904.245723628799	12.297313653936
7	392	906.83912865823	14.387863316915
7	412	936.339108382316	26.724286330349
7	413	939.549358489246	27.029801183623
7	416	944.553307485451	31.83355621604
7	417	952.554744111981	36.851275032579
7	422	955.43336196989	34.661759318776
7	423	956.283236884913	24.655627805704
7	426	958.640163974913	18.284046361233
7	434	971.385689567012	16.69607425198
7	435	976.48830098296	18.29835780681
7	436	978.672783321469	14.399308620389
7	440	984.518305053839	13.224784670617
7	441	988.216024678584	6.387219598519
7	453	999.432161737735	7.540194875595
7	454	1001.645305338345	9.651614605117
7	457	1009.296951874477	15.704314885814
7	458	1009.399222702817	14.338336248037
7	461	1013.599861950542	5.285081634907
7	462	1014.75687903511	1.790664424208
7	470	1021.107521967605	2.887946190284
7	471	1025.473258766683	7.095012360571
7	474	1034.738123973701	1.278063816174
7	477	1039.352927583551	1.665826882323
7	480	1059.985441301765	6.003436071484
7	489	1093.625743321349	6.506383609483
7	492	1103.067007248782	0.526515588173
7	498	1112.175491790763	4.59091337276
7	501	1115.487617710597	1.795460786143
7	504	1149.225804049736	1.151872087997
7	512	1170.04694608325	11.052002579943
7	517	1173.227050221276	13.357079004187
7	518	1176.351553527435	6.080960671208
7	521	1178.796875639669	5.910729722782
7	524	1186.40556406995	7.974490396914
7	525	1186.913266187568	6.733005653683
7	528	1188.776742646779	1.389893635362
7	534	1217.477863074793	3.53975482266
7	537	1226.609414372273	5.714645835244
7	542	1248.810705761276	1.912269014306
7	543	1254.399444635076	7.123118911491
7	546	1267.307292217981	1.251069427164
7	554	1285.003500272236	6.01530232863
7	557	1295.370505713104	10.921517969635
7	558	1296.350025207222	2.213859175249
7	561	1306.022853722574	4.060271173784
7	566	1322.994039968075	5.989299284656
7	569	1327.54813897457	6.458666662494
7	570	1329.754407455002	2.514003557861
7	576	1341.053699560917	1.741769676237
7	579	1348.791932536433	4.702780377447
7	589	1363.257087226323	8.930500229923
7	590	1365.41793129315	7.827243907227
7	591	1367.144956279248	4.743315961862
7	594	1377.533721831706	6.985058992613
7	597	1393.865553698994	0.387719182769
7	600	1398.596256262155	4.239246408272
7	605	1410.362152834933	10.894555493119
7	609	1412.806524861614	2.115703089247
7	612	1418.332133145999	4.415664039572
7	618	1449.419788343398	6.576888576696
7	627	1467.833235943566	7.587849081888
7	638	1489.766101684258	7.33482439826
7	644	1505.737149209854	6.387024714472
7	645	1507.327223932657	3.319545675309
7	648	1517.545923398715	0.942643948082
7	653	1522.509662436626	1.678973703417
7	654	1526.722297538248	4.824857421977
7	657	1534.188339051543	0.147282058287
7	669	1572.79327081974	1.633034101963
7	674	1578.946297755007	3.519486620875
7	675	1580.535676794753	2.921354853658
7	678	1594.089277504464	5.706928393005
7	681	1605.0903047798	0.10585456984
7	686	1616.074409733044	7.966240670974
7	687	1618.020230618394	6.408645034012
7	690	1621.728747141252	0.758167345065
7	698	1632.496286166439	3.480044996843
7	699	1639.311862897575	9.802066108619
7	715	1670.476121681947	25.368528233741
7	718	1671.156768538119	14.158312292265
7	719	1672.830748696137	5.445436449992
7	720	1674.467489332547	3.525823946004
7	726	1678.92045807179	0.94322956407
7	729	1680.837618858589	1.686012979714
7	740	1709.784320758301	11.284888304273
7	750	1716.713562279846	6.739609337411
7	751	1718.218253382914	8.195053750122
7	752	1720.723106786203	8.891427799934
7	753	1726.211094422021	10.416824346854
7	762	1747.47808398193	5.846368103766
7	765	1755.700183123391	1.328331280406
7	768	1760.305275517754	2.592323403508
7	791	1839.688617064289	36.124985485896
7	794	1849.091187143892	44.389065980778
7	795	1851.919746104737	37.974127771231
7	802	1859.472942862108	15.385700302834
7	803	1859.823085398732	7.262537205906
7	804	1863.133571787999	8.557057926983
7	807	1866.31802636976	0.965560893025
7	823	1889.766305867282	6.156884591918
7	824	1899.436565944935	13.459291448006
7	825	1900.704316803872	14.365203960798
7	833	1928.946480236458	3.623577162221
7	839	1948.312617382759	18.803442791731
7	840	1949.16796228321	2.715444037181
7	849	1979.876598514914	0.194530134207
7	855	1988.919336805736	5.145152531771
7	858	1991.266032457619	0.253882325353
7	861	1998.689645807774	2.726311147324
7	870	2027.116550920576	5.327711058348
7	873	2029.788285046182	1.822674793389
7	876	2036.795314875024	0.125068683888
7	882	2043.947720009761	3.698084488603
7	894	2071.141516604995	17.690124681356
7	895	2075.246023733304	15.525650756083
7	899	2078.637176202118	7.677164422905
7	900	2079.657569076398	3.410117380624
7	913	2106.884201450906	18.467904261665
7	916	2113.237650535771	18.682501388531
7	922	2120.770058647972	11.243756828908
7	923	2120.939391574754	7.038175182465
7	924	2122.704371557625	5.944218898917
7	935	2160.547063352237	7.809740910637
7	936	2160.818268823303	2.493410649657
7	939	2170.096678646067	0.06374353037
7	947	2180.669241301514	5.609960481638
7	956	2195.316532388253	12.275569490927
7	959	2199.677570276238	5.164268737737
7	964	2207.722440484467	10.541253723093
7	965	2208.29444750917	6.432025822412
7	966	2209.521983703269	3.532266620911
7	969	2213.97384122756	3.338643191499
7	972	2216.505597606232	0.899601687715
7	975	2221.555884212174	0.572322061337
7	982	2244.511809637153	7.365004798266
7	983	2246.679706502923	4.006968286629
7	984	2248.539090505457	5.327897566778
7	994	2265.659369444232	10.383190183361
7	997	2272.151245375225	14.770621795171
7	998	2276.113436499193	12.255039643137
7	1005	2283.69255422026	17.980482505636
7	1006	2287.813380242728	9.282734391534
7	1009	2288.674409300069	9.30107425868
7	1010	2290.849249162262	8.550160899545
7	1011	2294.179758899305	5.621815647327
7	1020	2330.140300360474	8.701668221531
7	1027	2334.78939156983	2.046308222931
7	1028	2339.405499631848	5.239159659517
7	1029	2344.302415733936	10.060581524756
7	1032	2350.689316119905	0.007359494413
7	1043	2374.682311611095	10.584595434733
7	1044	2378.593837317593	12.176240319202
7	1055	2397.561764680945	14.948413874079
7	1056	2400.587582535794	17.089871837812
7	1067	2441.574083015025	21.509289146236
7	1068	2443.856138482795	11.426452990449
7	1071	2453.58459544823	1.480957501887
8	140	381.910508285344	1
8	142	382.12216177113	2
8	146	385.458599038288	1
8	152	401.932998597983	1
8	154	404.293112790177	2
8	169	437.903864460807	2
8	171	439.767450543379	3
8	185	467.105152708054	1
8	205	507.778352471988	1
8	207	511.970843354015	2
8	209	523.641403692857	3
8	211	523.764599663184	4
8	214	526.525142992614	4
8	221	556.097184880185	2
8	224	564.45633319999	2
8	249	627.778284939314	1
8	257	638.222539276565	1
8	272	662.431607004495	1
8	274	662.436923341715	2
8	278	669.501349085891	1
8	295	712.041199677948	1
8	308	741.260931673624	1
8	329	799.551242766425	1
8	340	822.860284331871	1
8	371	877.543810870645	1
8	379	887.337605029767	1
8	382	888.487505027603	1
8	396	907.588439234243	1
8	399	909.614822051967	1
8	408	920.771602651114	1
8	428	964.27347470108	1
8	438	981.828805080065	1
8	447	991.993690733228	1
8	464	1016.249624094874	1
8	482	1077.928705248913	1
8	484	1080.302015026252	2
8	496	1107.584578418003	1
8	506	1158.933809594803	1
8	530	1188.996723057024	1
8	550	1278.988197943606	1
8	572	1331.699076905576	1
8	583	1354.3265869964	1
8	607	1410.690821772367	1
8	614	1442.401810080516	1
8	620	1458.263650676793	1
8	622	1458.853799594753	2
8	629	1474.67750170795	1
8	632	1478.591938273987	1
8	640	1499.350124495382	1
8	659	1540.927398831871	1
8	662	1543.83572861612	1
8	667	1571.160236717777	1
8	692	1627.011532211296	1
8	701	1641.200728983196	1
8	705	1649.139788179428	2
8	708	1651.886764969815	2
8	724	1677.97722850772	1
8	731	1691.221218932796	1
8	734	1695.469903337416	1
8	742	1709.973952942435	1
8	755	1734.173751778239	1
8	760	1741.631715878164	1
8	770	1795.251777029999	1
8	772	1796.186514870931	2
8	778	1810.233699922377	3
8	786	1821.747407345427	2
8	797	1852.560548192826	1
8	800	1854.576513861016	1
8	809	1868.175832967458	1
8	812	1869.101112407136	1
8	815	1883.079443135498	1
8	827	1906.172223784969	1
8	835	1929.509174591028	1
8	842	1967.343964080476	1
8	847	1979.682068380707	1
8	851	1982.357432335051	1
8	863	2003.786686497585	1
8	866	2006.5504223079	1
8	880	2040.249635521158	1
8	884	2053.063007369747	1
8	897	2076.247451695774	1
8	902	2080.649378436169	1
8	904	2086.329528345313	2
8	920	2116.760152658708	1
8	926	2130.649701280081	1
8	929	2149.349687489204	1
8	941	2171.319197265902	1
8	949	2183.040962897326	1
8	951	2183.478361293144	2
8	992	2263.858396856056	1
8	1013	2294.457992447564	1
8	1016	2319.143568197383	1
8	1036	2364.097716176362	1
8	1040	2369.034416376807	2
8	1046	2379.332298766566	1
8	1050	2382.99845866801	2
8	1060	2420.064793868789	1
8	1064	2435.541766541786	2
8	1073	2461.309526535168	1
8	1076	2468.83020005602	1
8	1079	2471.034788360199	1
9	140	381.910508285344	0
9	143	384.69280911483	2.5706473437
9	146	385.458599038288	0
9	152	401.932998597983	0
9	161	412.705211130998	8.412098340821
9	172	441.531727928661	3.627863467854
9	175	452.343563383107	12.576112839728
9	185	467.105152708054	0
9	205	507.778352471988	0
9	212	526.417460262455	14.44661690844
9	217	530.870354257102	7.228950564245
9	218	533.586420236173	9.821820572989
9	219	552.767964943804	26.24282195119
9	222	558.489530617745	2.39234573756
9	225	567.814208826407	3.357875626417
9	249	627.778284939314	0
9	257	638.222539276565	0
9	272	662.431607004495	0
9	275	664.17758241064	1.740659068925
9	278	669.501349085891	0
9	295	712.041199677948	0
9	308	741.260931673624	0
9	329	799.551242766425	0
9	340	822.860284331871	0
9	371	877.543810870645	0
9	379	887.337605029767	0
9	382	888.487505027603	0
9	396	907.588439234243	0
9	399	909.614822051967	0
9	408	920.771602651114	0
9	428	964.27347470108	0
9	438	981.828805080065	0
9	447	991.993690733228	0
9	464	1016.249624094874	0
9	482	1077.928705248913	0
9	487	1088.314506891259	8.012491865007
9	496	1107.584578418003	0
9	506	1158.933809594803	0
9	530	1188.996723057024	0
9	550	1278.988197943606	0
9	572	1331.699076905576	0
9	583	1354.3265869964	0
9	607	1410.690821772367	0
9	614	1442.401810080516	0
9	620	1458.263650676793	0
9	625	1465.554158252425	6.700358657672
9	629	1474.67750170795	0
9	632	1478.591938273987	0
9	640	1499.350124495382	0
9	659	1540.927398831871	0
9	662	1543.83572861612	0
9	667	1571.160236717777	0
9	692	1627.011532211296	0
9	701	1641.200728983196	0
9	706	1650.09608815842	0.956299978992
9	711	1662.751489283489	10.864724313674
9	724	1677.97722850772	0
9	731	1691.221218932796	0
9	734	1695.469903337416	0
9	742	1709.973952942435	0
9	755	1734.173751778239	0
9	760	1741.631715878164	0
9	770	1795.251777029999	0
9	779	1812.445026922555	16.258512051624
9	784	1819.872577436233	9.638877513856
9	789	1831.601341753254	9.853934407827
9	797	1852.560548192826	0
9	800	1854.576513861016	0
9	809	1868.175832967458	0
9	812	1869.101112407136	0
9	815	1883.079443135498	0
9	827	1906.172223784969	0
9	835	1929.509174591028	0
9	842	1967.343964080476	0
9	847	1979.682068380707	0
9	851	1982.357432335051	0
9	863	2003.786686497585	0
9	866	2006.5504223079	0
9	880	2040.249635521158	0
9	884	2053.063007369747	0
9	897	2076.247451695774	0
9	902	2080.649378436169	0
9	907	2092.243061902602	5.913533557289
9	920	2116.760152658708	0
9	926	2130.649701280081	0
9	929	2149.349687489204	0
9	941	2171.319197265902	0
9	949	2183.040962897326	0
9	952	2191.834015886391	8.355654593247
9	992	2263.858396856056	0
9	1013	2294.457992447564	0
9	1016	2319.143568197383	0
9	1036	2364.097716176362	0
9	1041	2371.472353185635	2.437936808828
9	1046	2379.332298766566	0
9	1053	2386.87237976446	3.87392109645
9	1060	2420.064793868789	0
9	1065	2437.764480382394	2.222713840608
9	1073	2461.309526535168	0
9	1076	2468.83020005602	0
9	1079	2471.034788360199	0
10	185	467.105152708054	4
10	205	507.778352471988	5
10	249	627.778284939314	6
10	257	638.222539276565	7
10	295	712.041199677948	8
10	340	822.860284331871	9
10	379	887.337605029767	10
10	382	888.487505027603	11
10	396	907.588439234243	12
10	399	909.614822051967	13
10	408	920.771602651114	14
10	428	964.27347470108	15
10	438	981.828805080065	16
10	447	991.993690733228	17
10	496	1107.584578418003	18
10	550	1278.988197943606	19
10	583	1354.3265869964	20
10	607	1410.690821772367	21
10	640	1499.350124495382	22
10	667	1571.160236717777	23
10	724	1677.97722850772	24
10	742	1709.973952942435	25
10	760	1741.631715878164	26
10	797	1852.560548192826	27
10	800	1854.576513861016	28
10	835	1929.509174591028	29
10	847	1979.682068380707	30
10	880	2040.249635521158	31
10	897	2076.247451695774	32
10	920	2116.760152658708	33
10	949	2183.040962897326	34
10	992	2263.858396856056	35
10	1036	2364.097716176362	36
10	1060	2420.064793868789	37
11	1081	2500	0.096
12	1081	2500	0.048

