version 2
run experiments_easy_game_mode1-96-20230308-12:02:15-18878
attr configname experiments_easy_game_mode1
attr datetime 20230308-12:02:15
attr experiment experiments_easy_game_mode1
attr inifile omnetpp.ini
attr iterationvars "$0=5, $1=1.5, $2=100"
attr iterationvarsf 5,1.5,100-
attr measurement "$0=5, $1=1.5, $2=100"
attr network Network
attr processid 18878
attr repetition 6
attr replication #6
attr resultdir results
attr runnumber 96
attr seedset 6
param *.boss.arrival_mean 20
param *.boss.service_mean 5
param *.minion.arrival_mean 10
param *.minion.service_mean 1.5
param *.player.recover_rate_x 100
param **.minion.arrival_distribution 0
param **.minion.service_distribution 0
param **.boss.arrival_distribution 0
param **.boss.service_distribution 0

vector 0 Network.player boss_jobs_number_stat:vector ETV
attr source signal_boss_jobs_number
vector 1 Network.player boss_jobs_queue_number_stat:vector ETV
attr source signal_boss_jobs_queue_number
vector 2 Network.player boss_waiting_time_stat:vector ETV
attr source signal_boss_waiting_time
vector 3 Network.player minion_jobs_number_stat:vector ETV
attr source signal_minion_jobs_number
vector 4 Network.player minion_jobs_queue_number_stat:vector ETV
attr source signal_minion_jobs_queue_number
vector 5 Network.player boss_defeated_stat:vector ETV
attr source signal_boss_defeated
vector 6 Network.player boss_response_time_stat:vector ETV
attr source signal_boss_response_time
vector 7 Network.player minion_waiting_time_stat:vector ETV
attr source signal_minion_waiting_time
vector 8 Network.player minion_defeated_stat:vector ETV
attr source signal_minion_defeated
vector 9 Network.player minion_response_time_stat:vector ETV
attr source signal_minion_response_time
vector 10 Network.player minion_recovered_stat:vector ETV
attr source signal_minion_recovered
vector 11 Network.player minion_throughput:vector ETV
attr source signal_minion_throughput
vector 12 Network.player boss_throughput:vector ETV
attr source signal_boss_throughput
0	137	350.911095348185	1
0	146	366.390704133182	1
0	148	371.17356131204	2
0	151	377.820612985913	2
0	153	377.96980287222	3
0	164	406.590606385774	1
0	170	417.617291548579	1
0	173	423.903095571506	1
0	197	467.221505335374	1
0	203	474.170699178983	1
0	206	495.971717000857	1
0	227	561.58967462765	1
0	230	565.640426342516	1
0	248	614.526701304873	1
0	250	615.254532494379	2
0	253	632.049222519165	2
0	266	670.963454837439	1
0	269	684.254351994662	1
0	275	709.410644553138	1
0	281	730.619893590699	1
0	284	741.244643729957	1
0	293	756.629205910943	1
0	296	777.546901299853	1
0	329	886.711462365343	1
0	332	900.190491588623	1
0	336	903.253106306936	2
0	350	928.570672954617	1
0	377	1002.623456215123	1
0	388	1015.88463527209	1
0	398	1035.213038508457	1
0	410	1050.146256507234	1
0	422	1075.64032921121	1
0	437	1114.054621743973	1
0	440	1121.047574796594	1
0	442	1124.668304703187	2
0	449	1143.000718365382	1
0	467	1193.264556883255	1
0	470	1221.041346223951	1
0	476	1240.173927918977	1
0	482	1260.682995869076	1
0	497	1290.63175437432	1
0	503	1341.98868381818	1
0	506	1367.457978445056	1
0	512	1411.373933569448	1
0	533	1444.167991827933	1
0	539	1464.862235097741	1
0	543	1470.389925185423	2
0	545	1477.399307372857	3
0	553	1494.698843858274	2
0	569	1517.650297185485	1
0	575	1524.315619169701	1
0	581	1530.802464609031	1
0	605	1601.102500740114	1
0	608	1603.805840100172	1
0	612	1606.701715929049	2
0	629	1623.577270089592	1
0	632	1630.026208879448	1
0	640	1640.547007515322	1
0	665	1695.493984958524	1
0	671	1711.932020289475	1
0	674	1731.714786339412	1
0	683	1770.244858721005	1
0	692	1802.854931859741	1
0	694	1804.889361326234	2
0	704	1824.889836964607	1
0	707	1833.639570527449	1
0	710	1842.732282835428	1
0	725	1915.436609589533	1
0	727	1916.889482352561	2
0	746	1967.901726318689	1
0	766	2021.635944979653	1
0	800	2090.897286542311	1
0	803	2097.051712636309	1
0	806	2098.097723051968	1
0	809	2102.875204944668	1
0	827	2145.88207974733	1
0	841	2177.459450486187	1
0	859	2206.85076913286	1
0	861	2208.249520480578	2
0	863	2213.728139743341	3
0	878	2230.463349804384	1
0	880	2232.655512392498	2
0	896	2282.496471010907	1
0	902	2286.619675817699	2
0	907	2291.06034277556	1
0	920	2319.005043865611	1
0	941	2358.742124793107	1
0	953	2419.850593049055	1
0	959	2442.607790362262	1
0	986	2473.876253655396	1
0	990	2475.158360869859	2
0	995	2479.289234085361	1
0	998	2485.053898812339	1
0	1004	2499.404620087199	1
1	137	350.911095348185	0
1	140	353.053694243165	0
1	146	366.390704133182	0
1	148	371.17356131204	1
1	149	376.150792910094	1
1	151	377.820612985913	1
1	153	377.96980287222	2
1	156	384.668191075308	2
1	157	391.584928955093	1
1	158	391.609516715204	0
1	164	406.590606385774	0
1	167	416.797279852804	0
1	170	417.617291548579	0
1	171	419.825440202605	0
1	173	423.903095571506	0
1	176	424.936715066373	0
1	197	467.221505335374	0
1	198	467.228794133973	0
1	203	474.170699178983	0
1	204	476.140111815493	0
1	206	495.971717000857	0
1	207	496.32054226961	0
1	227	561.58967462765	0
1	228	563.923219462095	0
1	230	565.640426342516	0
1	233	566.792123126709	0
1	248	614.526701304873	0
1	250	615.254532494379	1
1	251	622.419136274698	1
1	253	632.049222519165	1
1	256	634.500037734815	1
1	257	635.318873164107	0
1	266	670.963454837439	0
1	267	671.893971273801	0
1	269	684.254351994662	0
1	270	685.18565467797	0
1	275	709.410644553138	0
1	278	724.920846552844	0
1	281	730.619893590699	0
1	282	731.043159434705	0
1	284	741.244643729957	0
1	285	742.613862453058	0
1	293	756.629205910943	0
1	294	758.449684733253	0
1	296	777.546901299853	0
1	297	777.549619237242	0
1	329	886.711462365343	0
1	330	894.357433932204	0
1	332	900.190491588623	0
1	336	903.253106306936	1
1	337	904.360585395619	1
1	338	905.249681001002	0
1	350	928.570672954617	0
1	353	933.439858640231	0
1	377	1002.623456215123	0
1	378	1002.989758705237	0
1	388	1015.88463527209	0
1	389	1017.235183952139	0
1	398	1035.213038508457	0
1	399	1041.250787248307	0
1	410	1050.146256507234	0
1	419	1074.162794862203	0
1	422	1075.64032921121	0
1	423	1076.63856234877	0
1	437	1114.054621743973	0
1	438	1115.087075489647	0
1	440	1121.047574796594	0
1	442	1124.668304703187	1
1	443	1125.615512369505	1
1	446	1130.270556469412	0
1	449	1143.000718365382	0
1	452	1145.683689411126	0
1	467	1193.264556883255	0
1	468	1196.892856796353	0
1	470	1221.041346223951	0
1	471	1224.644680726939	0
1	476	1240.173927918977	0
1	477	1243.011983672401	0
1	482	1260.682995869076	0
1	483	1261.929510688376	0
1	497	1290.63175437432	0
1	498	1291.760043963935	0
1	503	1341.98868381818	0
1	504	1348.454033933078	0
1	506	1367.457978445056	0
1	507	1371.830289295032	0
1	512	1411.373933569448	0
1	517	1420.840733669451	0
1	533	1444.167991827933	0
1	536	1453.518811912084	0
1	539	1464.862235097741	0
1	543	1470.389925185423	1
1	545	1477.399307372857	2
1	546	1478.080070117916	2
1	549	1491.483367033003	1
1	553	1494.698843858274	1
1	554	1498.141262546968	1
1	555	1498.422739299276	0
1	569	1517.650297185485	0
1	572	1520.887221732785	0
1	575	1524.315619169701	0
1	578	1529.507272251063	0
1	581	1530.802464609031	0
1	584	1534.197630667496	0
1	605	1601.102500740114	0
1	606	1601.19365241955	0
1	608	1603.805840100172	0
1	612	1606.701715929049	1
1	613	1608.319262102164	1
1	614	1608.996462952799	0
1	629	1623.577270089592	0
1	630	1623.972686161179	0
1	632	1630.026208879448	0
1	637	1636.689087200116	0
1	640	1640.547007515322	0
1	641	1641.171859228842	0
1	665	1695.493984958524	0
1	666	1696.653619472073	0
1	671	1711.932020289475	0
1	672	1728.907947283561	0
1	674	1731.714786339412	0
1	675	1742.475159726696	0
1	683	1770.244858721005	0
1	684	1774.62206989071	0
1	692	1802.854931859741	0
1	694	1804.889361326234	1
1	697	1806.459358339863	1
1	698	1806.944236704306	0
1	704	1824.889836964607	0
1	705	1826.659585697379	0
1	707	1833.639570527449	0
1	708	1833.708186680401	0
1	710	1842.732282835428	0
1	713	1849.519565205538	0
1	725	1915.436609589533	0
1	727	1916.889482352561	1
1	728	1924.50449144288	1
1	735	1929.801733587707	0
1	746	1967.901726318689	0
1	747	1980.214785551815	0
1	766	2021.635944979653	0
1	767	2024.705152087282	0
1	800	2090.897286542311	0
1	801	2096.994178640764	0
1	803	2097.051712636309	0
1	804	2097.532376642571	0
1	806	2098.097723051968	0
1	807	2100.544728571967	0
1	809	2102.875204944668	0
1	810	2104.404581903224	0
1	827	2145.88207974733	0
1	830	2151.997754344159	0
1	841	2177.459450486187	0
1	842	2181.904020979576	0
1	859	2206.85076913286	0
1	861	2208.249520480578	1
1	863	2213.728139743341	2
1	866	2219.690764378114	2
1	869	2225.206795053328	1
1	872	2226.906255695428	0
1	878	2230.463349804384	0
1	880	2232.655512392498	1
1	883	2239.117776295015	1
1	886	2244.878155601526	0
1	896	2282.496471010907	0
1	902	2286.619675817699	1
1	903	2287.157011925049	1
1	904	2290.829905592392	0
1	907	2291.06034277556	0
1	908	2292.26787600097	0
1	920	2319.005043865611	0
1	923	2329.497789545528	0
1	941	2358.742124793107	0
1	942	2378.015633468122	0
1	953	2419.850593049055	0
1	954	2432.728425947821	0
1	959	2442.607790362262	0
1	960	2444.102596483028	0
1	986	2473.876253655396	0
1	990	2475.158360869859	1
1	991	2477.23543463083	1
1	992	2477.644965926063	0
1	995	2479.289234085361	0
1	996	2483.823584853179	0
1	998	2485.053898812339	0
1	999	2488.362944702728	0
1	1004	2499.404620087199	0
2	137	350.911095348185	0
2	146	366.390704133182	0
2	149	376.150792910094	4.977231598054
2	156	384.668191075308	6.847578089395
2	157	391.584928955093	13.615126082873
2	164	406.590606385774	0
2	170	417.617291548579	0
2	173	423.903095571506	0
2	197	467.221505335374	0
2	203	474.170699178983	0
2	206	495.971717000857	0
2	227	561.58967462765	0
2	230	565.640426342516	0
2	248	614.526701304873	0
2	251	622.419136274698	7.164603780319
2	256	634.500037734815	2.45081521565
2	266	670.963454837439	0
2	269	684.254351994662	0
2	275	709.410644553138	0
2	281	730.619893590699	0
2	284	741.244643729957	0
2	293	756.629205910943	0
2	296	777.546901299853	0
2	329	886.711462365343	0
2	332	900.190491588623	0
2	337	904.360585395619	1.107479088683
2	350	928.570672954617	0
2	377	1002.623456215123	0
2	388	1015.88463527209	0
2	398	1035.213038508457	0
2	410	1050.146256507234	0
2	422	1075.64032921121	0
2	437	1114.054621743973	0
2	440	1121.047574796594	0
2	443	1125.615512369505	0.947207666318
2	449	1143.000718365382	0
2	467	1193.264556883255	0
2	470	1221.041346223951	0
2	476	1240.173927918977	0
2	482	1260.682995869076	0
2	497	1290.63175437432	0
2	503	1341.98868381818	0
2	506	1367.457978445056	0
2	512	1411.373933569448	0
2	533	1444.167991827933	0
2	539	1464.862235097741	0
2	546	1478.080070117916	7.690144932493
2	549	1491.483367033003	14.084059660146
2	554	1498.141262546968	3.442418688694
2	569	1517.650297185485	0
2	575	1524.315619169701	0
2	581	1530.802464609031	0
2	605	1601.102500740114	0
2	608	1603.805840100172	0
2	613	1608.319262102164	1.617546173115
2	629	1623.577270089592	0
2	632	1630.026208879448	0
2	640	1640.547007515322	0
2	665	1695.493984958524	0
2	671	1711.932020289475	0
2	674	1731.714786339412	0
2	683	1770.244858721005	0
2	692	1802.854931859741	0
2	697	1806.459358339863	1.569997013629
2	704	1824.889836964607	0
2	707	1833.639570527449	0
2	710	1842.732282835428	0
2	725	1915.436609589533	0
2	728	1924.50449144288	7.615009090319
2	746	1967.901726318689	0
2	766	2021.635944979653	0
2	800	2090.897286542311	0
2	803	2097.051712636309	0
2	806	2098.097723051968	0
2	809	2102.875204944668	0
2	827	2145.88207974733	0
2	841	2177.459450486187	0
2	859	2206.85076913286	0
2	866	2219.690764378114	11.441243897536
2	869	2225.206795053328	11.478655309987
2	878	2230.463349804384	0
2	883	2239.117776295015	6.462263902517
2	896	2282.496471010907	0
2	903	2287.157011925049	0.53733610735
2	907	2291.06034277556	0
2	920	2319.005043865611	0
2	941	2358.742124793107	0
2	953	2419.850593049055	0
2	959	2442.607790362262	0
2	986	2473.876253655396	0
2	991	2477.23543463083	2.077073760971
2	995	2479.289234085361	0
2	998	2485.053898812339	0
2	1004	2499.404620087199	0
3	139	351.627033189598	1
3	143	356.77249646216	1
3	155	379.81260022798	1
3	161	402.963737716547	1
3	166	410.601911729775	1
3	175	424.028139429534	1
3	179	426.868942028569	1
3	182	430.0817299749	1
3	185	441.223251046719	1
3	188	447.851077409646	1
3	191	456.100258157296	1
3	194	463.758244053226	1
3	200	471.579336823452	1
3	209	502.794677597688	1
3	212	525.18586160872	1
3	215	531.255079119128	1
3	218	549.756142199541	1
3	221	554.025330218918	1
3	224	557.678344759667	1
3	232	565.9436230653	1
3	236	575.917811479756	1
3	239	583.098400084753	1
3	242	594.500210084924	1
3	244	598.752685252627	2
3	255	633.961808842082	1
3	260	638.190608503541	1
3	263	660.593018703502	1
3	272	689.824420977936	1
3	277	718.371237768056	1
3	287	743.664457964074	1
3	290	753.942981059847	1
3	299	784.610996476157	1
3	302	794.14696762077	1
3	305	821.459204172439	1
3	308	824.042809397798	1
3	311	825.196270828596	1
3	314	831.852211033489	1
3	317	833.937966094001	1
3	320	850.399986038396	1
3	323	854.88890090233	1
3	326	873.482015827866	1
3	334	901.221155159812	1
3	341	908.871473264762	1
3	343	909.602093200762	2
3	347	923.781926997375	1
3	352	931.423927518258	1
3	356	938.348939201108	1
3	359	943.24238757556	1
3	362	962.235470988632	1
3	365	966.330123148036	1
3	368	975.99798697478	1
3	371	978.705821758407	1
3	374	998.482918602949	1
3	380	1005.920830405399	1
3	383	1008.556543930712	1
3	386	1012.386704453106	1
3	392	1017.532002700798	1
3	395	1032.004903157706	1
3	401	1041.796544683268	1
3	404	1044.847656911698	1
3	406	1046.391258790932	2
3	412	1057.922203388058	1
3	414	1059.232388767943	2
3	416	1065.576176905336	3
3	418	1070.968940743702	4
3	426	1079.763365671196	3
3	431	1087.902579559694	1
3	434	1097.392755284878	1
3	445	1125.766233095256	1
3	451	1143.088657313181	1
3	455	1148.352433743115	1
3	458	1150.14231878262	1
3	461	1163.488885027925	1
3	464	1173.619248624901	1
3	473	1227.547002012055	1
3	479	1246.485309322208	1
3	485	1271.334097917293	1
3	488	1274.754701552974	1
3	490	1274.77495479427	2
3	492	1275.295250023809	3
3	500	1310.814878514192	1
3	509	1389.787856502193	1
3	514	1411.774448768679	1
3	516	1416.222413151197	2
3	521	1428.245109142045	1
3	524	1434.999012423788	1
3	527	1436.025151640752	1
3	530	1441.760245540321	1
3	535	1450.280010984042	1
3	541	1465.101520267697	1
3	548	1482.251566661279	2
3	551	1492.180508218109	3
3	558	1500.410585507111	3
3	563	1506.819636616315	1
3	566	1511.139202840092	1
3	571	1519.026689187163	1
3	577	1526.868349624458	1
3	583	1532.515385442083	1
3	587	1553.683836730964	1
3	590	1559.904844978734	1
3	593	1561.116318174958	1
3	596	1573.486427605865	1
3	598	1573.805863783555	2
3	600	1574.189933004483	3
3	610	1604.725678599515	1
3	617	1612.040647159783	1
3	620	1615.447868378449	1
3	623	1616.539714252569	1
3	626	1622.372766462893	1
3	634	1631.729331216195	1
3	636	1634.727168303325	2
3	643	1643.010151488724	2
3	647	1652.095645300041	1
3	650	1657.888339907812	1
3	653	1668.538743181191	1
3	656	1671.840158955775	1
3	659	1675.065592406074	1
3	662	1679.339446979447	1
3	668	1698.856789361593	1
3	677	1746.146211424682	1
3	680	1768.10364118851	1
3	686	1781.822805675791	1
3	689	1785.178380479258	1
3	696	1805.982725966671	1
3	701	1816.75790201413	1
3	712	1843.574654344956	1
3	716	1879.373204660125	1
3	719	1887.469695952147	1
3	722	1903.408989516434	1
3	730	1925.420946342677	1
3	732	1927.398926209321	2
3	734	1929.417975943475	3
3	740	1944.773949654688	1
3	743	1948.558407843685	1
3	749	1983.66670938471	1
3	751	1984.43627306884	2
3	755	1988.943174813553	1
3	758	1992.87248004456	1
3	761	1993.792383647937	1
3	764	2021.120040871594	1
3	770	2025.333446785742	1
3	773	2054.053071454524	1
3	776	2062.518611221697	1
3	778	2063.391034652114	2
3	782	2065.200412046749	1
3	785	2067.369660307153	1
3	788	2077.355952694257	1
3	791	2080.661174205752	1
3	793	2081.339312086223	2
3	797	2083.359432863404	1
3	812	2107.763453955233	1
3	815	2130.147397150886	1
3	817	2131.075723428299	2
3	821	2142.161567990562	1
3	824	2144.385352452261	1
3	829	2146.283239973336	1
3	833	2152.668933988442	1
3	836	2171.148276558928	1
3	839	2176.964284117084	1
3	845	2185.652321415968	1
3	848	2200.157511841202	1
3	851	2201.869038775595	1
3	853	2201.997293095396	2
3	855	2203.452852601386	3
3	865	2214.867934563696	2
3	868	2223.657100916351	3
3	871	2226.881252968874	4
3	875	2228.640744741857	4
3	882	2237.903645916445	4
3	885	2242.477657187887	5
3	893	2250.373639852665	1
3	898	2283.883901231491	1
3	900	2286.238464290669	2
3	911	2299.319823196942	1
3	914	2300.783069113227	1
3	917	2313.804224342733	1
3	922	2328.464642079065	1
3	926	2335.545418203672	1
3	929	2341.981072622497	1
3	932	2343.334747485083	1
3	935	2350.655980734442	1
3	938	2351.535681568716	1
3	944	2380.394249811124	1
3	947	2385.512245301738	1
3	950	2395.827166958937	1
3	956	2438.359583112643	1
3	962	2444.126573409002	1
3	965	2448.04074565643	1
3	968	2454.272997008193	1
3	971	2459.202377342599	1
3	974	2462.063629544418	1
3	977	2466.971518960638	1
3	980	2469.938873253385	1
3	982	2472.405728764313	2
3	984	2472.638354338712	3
3	988	2473.954007465772	4
4	139	351.627033189598	0
4	141	353.942373822636	0
4	143	356.77249646216	0
4	144	357.911233695687	0
4	155	379.81260022798	0
4	159	392.930341571597	0
4	161	402.963737716547	0
4	162	403.747089654638	0
4	166	410.601911729775	0
4	168	417.062358949339	0
4	175	424.028139429534	0
4	177	426.341117308981	0
4	179	426.868942028569	0
4	180	427.972143694573	0
4	182	430.0817299749	0
4	183	431.697056413457	0
4	185	441.223251046719	0
4	186	441.815152587114	0
4	188	447.851077409646	0
4	189	448.525344810885	0
4	191	456.100258157296	0
4	192	457.90215406917	0
4	194	463.758244053226	0
4	195	464.305672585695	0
4	200	471.579336823452	0
4	201	472.263830067368	0
4	209	502.794677597688	0
4	210	506.359484723287	0
4	212	525.18586160872	0
4	213	527.901124210278	0
4	215	531.255079119128	0
4	216	531.69983473516	0
4	218	549.756142199541	0
4	219	550.740910787406	0
4	221	554.025330218918	0
4	222	554.420331043152	0
4	224	557.678344759667	0
4	225	558.768407820478	0
4	232	565.9436230653	0
4	234	571.095681568967	0
4	236	575.917811479756	0
4	237	576.642257872049	0
4	239	583.098400084753	0
4	240	584.072226225453	0
4	242	594.500210084924	0
4	244	598.752685252627	1
4	245	603.5121446156	1
4	246	605.010730022549	0
4	255	633.961808842082	0
4	258	636.40194792983	0
4	260	638.190608503541	0
4	261	641.033056679249	0
4	263	660.593018703502	0
4	264	661.821265531316	0
4	272	689.824420977936	0
4	273	690.383906401415	0
4	277	718.371237768056	0
4	279	724.973432274756	0
4	287	743.664457964074	0
4	288	745.060268107669	0
4	290	753.942981059847	0
4	291	755.852054780786	0
4	299	784.610996476157	0
4	300	785.529740779309	0
4	302	794.14696762077	0
4	303	794.966656006081	0
4	305	821.459204172439	0
4	306	822.990780955378	0
4	308	824.042809397798	0
4	309	824.904350032482	0
4	311	825.196270828596	0
4	312	827.611335384787	0
4	314	831.852211033489	0
4	315	832.348514569851	0
4	317	833.937966094001	0
4	318	834.180764288453	0
4	320	850.399986038396	0
4	321	853.857984395345	0
4	323	854.88890090233	0
4	324	855.282265410642	0
4	326	873.482015827866	0
4	327	875.143248415849	0
4	334	901.221155159812	0
4	339	906.656154822203	0
4	341	908.871473264762	0
4	343	909.602093200762	1
4	344	909.784871894244	1
4	345	910.831714366305	0
4	347	923.781926997375	0
4	348	924.29524915128	0
4	352	931.423927518258	0
4	354	935.34854775355	0
4	356	938.348939201108	0
4	357	939.468188350629	0
4	359	943.24238757556	0
4	360	944.676299865416	0
4	362	962.235470988632	0
4	363	963.464360151529	0
4	365	966.330123148036	0
4	366	969.73640240403	0
4	368	975.99798697478	0
4	369	978.049395090754	0
4	371	978.705821758407	0
4	372	980.144270978369	0
4	374	998.482918602949	0
4	375	1001.126332521571	0
4	380	1005.920830405399	0
4	381	1006.168002044945	0
4	383	1008.556543930712	0
4	384	1011.159848964181	0
4	386	1012.386704453106	0
4	390	1017.256580618651	0
4	392	1017.532002700798	0
4	393	1017.652419826655	0
4	395	1032.004903157706	0
4	396	1032.961126773558	0
4	401	1041.796544683268	0
4	402	1043.349418217988	0
4	404	1044.847656911698	0
4	406	1046.391258790932	1
4	407	1049.57459109553	1
4	408	1050.129573536271	0
4	412	1057.922203388058	0
4	414	1059.232388767943	1
4	416	1065.576176905336	2
4	418	1070.968940743702	3
4	420	1075.235585936981	3
4	424	1078.173061383262	2
4	426	1079.763365671196	2
4	427	1082.931491188321	2
4	428	1083.898784365561	1
4	429	1086.027268803469	0
4	431	1087.902579559694	0
4	432	1091.123530105722	0
4	434	1097.392755284878	0
4	435	1099.038512255972	0
4	445	1125.766233095256	0
4	447	1130.795811886218	0
4	451	1143.088657313181	0
4	453	1145.797000327753	0
4	455	1148.352433743115	0
4	456	1149.429749714316	0
4	458	1150.14231878262	0
4	459	1150.224131129897	0
4	461	1163.488885027925	0
4	462	1163.628213697881	0
4	464	1173.619248624901	0
4	465	1178.863737182262	0
4	473	1227.547002012055	0
4	474	1229.086649032191	0
4	479	1246.485309322208	0
4	480	1248.131109110844	0
4	485	1271.334097917293	0
4	486	1271.547170204223	0
4	488	1274.754701552974	0
4	490	1274.77495479427	1
4	492	1275.295250023809	2
4	493	1277.700397251957	2
4	494	1279.882165906008	1
4	495	1281.173218005886	0
4	500	1310.814878514192	0
4	501	1310.934648747879	0
4	509	1389.787856502193	0
4	510	1389.982173599472	0
4	514	1411.774448768679	0
4	516	1416.222413151197	1
4	518	1421.443788752362	1
4	519	1423.528675247663	0
4	521	1428.245109142045	0
4	522	1429.953565058204	0
4	524	1434.999012423788	0
4	525	1435.787718264308	0
4	527	1436.025151640752	0
4	528	1437.092769453034	0
4	530	1441.760245540321	0
4	531	1443.109029016713	0
4	535	1450.280010984042	0
4	537	1455.115763732546	0
4	541	1465.101520267697	0
4	548	1482.251566661279	1
4	551	1492.180508218109	2
4	556	1499.324593056004	2
4	558	1500.410585507111	2
4	559	1500.707001660744	2
4	560	1501.493718081319	1
4	561	1503.398110285484	0
4	563	1506.819636616315	0
4	564	1506.85335363753	0
4	566	1511.139202840092	0
4	567	1511.943980238884	0
4	571	1519.026689187163	0
4	573	1521.652818963947	0
4	577	1526.868349624458	0
4	579	1530.264889582933	0
4	583	1532.515385442083	0
4	585	1535.325266212494	0
4	587	1553.683836730964	0
4	588	1556.299482289643	0
4	590	1559.904844978734	0
4	591	1559.924956270652	0
4	593	1561.116318174958	0
4	594	1562.986386856589	0
4	596	1573.486427605865	0
4	598	1573.805863783555	1
4	600	1574.189933004483	2
4	601	1574.406546672691	2
4	602	1574.561153308467	1
4	603	1574.63482764755	0
4	610	1604.725678599515	0
4	615	1611.765668553158	0
4	617	1612.040647159783	0
4	618	1612.395956203492	0
4	620	1615.447868378449	0
4	621	1616.319797075418	0
4	623	1616.539714252569	0
4	624	1619.328359965028	0
4	626	1622.372766462893	0
4	627	1623.075348044502	0
4	634	1631.729331216195	0
4	636	1634.727168303325	1
4	638	1638.316491042388	1
4	643	1643.010151488724	1
4	644	1643.492334678296	1
4	645	1645.06986580529	0
4	647	1652.095645300041	0
4	648	1653.286018459208	0
4	650	1657.888339907812	0
4	651	1660.813636868868	0
4	653	1668.538743181191	0
4	654	1668.974145836783	0
4	656	1671.840158955775	0
4	657	1671.869987301971	0
4	659	1675.065592406074	0
4	660	1675.107380015471	0
4	662	1679.339446979447	0
4	663	1686.320122780743	0
4	668	1698.856789361593	0
4	669	1699.203283248748	0
4	677	1746.146211424682	0
4	678	1746.36821598073	0
4	680	1768.10364118851	0
4	681	1769.444280984149	0
4	686	1781.822805675791	0
4	687	1783.764599828778	0
4	689	1785.178380479258	0
4	690	1785.446445362624	0
4	696	1805.982725966671	0
4	699	1807.423493722943	0
4	701	1816.75790201413	0
4	702	1819.478248712788	0
4	712	1843.574654344956	0
4	714	1851.140800420164	0
4	716	1879.373204660125	0
4	717	1881.612042067983	0
4	719	1887.469695952147	0
4	720	1888.157211514203	0
4	722	1903.408989516434	0
4	723	1903.686752583142	0
4	730	1925.420946342677	0
4	732	1927.398926209321	1
4	734	1929.417975943475	2
4	736	1930.165856613344	2
4	737	1932.350895338424	1
4	738	1932.813397375783	0
4	740	1944.773949654688	0
4	741	1945.386727469056	0
4	743	1948.558407843685	0
4	744	1949.116586688864	0
4	749	1983.66670938471	0
4	751	1984.43627306884	1
4	752	1984.625828872149	1
4	753	1984.966979869871	0
4	755	1988.943174813553	0
4	756	1989.306405161871	0
4	758	1992.87248004456	0
4	759	1993.322550165271	0
4	761	1993.792383647937	0
4	762	1997.439614510031	0
4	764	2021.120040871594	0
4	768	2024.803470012412	0
4	770	2025.333446785742	0
4	771	2027.469177335434	0
4	773	2054.053071454524	0
4	774	2054.140670130898	0
4	776	2062.518611221697	0
4	778	2063.391034652114	1
4	779	2064.21173001053	1
4	780	2064.703254776583	0
4	782	2065.200412046749	0
4	783	2065.232824131998	0
4	785	2067.369660307153	0
4	786	2071.122345679181	0
4	788	2077.355952694257	0
4	789	2078.978029457621	0
4	791	2080.661174205752	0
4	793	2081.339312086223	1
4	794	2082.232578834388	1
4	795	2082.381380772095	0
4	797	2083.359432863404	0
4	798	2083.797679647827	0
4	812	2107.763453955233	0
4	813	2110.431682416896	0
4	815	2130.147397150886	0
4	817	2131.075723428299	1
4	818	2132.031939562025	1
4	819	2132.211380671218	0
4	821	2142.161567990562	0
4	822	2142.707557256114	0
4	824	2144.385352452261	0
4	825	2145.640288619288	0
4	829	2146.283239973336	0
4	831	2152.601664735297	0
4	833	2152.668933988442	0
4	834	2152.956812130854	0
4	836	2171.148276558928	0
4	837	2172.587482660857	0
4	839	2176.964284117084	0
4	843	2184.144787289533	0
4	845	2185.652321415968	0
4	846	2186.671909639283	0
4	848	2200.157511841202	0
4	849	2200.208906538488	0
4	851	2201.869038775595	0
4	853	2201.997293095396	1
4	855	2203.452852601386	2
4	856	2203.805682054094	2
4	857	2206.1899230873	1
4	865	2214.867934563696	1
4	868	2223.657100916351	2
4	871	2226.881252968874	3
4	873	2228.20227608178	3
4	875	2228.640744741857	3
4	876	2229.956330151861	3
4	882	2237.903645916445	3
4	885	2242.477657187887	4
4	887	2245.893610693363	4
4	888	2246.95500104741	3
4	889	2247.266933053132	2
4	890	2247.406017070932	1
4	891	2249.643835788971	0
4	893	2250.373639852665	0
4	894	2254.533729756046	0
4	898	2283.883901231491	0
4	900	2286.238464290669	1
4	905	2291.033589747978	1
4	909	2292.394663766225	0
4	911	2299.319823196942	0
4	912	2299.945525590639	0
4	914	2300.783069113227	0
4	915	2301.733671456249	0
4	917	2313.804224342733	0
4	918	2317.665092718849	0
4	922	2328.464642079065	0
4	924	2331.954643247953	0
4	926	2335.545418203672	0
4	927	2336.131214099714	0
4	929	2341.981072622497	0
4	930	2342.115379574453	0
4	932	2343.334747485083	0
4	933	2343.969600369031	0
4	935	2350.655980734442	0
4	936	2351.076304787024	0
4	938	2351.535681568716	0
4	939	2352.328474969192	0
4	944	2380.394249811124	0
4	945	2383.743916548503	0
4	947	2385.512245301738	0
4	948	2386.167224813624	0
4	950	2395.827166958937	0
4	951	2396.804055485074	0
4	956	2438.359583112643	0
4	957	2441.130190382979	0
4	962	2444.126573409002	0
4	963	2444.443397143122	0
4	965	2448.04074565643	0
4	966	2448.332954337386	0
4	968	2454.272997008193	0
4	969	2454.71062097467	0
4	971	2459.202377342599	0
4	972	2459.237583142431	0
4	974	2462.063629544418	0
4	975	2464.218996095892	0
4	977	2466.971518960638	0
4	978	2469.315359415294	0
4	980	2469.938873253385	0
4	982	2472.405728764313	1
4	984	2472.638354338712	2
4	988	2473.954007465772	3
4	993	2477.730755747923	3
4	1000	2496.818283366206	2
4	1001	2497.846554027665	1
4	1002	2498.383183400553	0
5	140	353.053694243165	22
5	149	376.150792910094	23
5	156	384.668191075308	24
5	157	391.584928955093	25
5	158	391.609516715204	26
5	167	416.797279852804	27
5	171	419.825440202605	28
5	176	424.936715066373	29
5	198	467.228794133973	30
5	204	476.140111815493	31
5	207	496.32054226961	32
5	228	563.923219462095	33
5	233	566.792123126709	34
5	251	622.419136274698	35
5	256	634.500037734815	36
5	257	635.318873164107	37
5	267	671.893971273801	38
5	270	685.18565467797	39
5	278	724.920846552844	40
5	282	731.043159434705	41
5	285	742.613862453058	42
5	294	758.449684733253	43
5	297	777.549619237242	44
5	330	894.357433932204	45
5	337	904.360585395619	46
5	338	905.249681001002	47
5	353	933.439858640231	48
5	378	1002.989758705237	49
5	389	1017.235183952139	50
5	399	1041.250787248307	51
5	419	1074.162794862203	52
5	423	1076.63856234877	53
5	438	1115.087075489647	54
5	443	1125.615512369505	55
5	446	1130.270556469412	56
5	452	1145.683689411126	57
5	468	1196.892856796353	58
5	471	1224.644680726939	59
5	477	1243.011983672401	60
5	483	1261.929510688376	61
5	498	1291.760043963935	62
5	504	1348.454033933078	63
5	507	1371.830289295032	64
5	517	1420.840733669451	65
5	536	1453.518811912084	66
5	546	1478.080070117916	67
5	549	1491.483367033003	68
5	554	1498.141262546968	69
5	555	1498.422739299276	70
5	572	1520.887221732785	71
5	578	1529.507272251063	72
5	584	1534.197630667496	73
5	606	1601.19365241955	74
5	613	1608.319262102164	75
5	614	1608.996462952799	76
5	630	1623.972686161179	77
5	637	1636.689087200116	78
5	641	1641.171859228842	79
5	666	1696.653619472073	80
5	672	1728.907947283561	81
5	675	1742.475159726696	82
5	684	1774.62206989071	83
5	697	1806.459358339863	84
5	698	1806.944236704306	85
5	705	1826.659585697379	86
5	708	1833.708186680401	87
5	713	1849.519565205538	88
5	728	1924.50449144288	89
5	735	1929.801733587707	90
5	747	1980.214785551815	91
5	767	2024.705152087282	92
5	801	2096.994178640764	93
5	804	2097.532376642571	94
5	807	2100.544728571967	95
5	810	2104.404581903224	96
5	830	2151.997754344159	97
5	842	2181.904020979576	98
5	866	2219.690764378114	99
5	869	2225.206795053328	100
5	872	2226.906255695428	101
5	883	2239.117776295015	102
5	886	2244.878155601526	103
5	903	2287.157011925049	104
5	904	2290.829905592392	105
5	908	2292.26787600097	106
5	923	2329.497789545528	107
5	942	2378.015633468122	108
5	954	2432.728425947821	109
5	960	2444.102596483028	110
5	991	2477.23543463083	111
5	992	2477.644965926063	112
5	996	2483.823584853179	113
5	999	2488.362944702728	114
6	140	353.053694243165	2.14259889498
6	149	376.150792910094	9.760088776912
6	156	384.668191075308	13.494629763268
6	157	391.584928955093	13.76431596918
6	158	391.609516715204	13.639713842984
6	167	416.797279852804	10.20667346703
6	171	419.825440202605	2.208148654026
6	176	424.936715066373	1.033619494867
6	198	467.228794133973	0.007288798599
6	204	476.140111815493	1.96941263651
6	207	496.32054226961	0.348825268753
6	228	563.923219462095	2.333544834445
6	233	566.792123126709	1.151696784193
6	251	622.419136274698	7.892434969825
6	256	634.500037734815	19.245505240436
6	257	635.318873164107	3.269650644942
6	267	671.893971273801	0.930516436362
6	270	685.18565467797	0.931302683308
6	278	724.920846552844	15.510201999706
6	282	731.043159434705	0.423265844006
6	285	742.613862453058	1.369218723101
6	294	758.449684733253	1.82047882231
6	297	777.549619237242	0.002717937389
6	330	894.357433932204	7.645971566861
6	337	904.360585395619	4.170093806996
6	338	905.249681001002	1.996574694066
6	353	933.439858640231	4.869185685614
6	378	1002.989758705237	0.366302490114
6	389	1017.235183952139	1.350548680049
6	399	1041.250787248307	6.03774873985
6	419	1074.162794862203	24.016538354969
6	423	1076.63856234877	0.99823313756
6	438	1115.087075489647	1.032453745674
6	443	1125.615512369505	4.567937572911
6	446	1130.270556469412	5.602251766225
6	452	1145.683689411126	2.682971045744
6	468	1196.892856796353	3.628299913098
6	471	1224.644680726939	3.603334502988
6	477	1243.011983672401	2.838055753424
6	483	1261.929510688376	1.2465148193
6	498	1291.760043963935	1.128289589615
6	504	1348.454033933078	6.465350114898
6	507	1371.830289295032	4.372310849976
6	517	1420.840733669451	9.466800100003
6	536	1453.518811912084	9.350820084151
6	546	1478.080070117916	13.217835020175
6	549	1491.483367033003	21.09344184758
6	554	1498.141262546968	20.741955174111
6	555	1498.422739299276	3.723895441002
6	572	1520.887221732785	3.2369245473
6	578	1529.507272251063	5.191653081362
6	584	1534.197630667496	3.395166058465
6	606	1601.19365241955	0.091151679436
6	613	1608.319262102164	4.513422001992
6	614	1608.996462952799	2.29474702375
6	630	1623.972686161179	0.395416071587
6	637	1636.689087200116	6.662878320668
6	641	1641.171859228842	0.62485171352
6	666	1696.653619472073	1.159634513549
6	672	1728.907947283561	16.975926994086
6	675	1742.475159726696	10.760373387284
6	684	1774.62206989071	4.377211169705
6	697	1806.459358339863	3.604426480122
6	698	1806.944236704306	2.054875378072
6	705	1826.659585697379	1.769748732772
6	708	1833.708186680401	0.068616152952
6	713	1849.519565205538	6.78728237011
6	728	1924.50449144288	9.067881853347
6	735	1929.801733587707	12.912251235146
6	747	1980.214785551815	12.313059233126
6	767	2024.705152087282	3.069207107629
6	801	2096.994178640764	6.096892098453
6	804	2097.532376642571	0.480664006262
6	807	2100.544728571967	2.447005519999
6	810	2104.404581903224	1.529376958556
6	830	2151.997754344159	6.115674596829
6	842	2181.904020979576	4.444570493389
6	866	2219.690764378114	12.839995245254
6	869	2225.206795053328	16.95727457275
6	872	2226.906255695428	13.178115952087
6	883	2239.117776295015	8.654426490631
6	886	2244.878155601526	12.222643209028
6	903	2287.157011925049	4.660540914142
6	904	2290.829905592392	4.210229774693
6	908	2292.26787600097	1.20753322541
6	923	2329.497789545528	10.492745679917
6	942	2378.015633468122	19.273508675015
6	954	2432.728425947821	12.877832898766
6	960	2444.102596483028	1.494806120766
6	991	2477.23543463083	3.359180975434
6	992	2477.644965926063	2.486605056204
6	996	2483.823584853179	4.534350767818
6	999	2488.362944702728	3.309045890389
7	140	353.053694243165	1.426661053567
7	143	356.77249646216	0
7	158	391.609516715204	11.796916487224
7	161	402.963737716547	0
7	167	416.797279852804	6.195368123029
7	176	424.936715066373	0.908575636839
7	179	426.868942028569	0
7	182	430.0817299749	0
7	185	441.223251046719	0
7	188	447.851077409646	0
7	191	456.100258157296	0
7	194	463.758244053226	0
7	200	471.579336823452	0
7	209	502.794677597688	0
7	212	525.18586160872	0
7	215	531.255079119128	0
7	218	549.756142199541	0
7	221	554.025330218918	0
7	224	557.678344759667	0
7	233	566.792123126709	0.848500061409
7	236	575.917811479756	0
7	239	583.098400084753	0
7	242	594.500210084924	0
7	245	603.5121446156	4.759459362973
7	257	635.318873164107	1.357064322025
7	260	638.190608503541	0
7	263	660.593018703502	0
7	272	689.824420977936	0
7	278	724.920846552844	6.549608784788
7	287	743.664457964074	0
7	290	753.942981059847	0
7	299	784.610996476157	0
7	302	794.14696762077	0
7	305	821.459204172439	0
7	308	824.042809397798	0
7	311	825.196270828596	0
7	314	831.852211033489	0
7	317	833.937966094001	0
7	320	850.399986038396	0
7	323	854.88890090233	0
7	326	873.482015827866	0
7	338	905.249681001002	4.02852584119
7	341	908.871473264762	0
7	344	909.784871894244	0.182778693482
7	347	923.781926997375	0
7	353	933.439858640231	2.015931121973
7	356	938.348939201108	0
7	359	943.24238757556	0
7	362	962.235470988632	0
7	365	966.330123148036	0
7	368	975.99798697478	0
7	371	978.705821758407	0
7	374	998.482918602949	0
7	380	1005.920830405399	0
7	383	1008.556543930712	0
7	386	1012.386704453106	0
7	389	1017.235183952139	1.350548680049
7	392	1017.532002700798	0
7	395	1032.004903157706	0
7	401	1041.796544683268	0
7	404	1044.847656911698	0
7	407	1049.57459109553	3.183332304598
7	419	1074.162794862203	16.240591474145
7	420	1075.235585936981	16.003197169038
7	423	1076.63856234877	11.062385443434
7	424	1078.173061383262	7.20412063956
7	427	1082.931491188321	7.291161977111
7	428	1083.898784365561	4.135418694365
7	431	1087.902579559694	0
7	434	1097.392755284878	0
7	446	1130.270556469412	4.504323374156
7	452	1145.683689411126	2.595032097945
7	455	1148.352433743115	0
7	458	1150.14231878262	0
7	461	1163.488885027925	0
7	464	1173.619248624901	0
7	473	1227.547002012055	0
7	479	1246.485309322208	0
7	485	1271.334097917293	0
7	488	1274.754701552974	0
7	493	1277.700397251957	2.925442457687
7	494	1279.882165906008	4.586915882199
7	500	1310.814878514192	0
7	509	1389.787856502193	0
7	517	1420.840733669451	9.066284900772
7	518	1421.443788752362	5.221375601165
7	521	1428.245109142045	0
7	524	1434.999012423788	0
7	527	1436.025151640752	0
7	530	1441.760245540321	0
7	536	1453.518811912084	3.238800928042
7	555	1498.422739299276	33.321219031579
7	556	1499.324593056004	17.073026394725
7	559	1500.707001660744	8.526493442635
7	560	1501.493718081319	1.083132574208
7	563	1506.819636616315	0
7	566	1511.139202840092	0
7	572	1520.887221732785	1.860532545622
7	578	1529.507272251063	2.638922626605
7	584	1534.197630667496	1.682245225413
7	587	1553.683836730964	0
7	590	1559.904844978734	0
7	593	1561.116318174958	0
7	596	1573.486427605865	0
7	601	1574.406546672691	0.600682889136
7	602	1574.561153308467	0.371220303984
7	614	1608.996462952799	4.270784353284
7	617	1612.040647159783	0
7	620	1615.447868378449	0
7	623	1616.539714252569	0
7	626	1622.372766462893	0
7	637	1636.689087200116	4.959755983921
7	638	1638.316491042388	3.589322739063
7	641	1641.171859228842	0.62485171352
7	644	1643.492334678296	0.482183189572
7	647	1652.095645300041	0
7	650	1657.888339907812	0
7	653	1668.538743181191	0
7	656	1671.840158955775	0
7	659	1675.065592406074	0
7	662	1679.339446979447	0
7	668	1698.856789361593	0
7	677	1746.146211424682	0
7	680	1768.10364118851	0
7	686	1781.822805675791	0
7	689	1785.178380479258	0
7	698	1806.944236704306	0.961510737635
7	701	1816.75790201413	0
7	713	1849.519565205538	5.944910860582
7	716	1879.373204660125	0
7	719	1887.469695952147	0
7	722	1903.408989516434	0
7	735	1929.801733587707	4.38078724503
7	736	1930.165856613344	2.766930404023
7	737	1932.350895338424	2.932919394949
7	740	1944.773949654688	0
7	743	1948.558407843685	0
7	749	1983.66670938471	0
7	752	1984.625828872149	0.189555803309
7	755	1988.943174813553	0
7	758	1992.87248004456	0
7	761	1993.792383647937	0
7	764	2021.120040871594	0
7	767	2024.705152087282	3.069207107629
7	770	2025.333446785742	0
7	773	2054.053071454524	0
7	776	2062.518611221697	0
7	779	2064.21173001053	0.820695358416
7	782	2065.200412046749	0
7	785	2067.369660307153	0
7	788	2077.355952694257	0
7	791	2080.661174205752	0
7	794	2082.232578834388	0.893266748165
7	797	2083.359432863404	0
7	812	2107.763453955233	0
7	815	2130.147397150886	0
7	818	2132.031939562025	0.956216133726
7	821	2142.161567990562	0
7	824	2144.385352452261	0
7	830	2151.997754344159	5.714514370823
7	833	2152.668933988442	0
7	836	2171.148276558928	0
7	839	2176.964284117084	0
7	842	2181.904020979576	4.444570493389
7	845	2185.652321415968	0
7	848	2200.157511841202	0
7	851	2201.869038775595	0
7	856	2203.805682054094	1.808388958698
7	857	2206.1899230873	2.737070485914
7	872	2226.906255695428	20.055486562568
7	873	2228.20227608178	13.334341518084
7	876	2229.956330151861	6.29922923551
7	886	2244.878155601526	17.996902632652
7	887	2245.893610693363	17.252865951506
7	888	2246.95500104741	16.491651243026
7	889	2247.266933053132	9.363287136687
7	890	2247.406017070932	4.928359883045
7	893	2250.373639852665	0
7	904	2290.829905592392	6.946004360901
7	905	2291.033589747978	4.795125457309
7	908	2292.26787600097	1.20753322541
7	911	2299.319823196942	0
7	914	2300.783069113227	0
7	917	2313.804224342733	0
7	923	2329.497789545528	1.033147466463
7	926	2335.545418203672	0
7	929	2341.981072622497	0
7	932	2343.334747485083	0
7	935	2350.655980734442	0
7	938	2351.535681568716	0
7	944	2380.394249811124	0
7	947	2385.512245301738	0
7	950	2395.827166958937	0
7	956	2438.359583112643	0
7	962	2444.126573409002	0
7	965	2448.04074565643	0
7	968	2454.272997008193	0
7	971	2459.202377342599	0
7	974	2462.063629544418	0
7	977	2466.971518960638	0
7	980	2469.938873253385	0
7	992	2477.644965926063	5.23923716175
7	993	2477.730755747923	5.092401409211
7	996	2483.823584853179	9.947331197783
7	999	2488.362944702728	14.408937236956
7	1000	2496.818283366206	17.529049280845
7	1001	2497.846554027665	12.792655215326
8	141	353.942373822636	25
8	144	357.911233695687	26
8	159	392.930341571597	27
8	162	403.747089654638	28
8	168	417.062358949339	29
8	177	426.341117308981	30
8	180	427.972143694573	31
8	183	431.697056413457	32
8	186	441.815152587114	33
8	189	448.525344810885	34
8	192	457.90215406917	35
8	195	464.305672585695	36
8	201	472.263830067368	37
8	210	506.359484723287	38
8	213	527.901124210278	39
8	216	531.69983473516	40
8	219	550.740910787406	41
8	222	554.420331043152	42
8	225	558.768407820478	43
8	234	571.095681568967	44
8	237	576.642257872049	45
8	240	584.072226225453	46
8	245	603.5121446156	47
8	246	605.010730022549	48
8	258	636.40194792983	49
8	261	641.033056679249	50
8	264	661.821265531316	51
8	273	690.383906401415	52
8	279	724.973432274756	53
8	288	745.060268107669	54
8	291	755.852054780786	55
8	300	785.529740779309	56
8	303	794.966656006081	57
8	306	822.990780955378	58
8	309	824.904350032482	59
8	312	827.611335384787	60
8	315	832.348514569851	61
8	318	834.180764288453	62
8	321	853.857984395345	63
8	324	855.282265410642	64
8	327	875.143248415849	65
8	339	906.656154822203	66
8	344	909.784871894244	67
8	345	910.831714366305	68
8	348	924.29524915128	69
8	354	935.34854775355	70
8	357	939.468188350629	71
8	360	944.676299865416	72
8	363	963.464360151529	73
8	366	969.73640240403	74
8	369	978.049395090754	75
8	372	980.144270978369	76
8	375	1001.126332521571	77
8	381	1006.168002044945	78
8	384	1011.159848964181	79
8	390	1017.256580618651	80
8	393	1017.652419826655	81
8	396	1032.961126773558	82
8	402	1043.349418217988	83
8	407	1049.57459109553	84
8	408	1050.129573536271	85
8	420	1075.235585936981	86
8	424	1078.173061383262	87
8	427	1082.931491188321	88
8	428	1083.898784365561	89
8	429	1086.027268803469	90
8	432	1091.123530105722	91
8	435	1099.038512255972	92
8	447	1130.795811886218	93
8	453	1145.797000327753	94
8	456	1149.429749714316	95
8	459	1150.224131129897	96
8	462	1163.628213697881	97
8	465	1178.863737182262	98
8	474	1229.086649032191	99
8	480	1248.131109110844	100
8	486	1271.547170204223	101
8	493	1277.700397251957	102
8	494	1279.882165906008	103
8	495	1281.173218005886	104
8	501	1310.934648747879	105
8	510	1389.982173599472	106
8	518	1421.443788752362	107
8	519	1423.528675247663	108
8	522	1429.953565058204	109
8	525	1435.787718264308	110
8	528	1437.092769453034	111
8	531	1443.109029016713	112
8	537	1455.115763732546	113
8	556	1499.324593056004	114
8	559	1500.707001660744	115
8	560	1501.493718081319	116
8	561	1503.398110285484	117
8	564	1506.85335363753	118
8	567	1511.943980238884	119
8	573	1521.652818963947	120
8	579	1530.264889582933	121
8	585	1535.325266212494	122
8	588	1556.299482289643	123
8	591	1559.924956270652	124
8	594	1562.986386856589	125
8	601	1574.406546672691	126
8	602	1574.561153308467	127
8	603	1574.63482764755	128
8	615	1611.765668553158	129
8	618	1612.395956203492	130
8	621	1616.319797075418	131
8	624	1619.328359965028	132
8	627	1623.075348044502	133
8	638	1638.316491042388	134
8	644	1643.492334678296	135
8	645	1645.06986580529	136
8	648	1653.286018459208	137
8	651	1660.813636868868	138
8	654	1668.974145836783	139
8	657	1671.869987301971	140
8	660	1675.107380015471	141
8	663	1686.320122780743	142
8	669	1699.203283248748	143
8	678	1746.36821598073	144
8	681	1769.444280984149	145
8	687	1783.764599828778	146
8	690	1785.446445362624	147
8	699	1807.423493722943	148
8	702	1819.478248712788	149
8	714	1851.140800420164	150
8	717	1881.612042067983	151
8	720	1888.157211514203	152
8	723	1903.686752583142	153
8	736	1930.165856613344	154
8	737	1932.350895338424	155
8	738	1932.813397375783	156
8	741	1945.386727469056	157
8	744	1949.116586688864	158
8	752	1984.625828872149	159
8	753	1984.966979869871	160
8	756	1989.306405161871	161
8	759	1993.322550165271	162
8	762	1997.439614510031	163
8	768	2024.803470012412	164
8	771	2027.469177335434	165
8	774	2054.140670130898	166
8	779	2064.21173001053	167
8	780	2064.703254776583	168
8	783	2065.232824131998	169
8	786	2071.122345679181	170
8	789	2078.978029457621	171
8	794	2082.232578834388	172
8	795	2082.381380772095	173
8	798	2083.797679647827	174
8	813	2110.431682416896	175
8	818	2132.031939562025	176
8	819	2132.211380671218	177
8	822	2142.707557256114	178
8	825	2145.640288619288	179
8	831	2152.601664735297	180
8	834	2152.956812130854	181
8	837	2172.587482660857	182
8	843	2184.144787289533	183
8	846	2186.671909639283	184
8	849	2200.208906538488	185
8	856	2203.805682054094	186
8	857	2206.1899230873	187
8	873	2228.20227608178	188
8	876	2229.956330151861	189
8	887	2245.893610693363	190
8	888	2246.95500104741	191
8	889	2247.266933053132	192
8	890	2247.406017070932	193
8	891	2249.643835788971	194
8	894	2254.533729756046	195
8	905	2291.033589747978	196
8	909	2292.394663766225	197
8	912	2299.945525590639	198
8	915	2301.733671456249	199
8	918	2317.665092718849	200
8	924	2331.954643247953	201
8	927	2336.131214099714	202
8	930	2342.115379574453	203
8	933	2343.969600369031	204
8	936	2351.076304787024	205
8	939	2352.328474969192	206
8	945	2383.743916548503	207
8	948	2386.167224813624	208
8	951	2396.804055485074	209
8	957	2441.130190382979	210
8	963	2444.443397143122	211
8	966	2448.332954337386	212
8	969	2454.71062097467	213
8	972	2459.237583142431	214
8	975	2464.218996095892	215
8	978	2469.315359415294	216
8	993	2477.730755747923	217
8	1000	2496.818283366206	218
8	1001	2497.846554027665	219
8	1002	2498.383183400553	220
9	141	353.942373822636	2.315340633038
9	144	357.911233695687	1.138737233527
9	159	392.930341571597	13.117741343617
9	162	403.747089654638	0.783351938091
9	168	417.062358949339	6.460447219564
9	177	426.341117308981	2.312977879447
9	180	427.972143694573	1.103201666004
9	183	431.697056413457	1.615326438557
9	186	441.815152587114	0.591901540395
9	189	448.525344810885	0.674267401239
9	192	457.90215406917	1.801895911874
9	195	464.305672585695	0.547428532469
9	201	472.263830067368	0.684493243916
9	210	506.359484723287	3.564807125599
9	213	527.901124210278	2.715262601558
9	216	531.69983473516	0.444755616032
9	219	550.740910787406	0.984768587865
9	222	554.420331043152	0.395000824234
9	225	558.768407820478	1.090063060811
9	234	571.095681568967	5.152058503667
9	237	576.642257872049	0.724446392293
9	240	584.072226225453	0.9738261407
9	245	603.5121446156	9.011934530676
9	246	605.010730022549	6.258044769922
9	258	636.40194792983	2.440139087748
9	261	641.033056679249	2.842448175708
9	264	661.821265531316	1.228246827814
9	273	690.383906401415	0.559485423479
9	279	724.973432274756	6.6021945067
9	288	745.060268107669	1.395810143595
9	291	755.852054780786	1.909073720939
9	300	785.529740779309	0.918744303152
9	303	794.966656006081	0.819688385311
9	306	822.990780955378	1.531576782939
9	309	824.904350032482	0.861540634684
9	312	827.611335384787	2.415064556191
9	315	832.348514569851	0.496303536362
9	318	834.180764288453	0.242798194452
9	321	853.857984395345	3.457998356949
9	324	855.282265410642	0.393364508312
9	327	875.143248415849	1.661232587983
9	339	906.656154822203	5.434999662391
9	344	909.784871894244	0.913398629482
9	345	910.831714366305	1.229621165543
9	348	924.29524915128	0.513322153905
9	354	935.34854775355	3.924620235292
9	357	939.468188350629	1.119249149521
9	360	944.676299865416	1.433912289856
9	363	963.464360151529	1.228889162897
9	366	969.73640240403	3.406279255994
9	369	978.049395090754	2.051408115974
9	372	980.144270978369	1.438449219962
9	375	1001.126332521571	2.643413918622
9	381	1006.168002044945	0.247171639546
9	384	1011.159848964181	2.603305033469
9	390	1017.256580618651	1.371945346561
9	393	1017.652419826655	0.120417125857
9	396	1032.961126773558	0.956223615852
9	402	1043.349418217988	1.55287353472
9	407	1049.57459109553	4.726934183832
9	408	1050.129573536271	3.738314745339
9	420	1075.235585936981	17.313382548923
9	424	1078.173061383262	12.596884477926
9	427	1082.931491188321	11.962550444619
9	428	1083.898784365561	8.258455154351
9	429	1086.027268803469	6.263903132273
9	432	1091.123530105722	3.220950546028
9	435	1099.038512255972	1.645756971094
9	447	1130.795811886218	5.029578790962
9	453	1145.797000327753	2.708343014572
9	456	1149.429749714316	1.077315971201
9	459	1150.224131129897	0.081812347277
9	462	1163.628213697881	0.139328669956
9	465	1178.863737182262	5.244488557361
9	474	1229.086649032191	1.539647020136
9	480	1248.131109110844	1.645799788636
9	486	1271.547170204223	0.21307228693
9	493	1277.700397251957	2.945695698983
9	494	1279.882165906008	5.107211111738
9	495	1281.173218005886	5.877967982077
9	501	1310.934648747879	0.119770233687
9	510	1389.982173599472	0.194317097279
9	518	1421.443788752362	9.669339983683
9	519	1423.528675247663	7.306262096466
9	522	1429.953565058204	1.708455916159
9	525	1435.787718264308	0.78870584052
9	528	1437.092769453034	1.067617812282
9	531	1443.109029016713	1.348783476392
9	537	1455.115763732546	4.835752748504
9	556	1499.324593056004	34.223072788307
9	559	1500.707001660744	18.455434999465
9	560	1501.493718081319	9.31320986321
9	561	1503.398110285484	2.987524778373
9	564	1506.85335363753	0.033717021215
9	567	1511.943980238884	0.804777398792
9	573	1521.652818963947	2.626129776784
9	579	1530.264889582933	3.396539958475
9	585	1535.325266212494	2.809880770411
9	588	1556.299482289643	2.615645558679
9	591	1559.924956270652	0.020111291918
9	594	1562.986386856589	1.870068681631
9	601	1574.406546672691	0.920119066826
9	602	1574.561153308467	0.755289524912
9	603	1574.63482764755	0.444894643067
9	615	1611.765668553158	7.039989953643
9	618	1612.395956203492	0.355309043709
9	621	1616.319797075418	0.871928696969
9	624	1619.328359965028	2.788645712459
9	627	1623.075348044502	0.702581581609
9	638	1638.316491042388	6.587159826193
9	644	1643.492334678296	2.945327162974
9	645	1645.06986580529	2.059714316566
9	648	1653.286018459208	1.190373159167
9	651	1660.813636868868	2.925296961056
9	654	1668.974145836783	0.435402655592
9	657	1671.869987301971	0.029828346196
9	660	1675.107380015471	0.041787609397
9	663	1686.320122780743	6.980675801296
9	669	1699.203283248748	0.346493887155
9	678	1746.36821598073	0.222004556048
9	681	1769.444280984149	1.340639795639
9	687	1783.764599828778	1.941794152987
9	690	1785.446445362624	0.268064883366
9	699	1807.423493722943	1.440767756272
9	702	1819.478248712788	2.720346698658
9	714	1851.140800420164	7.566146075208
9	717	1881.612042067983	2.238837407858
9	720	1888.157211514203	0.687515562056
9	723	1903.686752583142	0.277763066708
9	736	1930.165856613344	4.744910270667
9	737	1932.350895338424	4.951969129103
9	738	1932.813397375783	3.395421432308
9	741	1945.386727469056	0.612777814368
9	744	1949.116586688864	0.558178845179
9	752	1984.625828872149	0.959119487439
9	753	1984.966979869871	0.530706801031
9	756	1989.306405161871	0.363230348318
9	759	1993.322550165271	0.450070120711
9	762	1997.439614510031	3.647230862094
9	768	2024.803470012412	3.167525032759
9	771	2027.469177335434	2.135730549692
9	774	2054.140670130898	0.087598676374
9	779	2064.21173001053	1.693118788833
9	780	2064.703254776583	1.312220124469
9	783	2065.232824131998	0.032412085249
9	786	2071.122345679181	3.752685372028
9	789	2078.978029457621	1.622076763364
9	794	2082.232578834388	1.571404628636
9	795	2082.381380772095	1.042068685872
9	798	2083.797679647827	0.438246784423
9	813	2110.431682416896	2.668228461663
9	818	2132.031939562025	1.884542411139
9	819	2132.211380671218	1.135657242919
9	822	2142.707557256114	0.545989265552
9	825	2145.640288619288	1.254936167027
9	831	2152.601664735297	6.318424761961
9	834	2152.956812130854	0.287878142412
9	837	2172.587482660857	1.439206101929
9	843	2184.144787289533	6.685336803346
9	846	2186.671909639283	1.019588223315
9	849	2200.208906538488	0.051394697286
9	856	2203.805682054094	1.936643278499
9	857	2206.1899230873	4.192629991904
9	873	2228.20227608178	21.35150694892
9	876	2229.956330151861	15.088395588165
9	887	2245.893610693363	19.012357724489
9	888	2246.95500104741	18.314256305553
9	889	2247.266933053132	16.803583248748
9	890	2247.406017070932	9.502371154487
9	891	2249.643835788971	7.166178601084
9	894	2254.533729756046	4.160089903381
9	905	2291.033589747978	7.149688516487
9	909	2292.394663766225	1.334320990665
9	912	2299.945525590639	0.625702393697
9	915	2301.733671456249	0.950602343022
9	918	2317.665092718849	3.860868376116
9	924	2331.954643247953	3.490001168888
9	927	2336.131214099714	0.585795896042
9	930	2342.115379574453	0.134306951956
9	933	2343.969600369031	0.634852883948
9	936	2351.076304787024	0.420324052582
9	939	2352.328474969192	0.792793400476
9	945	2383.743916548503	3.349666737379
9	948	2386.167224813624	0.654979511886
9	951	2396.804055485074	0.976888526137
9	957	2441.130190382979	2.770607270336
9	963	2444.443397143122	0.31682373412
9	966	2448.332954337386	0.292208680956
9	969	2454.71062097467	0.437623966477
9	972	2459.237583142431	0.035205799832
9	975	2464.218996095892	2.155366551474
9	978	2469.315359415294	2.343840454656
9	993	2477.730755747923	5.32502698361
9	1000	2496.818283366206	22.864275900434
9	1001	2497.846554027665	18.557319942304
9	1002	2498.383183400553	13.329284588214
10	388	1015.88463527209	3
10	422	1075.64032921121	4
10	640	1640.547007515322	5
10	766	2021.635944979653	6
10	841	2177.459450486187	7
10	859	2206.85076913286	8
10	878	2230.463349804384	9
10	907	2291.06034277556	10
10	986	2473.876253655396	11
10	995	2479.289234085361	12
10	998	2485.053898812339	13
11	1005	2500	0.088
12	1005	2500	0.0456

