version 2
run experiments_easy_game_mode1-221-20230308-12:02:40-19508
attr configname experiments_easy_game_mode1
attr datetime 20230308-12:02:40
attr experiment experiments_easy_game_mode1
attr inifile omnetpp.ini
attr iterationvars "$0=5, $1=2.5, $2=100"
attr iterationvarsf 5,2.5,100-
attr measurement "$0=5, $1=2.5, $2=100"
attr network Network
attr processid 19508
attr repetition 11
attr replication #11
attr resultdir results
attr runnumber 221
attr seedset 11
param *.boss.arrival_mean 20
param *.boss.service_mean 5
param *.minion.arrival_mean 10
param *.minion.service_mean 2.5
param *.player.recover_rate_x 100
param **.minion.arrival_distribution 0
param **.minion.service_distribution 0
param **.boss.arrival_distribution 0
param **.boss.service_distribution 0

vector 0 Network.player minion_jobs_number_stat:vector ETV
attr source signal_minion_jobs_number
vector 1 Network.player minion_jobs_queue_number_stat:vector ETV
attr source signal_minion_jobs_queue_number
vector 2 Network.player boss_jobs_number_stat:vector ETV
attr source signal_boss_jobs_number
vector 3 Network.player boss_jobs_queue_number_stat:vector ETV
attr source signal_boss_jobs_queue_number
vector 4 Network.player boss_defeated_stat:vector ETV
attr source signal_boss_defeated
vector 5 Network.player boss_response_time_stat:vector ETV
attr source signal_boss_response_time
vector 6 Network.player boss_waiting_time_stat:vector ETV
attr source signal_boss_waiting_time
vector 7 Network.player minion_waiting_time_stat:vector ETV
attr source signal_minion_waiting_time
vector 8 Network.player minion_recovered_stat:vector ETV
attr source signal_minion_recovered
vector 9 Network.player minion_defeated_stat:vector ETV
attr source signal_minion_defeated
vector 10 Network.player minion_response_time_stat:vector ETV
attr source signal_minion_response_time
vector 11 Network.player minion_throughput:vector ETV
attr source signal_minion_throughput
vector 12 Network.player boss_throughput:vector ETV
attr source signal_boss_throughput
0	149	350.303694308731	2
0	153	352.709450616181	3
0	155	359.137739579226	4
0	161	369.266637427107	5
0	164	369.375412817191	6
0	166	370.873719345442	7
0	179	387.024720403828	1
0	181	393.162611874545	2
0	185	394.679426205505	1
0	188	415.383307801732	1
0	191	418.87213829018	1
0	196	421.862269267216	1
0	208	441.130071532625	1
0	212	452.061875109923	1
0	224	468.155898046976	1
0	227	488.009898807156	1
0	232	492.900364237022	2
0	234	494.512010483134	3
0	245	512.775260977005	1
0	248	521.052336852026	1
0	250	525.543254130801	2
0	252	527.276736677588	3
0	263	551.162666912064	1
0	266	553.060902280298	1
0	268	555.656423412936	2
0	271	556.754828330883	2
0	275	563.370178863217	1
0	278	565.638401836711	1
0	281	576.375778673491	1
0	286	582.448947497491	2
0	288	584.883224644294	3
0	293	600.709963063835	1
0	302	640.85141684619	1
0	309	687.76161823421	1
0	313	688.727931328968	2
0	319	705.076370722239	2
0	323	715.9480092005	1
0	326	720.686766845378	1
0	330	723.799091568504	2
0	332	731.050371694015	3
0	336	738.21519073483	3
0	338	738.822238024502	4
0	346	744.068287236785	2
0	355	756.484884622359	1
0	357	761.473385222325	2
0	360	762.226094275914	3
0	373	799.724576325184	1
0	387	821.147247013063	1
0	389	823.801422505266	2
0	392	836.749804546185	3
0	398	853.078903192315	1
0	407	870.998470699558	1
0	413	880.830733923947	1
0	421	893.217435194636	1
0	425	906.668866996905	1
0	428	918.623290573403	1
0	430	919.248349479899	2
0	434	945.855647726051	1
0	437	946.688111488124	1
0	440	968.031123308084	1
0	442	970.152406719344	2
0	444	971.150300432477	3
0	451	988.393433997575	1
0	454	994.490623682818	2
0	458	1027.125225611619	1
0	461	1033.912215976126	1
0	464	1043.308456436593	1
0	467	1044.462267627308	1
0	469	1045.632848180084	2
0	474	1047.302069123249	3
0	476	1047.837859487353	4
0	485	1089.368639708313	1
0	491	1100.071111898213	1
0	496	1103.239614144073	1
0	505	1121.983322707557	2
0	519	1144.728342827038	1
0	532	1167.137292667847	2
0	534	1168.93136648433	3
0	545	1208.632144335726	1
0	547	1210.051908615118	2
0	551	1219.258910902078	1
0	554	1223.076690675915	1
0	557	1234.450591372613	1
0	560	1238.123943579705	1
0	563	1242.928870294732	1
0	566	1248.411639262905	1
0	569	1251.379423845751	1
0	573	1255.399082031035	2
0	575	1263.372586817724	3
0	583	1271.767628511126	2
0	590	1293.504490813738	1
0	592	1294.505840097558	2
0	599	1310.016883361914	1
0	602	1326.010644670228	1
0	604	1326.130165290046	2
0	607	1329.258883718323	2
0	613	1339.996337954665	1
0	624	1364.234255218975	1
0	632	1385.251721740677	1
0	637	1408.453509734647	1
0	639	1410.541351761165	2
0	641	1410.701200519422	3
0	650	1437.916239710075	1
0	656	1457.135986058949	1
0	659	1463.863081362695	1
0	662	1475.121051293377	1
0	664	1485.698678768333	2
0	666	1486.082764281978	3
0	670	1488.654620302366	2
0	672	1492.350019974408	3
0	675	1494.481659191787	3
0	680	1502.788513431867	1
0	683	1521.305385869116	1
0	689	1530.321319216425	1
0	692	1541.740056958835	1
0	695	1553.159850998384	1
0	705	1568.578782640119	1
0	710	1578.587247343035	1
0	713	1589.573930396353	1
0	719	1617.49409152528	1
0	722	1622.843226805875	1
0	725	1636.203787737193	1
0	727	1636.223604907962	2
0	737	1649.882857743454	1
0	740	1652.748665399068	1
0	743	1653.901490038131	1
0	746	1656.281657010804	1
0	749	1663.086637639268	1
0	754	1676.909461828521	1
0	758	1697.064821415371	1
0	764	1713.323205912301	1
0	766	1713.507443854502	2
0	769	1714.315219406149	2
0	771	1716.335202817096	3
0	782	1734.695155229784	1
0	784	1735.890649832329	2
0	786	1738.477290119343	3
0	803	1757.670786796485	1
0	805	1759.030456891294	2
0	807	1759.527130891979	3
0	812	1773.983693338513	1
0	815	1780.903749549798	1
0	823	1790.216823658163	1
0	825	1797.21028462533	2
0	827	1799.390672298627	3
0	837	1813.860765463794	3
0	845	1823.203980516358	1
0	848	1827.473098799169	1
0	854	1841.446792750422	1
0	857	1868.244179735752	1
0	867	1887.669891032764	1
0	870	1891.225302871141	2
0	872	1893.784441518926	3
0	878	1901.79464966945	1
0	880	1903.376461398091	2
0	882	1903.969241316446	3
0	884	1905.924883769131	4
0	887	1914.971144170305	4
0	892	1921.532423523295	5
0	899	1931.833855161237	1
0	910	1961.983118157343	1
0	914	1975.499884752887	2
0	916	1976.122818012844	3
0	919	1977.164348844541	4
0	922	1979.50393054575	5
0	924	1983.731705496404	6
0	934	1999.351922660245	7
0	938	2011.039717619805	8
0	944	2026.168821835072	9
0	946	2028.179732084205	10
0	954	2033.048172808381	11
0	956	2033.073617590761	12
0	964	2050.459045601385	13
0	968	2053.572704547533	14
0	970	2053.957049572369	15
0	975	2065.96774147428	15
0	977	2066.468224913352	16
0	982	2071.897140969689	14
0	995	2095.309211991189	4
0	997	2099.152242455596	5
0	1004	2111.494773923332	1
0	1006	2113.8798162556	2
0	1008	2116.269377278582	3
0	1012	2120.023954379216	2
0	1015	2123.122902361805	2
0	1017	2127.750241830486	3
0	1020	2130.078567183926	3
0	1022	2131.495155404478	4
0	1024	2132.624774988384	5
0	1030	2143.935080643314	2
0	1034	2150.616198935546	1
0	1037	2157.745754046788	1
0	1043	2176.601181932338	1
0	1049	2196.080128418496	1
0	1051	2196.648671677225	2
0	1053	2196.652310126947	3
0	1056	2197.452306147215	3
0	1061	2212.554795247171	1
0	1064	2220.065471877854	1
0	1067	2235.781844994769	1
0	1078	2247.258262670889	1
0	1080	2247.921152751817	2
0	1085	2262.60975715086	1
0	1088	2268.231280023979	1
0	1095	2284.362463945471	1
0	1098	2288.616964143479	2
0	1100	2288.768008539858	3
0	1107	2307.199077728286	4
0	1112	2320.835344432854	5
0	1120	2327.454243526653	6
0	1123	2334.651959635471	7
0	1125	2337.646540715213	8
0	1144	2382.030018921152	1
0	1146	2383.273477274161	2
0	1150	2384.450095936471	2
0	1154	2394.024967628115	1
0	1156	2397.913866535143	2
0	1160	2402.248345995042	1
0	1163	2423.668402161838	1
0	1166	2430.87271779238	1
0	1168	2431.065062749537	2
0	1172	2435.567579352682	1
0	1178	2447.658637715971	1
0	1185	2487.122538059349	1
1	149	350.303694308731	1
1	153	352.709450616181	2
1	155	359.137739579226	3
1	161	369.266637427107	4
1	164	369.375412817191	5
1	166	370.873719345442	6
1	171	374.300650021648	6
1	172	375.155775130388	5
1	173	377.70296236916	4
1	174	379.484805317614	3
1	175	381.509711056733	2
1	176	381.807967800211	1
1	177	383.121902362229	0
1	179	387.024720403828	0
1	181	393.162611874545	1
1	182	393.421097502812	1
1	183	394.064641873267	0
1	185	394.679426205505	0
1	186	395.188514602379	0
1	188	415.383307801732	0
1	189	417.011173578309	0
1	191	418.87213829018	0
1	192	419.029105687038	0
1	196	421.862269267216	0
1	201	429.358381840034	0
1	208	441.130071532625	0
1	210	445.382648801376	0
1	212	452.061875109923	0
1	213	453.289361194207	0
1	224	468.155898046976	0
1	225	468.19864634754	0
1	227	488.009898807156	0
1	232	492.900364237022	1
1	234	494.512010483134	2
1	235	495.896861115152	2
1	239	501.859958179707	1
1	240	507.198213840734	0
1	245	512.775260977005	0
1	246	517.171830748225	0
1	248	521.052336852026	0
1	250	525.543254130801	1
1	252	527.276736677588	2
1	253	527.467071435969	2
1	254	530.764044803801	1
1	255	531.400940243615	0
1	263	551.162666912064	0
1	264	551.60872317512	0
1	266	553.060902280298	0
1	268	555.656423412936	1
1	269	556.124501929174	1
1	271	556.754828330883	1
1	272	560.003276316226	1
1	273	560.29619973064	0
1	275	563.370178863217	0
1	276	564.660983481965	0
1	278	565.638401836711	0
1	279	567.935412306376	0
1	281	576.375778673491	0
1	286	582.448947497491	1
1	288	584.883224644294	2
1	289	591.618241440476	2
1	290	592.923769187974	1
1	291	593.575766771774	0
1	293	600.709963063835	0
1	294	605.242361279027	0
1	302	640.85141684619	0
1	303	642.906592601465	0
1	309	687.76161823421	0
1	313	688.727931328968	1
1	317	698.662253941053	1
1	319	705.076370722239	1
1	320	706.475953225875	1
1	321	708.005968177263	0
1	323	715.9480092005	0
1	324	716.611608666598	0
1	326	720.686766845378	0
1	330	723.799091568504	1
1	332	731.050371694015	2
1	334	735.30419674546	2
1	336	738.21519073483	2
1	338	738.822238024502	3
1	339	740.345602710717	3
1	340	741.071317028645	2
1	341	742.287335122011	1
1	346	744.068287236785	1
1	347	744.325717127439	1
1	348	748.42832800932	0
1	355	756.484884622359	0
1	357	761.473385222325	1
1	360	762.226094275914	2
1	361	765.108115512552	2
1	362	767.210801160934	1
1	363	768.138728278463	0
1	373	799.724576325184	0
1	381	819.258787257964	0
1	387	821.147247013063	0
1	389	823.801422505266	1
1	392	836.749804546185	2
1	394	843.732115727789	2
1	395	844.097645221826	1
1	396	845.599824369356	0
1	398	853.078903192315	0
1	399	853.129797457702	0
1	407	870.998470699558	0
1	408	871.24564403339	0
1	413	880.830733923947	0
1	417	891.060902928915	0
1	421	893.217435194636	0
1	423	905.646471318923	0
1	425	906.668866996905	0
1	426	911.044064642379	0
1	428	918.623290573403	0
1	430	919.248349479899	1
1	431	922.007898456972	1
1	432	925.903504785435	0
1	434	945.855647726051	0
1	435	946.180726591808	0
1	437	946.688111488124	0
1	438	956.314132068293	0
1	440	968.031123308084	0
1	442	970.152406719344	1
1	444	971.150300432477	2
1	445	972.873706262456	2
1	446	973.649704388003	1
1	447	973.822914180587	0
1	451	988.393433997575	0
1	454	994.490623682818	1
1	455	995.018549028622	1
1	456	995.526754243487	0
1	458	1027.125225611619	0
1	459	1029.434054421582	0
1	461	1033.912215976126	0
1	462	1034.384575027314	0
1	464	1043.308456436593	0
1	465	1043.452159341557	0
1	467	1044.462267627308	0
1	469	1045.632848180084	1
1	474	1047.302069123249	2
1	476	1047.837859487353	3
1	477	1049.701859990781	3
1	478	1055.791214152495	2
1	482	1061.117613609028	1
1	483	1063.857691831705	0
1	485	1089.368639708313	0
1	486	1090.104757833886	0
1	491	1100.071111898213	0
1	492	1100.667889720153	0
1	496	1103.239614144073	0
1	505	1121.983322707557	1
1	512	1134.259691151508	1
1	513	1135.825142058864	0
1	519	1144.728342827038	0
1	532	1167.137292667847	1
1	534	1168.93136648433	2
1	538	1169.311505759257	2
1	539	1172.150697994363	1
1	540	1181.955552418184	0
1	545	1208.632144335726	0
1	547	1210.051908615118	1
1	548	1214.939955178806	1
1	549	1216.22691917418	0
1	551	1219.258910902078	0
1	552	1221.227417431981	0
1	554	1223.076690675915	0
1	555	1223.242500407745	0
1	557	1234.450591372613	0
1	558	1238.072212891524	0
1	560	1238.123943579705	0
1	561	1239.590845108931	0
1	563	1242.928870294732	0
1	564	1246.119360481092	0
1	566	1248.411639262905	0
1	567	1248.99175829131	0
1	569	1251.379423845751	0
1	573	1255.399082031035	1
1	575	1263.372586817724	2
1	580	1269.5753597591	2
1	581	1270.549056014436	1
1	583	1271.767628511126	1
1	584	1273.276051053439	1
1	585	1275.896937280273	0
1	590	1293.504490813738	0
1	592	1294.505840097558	1
1	596	1306.890061006058	1
1	597	1308.483776740668	0
1	599	1310.016883361914	0
1	600	1311.566830322608	0
1	602	1326.010644670228	0
1	604	1326.130165290046	1
1	605	1327.589987124982	1
1	607	1329.258883718323	1
1	608	1330.967456257961	1
1	609	1331.487310874198	0
1	613	1339.996337954665	0
1	615	1349.070199358006	0
1	624	1364.234255218975	0
1	630	1372.137611230923	0
1	632	1385.251721740677	0
1	633	1390.910405462811	0
1	637	1408.453509734647	0
1	639	1410.541351761165	1
1	641	1410.701200519422	2
1	643	1421.1453026821	2
1	644	1428.680295438493	1
1	645	1428.92921006745	0
1	650	1437.916239710075	0
1	651	1438.476752548629	0
1	656	1457.135986058949	0
1	657	1458.828005336618	0
1	659	1463.863081362695	0
1	660	1466.494397869851	0
1	662	1475.121051293377	0
1	664	1485.698678768333	1
1	666	1486.082764281978	2
1	667	1486.836651126872	2
1	668	1488.560214122879	1
1	670	1488.654620302366	1
1	672	1492.350019974408	2
1	673	1493.856991051651	2
1	675	1494.481659191787	2
1	676	1496.089330715473	2
1	677	1496.529023087391	1
1	678	1502.087297177502	0
1	680	1502.788513431867	0
1	681	1503.697810147094	0
1	683	1521.305385869116	0
1	687	1529.778931255105	0
1	689	1530.321319216425	0
1	690	1532.642197211923	0
1	692	1541.740056958835	0
1	693	1550.460756154667	0
1	695	1553.159850998384	0
1	696	1560.206103144475	0
1	705	1568.578782640119	0
1	708	1576.092421240516	0
1	710	1578.587247343035	0
1	711	1581.889633035784	0
1	713	1589.573930396353	0
1	714	1592.75612055023	0
1	719	1617.49409152528	0
1	720	1617.594636042109	0
1	722	1622.843226805875	0
1	723	1624.044786370122	0
1	725	1636.203787737193	0
1	727	1636.223604907962	1
1	728	1636.639559408405	1
1	729	1636.767602844484	0
1	737	1649.882857743454	0
1	738	1650.048827449078	0
1	740	1652.748665399068	0
1	741	1653.054574782624	0
1	743	1653.901490038131	0
1	744	1655.371433841982	0
1	746	1656.281657010804	0
1	747	1658.944303172962	0
1	749	1663.086637639268	0
1	750	1667.664538944893	0
1	754	1676.909461828521	0
1	756	1681.302588723621	0
1	758	1697.064821415371	0
1	759	1699.103308306628	0
1	764	1713.323205912301	0
1	766	1713.507443854502	1
1	767	1713.741570913555	1
1	769	1714.315219406149	1
1	771	1716.335202817096	2
1	772	1724.781180034017	2
1	773	1724.870653735723	1
1	780	1731.237971625335	0
1	782	1734.695155229784	0
1	784	1735.890649832329	1
1	786	1738.477290119343	2
1	787	1739.141398356205	2
1	791	1742.978943441504	1
1	798	1753.219328278674	0
1	803	1757.670786796485	0
1	805	1759.030456891294	1
1	807	1759.527130891979	2
1	808	1760.914192492103	2
1	809	1762.976747305544	1
1	810	1763.704742090817	0
1	812	1773.983693338513	0
1	813	1774.072291558139	0
1	815	1780.903749549798	0
1	819	1788.094013736296	0
1	823	1790.216823658163	0
1	825	1797.21028462533	1
1	827	1799.390672298627	2
1	835	1811.225139323275	2
1	837	1813.860765463794	2
1	838	1814.110895999688	2
1	839	1815.904953482886	1
1	840	1816.182938664883	0
1	845	1823.203980516358	0
1	846	1825.042383170064	0
1	848	1827.473098799169	0
1	849	1829.790455716187	0
1	854	1841.446792750422	0
1	855	1844.721308887604	0
1	857	1868.244179735752	0
1	858	1871.585664453765	0
1	867	1887.669891032764	0
1	870	1891.225302871141	1
1	872	1893.784441518926	2
1	874	1898.962816639138	2
1	875	1899.639785874967	1
1	876	1900.698433272201	0
1	878	1901.79464966945	0
1	880	1903.376461398091	1
1	882	1903.969241316446	2
1	884	1905.924883769131	3
1	885	1913.066098898254	3
1	887	1914.971144170305	3
1	892	1921.532423523295	4
1	893	1922.364883267453	4
1	894	1925.045771579124	3
1	895	1926.46470352888	2
1	896	1928.603353747553	1
1	897	1928.986687748074	0
1	899	1931.833855161237	0
1	900	1935.040991197312	0
1	910	1961.983118157343	0
1	914	1975.499884752887	1
1	916	1976.122818012844	2
1	919	1977.164348844541	3
1	922	1979.50393054575	4
1	924	1983.731705496404	5
1	934	1999.351922660245	6
1	938	2011.039717619805	7
1	944	2026.168821835072	8
1	946	2028.179732084205	9
1	954	2033.048172808381	10
1	956	2033.073617590761	11
1	964	2050.459045601385	12
1	968	2053.572704547533	13
1	970	2053.957049572369	14
1	973	2063.883937686259	14
1	975	2065.96774147428	14
1	977	2066.468224913352	15
1	978	2068.333114712654	15
1	979	2070.187642935364	14
1	980	2071.850062903724	13
1	982	2071.897140969689	13
1	983	2072.734206203592	13
1	984	2075.786313431005	12
1	985	2077.901976052132	11
1	986	2078.783909248053	10
1	987	2080.91712797745	9
1	988	2084.461959919286	8
1	989	2084.575556038876	7
1	990	2088.736070556382	6
1	991	2091.154387288793	5
1	992	2092.663866055603	4
1	993	2093.339174301838	3
1	995	2095.309211991189	3
1	997	2099.152242455596	4
1	998	2104.853874505567	4
1	999	2104.9678409082	3
1	1000	2105.610613007882	2
1	1001	2109.711713295054	1
1	1002	2111.314273760314	0
1	1004	2111.494773923332	0
1	1006	2113.8798162556	1
1	1008	2116.269377278582	2
1	1009	2119.356164864857	2
1	1010	2119.561506553707	1
1	1012	2120.023954379216	1
1	1013	2120.710911320751	1
1	1015	2123.122902361805	1
1	1017	2127.750241830486	2
1	1018	2129.26866580508	2
1	1020	2130.078567183926	2
1	1022	2131.495155404478	3
1	1024	2132.624774988384	4
1	1025	2133.771969097794	4
1	1026	2135.080806502549	3
1	1027	2142.864387467982	2
1	1028	2142.94175573428	1
1	1030	2143.935080643314	1
1	1031	2145.663129154121	1
1	1032	2145.857375485386	0
1	1034	2150.616198935546	0
1	1035	2152.335310249916	0
1	1037	2157.745754046788	0
1	1038	2157.939179974699	0
1	1043	2176.601181932338	0
1	1044	2177.915679688834	0
1	1049	2196.080128418496	0
1	1051	2196.648671677225	1
1	1053	2196.652310126947	2
1	1054	2197.248349962893	2
1	1056	2197.452306147215	2
1	1057	2203.673988925458	2
1	1058	2204.183939178675	1
1	1059	2206.014312124822	0
1	1061	2212.554795247171	0
1	1062	2212.899749294568	0
1	1064	2220.065471877854	0
1	1065	2222.758622618377	0
1	1067	2235.781844994769	0
1	1068	2236.455828660173	0
1	1078	2247.258262670889	0
1	1080	2247.921152751817	1
1	1082	2249.361918520023	1
1	1083	2250.669226530019	0
1	1085	2262.60975715086	0
1	1086	2266.925560331073	0
1	1088	2268.231280023979	0
1	1089	2268.413701169	0
1	1095	2284.362463945471	0
1	1098	2288.616964143479	1
1	1100	2288.768008539858	2
1	1107	2307.199077728286	3
1	1112	2320.835344432854	4
1	1120	2327.454243526653	5
1	1123	2334.651959635471	6
1	1125	2337.646540715213	7
1	1127	2340.894137454818	7
1	1131	2346.707624989125	6
1	1132	2347.107028475819	5
1	1133	2351.599590371889	4
1	1134	2352.797544000403	3
1	1135	2354.662575958479	2
1	1139	2363.357960795069	1
1	1140	2366.649009826552	0
1	1144	2382.030018921152	0
1	1146	2383.273477274161	1
1	1148	2384.384844347246	1
1	1150	2384.450095936471	1
1	1151	2389.569015800088	1
1	1152	2393.552260978463	0
1	1154	2394.024967628115	0
1	1156	2397.913866535143	1
1	1157	2400.652626598113	1
1	1158	2401.748067506225	0
1	1160	2402.248345995042	0
1	1161	2402.549566231262	0
1	1163	2423.668402161838	0
1	1164	2426.162444354681	0
1	1166	2430.87271779238	0
1	1168	2431.065062749537	1
1	1169	2432.784929235236	1
1	1170	2433.53738913111	0
1	1172	2435.567579352682	0
1	1173	2436.901834725975	0
1	1178	2447.658637715971	0
1	1179	2448.616730405855	0
1	1185	2487.122538059349	0
2	151	350.810908640399	3
2	158	362.43827406384	3
2	169	372.457831806101	1
2	194	421.231036863725	1
2	198	422.258155636236	2
2	203	434.397689262197	1
2	206	439.610663971992	1
2	215	453.793526523054	1
2	218	457.822166656212	1
2	220	459.596779139852	2
2	229	490.031856445978	1
2	237	501.146565597212	1
2	242	507.998940490456	1
2	257	535.385086866618	1
2	259	536.647697750317	2
2	283	577.008063714078	1
2	296	625.155745667831	1
2	299	632.977105340681	1
2	305	682.961103942653	1
2	307	685.159062044213	2
2	311	688.41788609212	3
2	328	720.818567622802	1
2	343	742.34700746987	1
2	350	752.391989375619	1
2	353	755.897324484502	1
2	365	775.662088383508	1
2	368	790.080534832881	1
2	370	790.813576755962	2
2	375	807.051325263327	2
2	378	814.182191414584	2
2	383	819.651339178744	1
2	385	820.627860029246	2
2	401	860.996806993361	1
2	404	870.307832749627	1
2	410	874.759940419569	1
2	415	880.847424649465	1
2	419	893.070156380368	1
2	449	986.254666555407	1
2	471	1045.839946687533	1
2	480	1055.895288500736	1
2	488	1094.128034977528	1
2	494	1101.478109745127	1
2	498	1103.51526631821	2
2	500	1108.512747814944	3
2	502	1112.452693155669	4
2	508	1126.078054653729	3
2	515	1137.278937592869	1
2	517	1138.471287941422	2
2	522	1150.749150558914	2
2	525	1157.590509079489	2
2	527	1163.830009180747	3
2	536	1169.18630106408	1
2	542	1188.666672010308	1
2	571	1254.837442024195	1
2	577	1264.436041734011	2
2	587	1283.561317743566	1
2	594	1294.924141858317	1
2	611	1334.618986807489	1
2	617	1351.449230121806	1
2	619	1353.337317539997	2
2	622	1364.007868382867	2
2	626	1367.234470496	3
2	635	1407.623308105574	1
2	647	1429.953231197204	1
2	653	1445.290017857441	1
2	685	1522.546985036706	1
2	698	1564.732089783015	1
2	700	1565.20203831387	2
2	702	1567.158129871605	3
2	716	1614.815752662296	1
2	731	1641.723510214391	1
2	734	1642.919599835408	1
2	752	1672.309207478826	1
2	761	1700.493543879694	1
2	775	1725.771804747797	1
2	778	1727.107486985558	1
2	789	1741.765106934903	1
2	793	1747.672227176383	1
2	796	1750.165771003638	1
2	800	1753.882913231852	1
2	817	1785.856777205899	1
2	821	1790.198200156219	1
2	829	1801.790227424367	2
2	831	1804.043678835036	3
2	842	1816.226235181707	1
2	851	1830.93854574318	1
2	860	1884.186922687865	1
2	862	1884.312240102275	2
2	864	1884.679389480801	3
2	889	1915.950055390832	1
2	902	1947.126132806161	1
2	904	1950.112634598494	2
2	906	1951.560215154763	3
2	908	1953.826841268356	4
2	912	1975.34125048369	5
2	926	1986.569639472766	4
2	928	1989.237686142385	5
2	930	1994.180594181578	6
2	932	1996.175709749868	7
2	948	2032.315413499591	2
2	950	2032.713617515447	3
2	952	2032.831458324909	4
2	962	2050.075995185237	1
2	966	2053.286951205201	2
2	1040	2166.547424019246	1
2	1046	2190.516773128762	1
2	1070	2238.342644924639	1
2	1073	2241.536865042855	1
2	1075	2242.466596596854	2
2	1091	2283.392076793466	1
2	1093	2283.943439539722	2
2	1103	2298.37380560479	1
2	1105	2304.187980098955	2
2	1110	2315.248738444814	2
2	1114	2320.865879407701	3
2	1116	2321.248891173496	4
2	1129	2341.447019352221	1
2	1137	2355.084277993321	1
2	1142	2379.095213703034	1
2	1175	2437.703142205419	1
2	1181	2475.022752058164	1
2	1183	2483.50970015636	2
2	1188	2493.644976029564	2
3	151	350.810908640399	2
3	156	361.62949154637	2
3	158	362.43827406384	2
3	159	366.815598707679	2
3	162	369.332942378682	1
3	167	372.010238573468	0
3	169	372.457831806101	0
3	170	374.287766696261	0
3	194	421.231036863725	0
3	198	422.258155636236	1
3	199	427.352441926102	1
3	200	428.663200336102	0
3	203	434.397689262197	0
3	204	435.813811903326	0
3	206	439.610663971992	0
3	209	444.641700756293	0
3	215	453.793526523054	0
3	216	455.272046889376	0
3	218	457.822166656212	0
3	220	459.596779139852	1
3	221	461.429988515497	1
3	222	461.551510154012	0
3	229	490.031856445978	0
3	230	492.582600107714	0
3	237	501.146565597212	0
3	238	501.666295148984	0
3	242	507.998940490456	0
3	243	510.187110175501	0
3	257	535.385086866618	0
3	259	536.647697750317	1
3	260	537.171579928336	1
3	261	544.361855321718	0
3	283	577.008063714078	0
3	284	582.128218574839	0
3	296	625.155745667831	0
3	297	625.420721316139	0
3	299	632.977105340681	0
3	300	634.921679046595	0
3	305	682.961103942653	0
3	307	685.159062044213	1
3	311	688.41788609212	2
3	314	689.571648264971	2
3	315	690.597516502647	1
3	316	697.942947350032	0
3	328	720.818567622802	0
3	333	733.274814073576	0
3	343	742.34700746987	0
3	344	744.045898595849	0
3	350	752.391989375619	0
3	351	753.97185396715	0
3	353	755.897324484502	0
3	358	761.865726967414	0
3	365	775.662088383508	0
3	366	777.260001959457	0
3	368	790.080534832881	0
3	370	790.813576755962	1
3	371	793.641191572156	1
3	375	807.051325263327	1
3	376	809.081820043915	1
3	378	814.182191414584	1
3	379	817.279192734408	1
3	380	817.958947557417	0
3	383	819.651339178744	0
3	385	820.627860029246	1
3	390	832.486832420514	1
3	393	839.363898274538	0
3	401	860.996806993361	0
3	402	863.26801176013	0
3	404	870.307832749627	0
3	405	870.334091357365	0
3	410	874.759940419569	0
3	411	878.360183107773	0
3	415	880.847424649465	0
3	416	890.564661866769	0
3	419	893.070156380368	0
3	422	900.191052204508	0
3	449	986.254666555407	0
3	452	992.207584179131	0
3	471	1045.839946687533	0
3	472	1046.529990273221	0
3	480	1055.895288500736	0
3	481	1059.921559433228	0
3	488	1094.128034977528	0
3	489	1098.097970218164	0
3	494	1101.478109745127	0
3	498	1103.51526631821	1
3	500	1108.512747814944	2
3	502	1112.452693155669	3
3	503	1115.163120979739	3
3	506	1125.680524530813	2
3	508	1126.078054653729	2
3	509	1129.274116626333	2
3	510	1132.558379352905	1
3	511	1133.536094602389	0
3	515	1137.278937592869	0
3	517	1138.471287941422	1
3	520	1149.299477489775	1
3	522	1150.749150558914	1
3	523	1153.14816943605	1
3	525	1157.590509079489	1
3	527	1163.830009180747	2
3	528	1164.943857327095	2
3	529	1166.68073337875	1
3	530	1166.825588018388	0
3	536	1169.18630106408	0
3	537	1169.239594327176	0
3	542	1188.666672010308	0
3	543	1191.67829246024	0
3	571	1254.837442024195	0
3	577	1264.436041734011	1
3	578	1265.599685282561	1
3	579	1267.729385175157	0
3	587	1283.561317743566	0
3	588	1288.902858114541	0
3	594	1294.924141858317	0
3	595	1303.671562921278	0
3	611	1334.618986807489	0
3	614	1348.877663574679	0
3	617	1351.449230121806	0
3	619	1353.337317539997	1
3	620	1360.711559993299	1
3	622	1364.007868382867	1
3	626	1367.234470496	2
3	627	1367.542946224726	2
3	628	1369.704309140646	1
3	629	1371.258792712501	0
3	635	1407.623308105574	0
3	642	1420.767687808444	0
3	647	1429.953231197204	0
3	648	1432.199241651258	0
3	653	1445.290017857441	0
3	654	1447.143409247247	0
3	685	1522.546985036706	0
3	686	1526.283987060134	0
3	698	1564.732089783015	0
3	700	1565.20203831387	1
3	702	1567.158129871605	2
3	703	1568.528049153239	2
3	706	1572.486095445838	1
3	707	1574.221135727417	0
3	716	1614.815752662296	0
3	717	1616.312301922389	0
3	731	1641.723510214391	0
3	732	1642.753138124943	0
3	734	1642.919599835408	0
3	735	1643.879255795558	0
3	752	1672.309207478826	0
3	755	1679.332229070657	0
3	761	1700.493543879694	0
3	762	1702.73053135485	0
3	775	1725.771804747797	0
3	776	1727.066514847668	0
3	778	1727.107486985558	0
3	779	1727.862661243487	0
3	789	1741.765106934903	0
3	790	1742.588800499065	0
3	793	1747.672227176383	0
3	794	1750.136162515211	0
3	796	1750.165771003638	0
3	797	1750.735825381193	0
3	800	1753.882913231852	0
3	801	1757.075150929991	0
3	817	1785.856777205899	0
3	818	1786.26691505709	0
3	821	1790.198200156219	0
3	829	1801.790227424367	1
3	831	1804.043678835036	2
3	832	1807.539203166498	2
3	833	1810.381626108461	1
3	834	1811.16821467173	0
3	842	1816.226235181707	0
3	843	1818.358143283091	0
3	851	1830.93854574318	0
3	852	1834.548900331519	0
3	860	1884.186922687865	0
3	862	1884.312240102275	1
3	864	1884.679389480801	2
3	865	1886.486309318967	2
3	868	1890.236503885523	1
3	873	1898.190616920393	0
3	889	1915.950055390832	0
3	890	1917.771017570812	0
3	902	1947.126132806161	0
3	904	1950.112634598494	1
3	906	1951.560215154763	2
3	908	1953.826841268356	3
3	912	1975.34125048369	4
3	917	1976.298416635276	4
3	920	1977.168247937627	3
3	926	1986.569639472766	3
3	928	1989.237686142385	4
3	930	1994.180594181578	5
3	932	1996.175709749868	6
3	935	1999.911008320063	6
3	936	2004.454004290735	5
3	939	2013.239534856257	4
3	940	2013.787096096912	3
3	941	2015.590785022685	2
3	942	2019.787040913106	1
3	948	2032.315413499591	1
3	950	2032.713617515447	2
3	952	2032.831458324909	3
3	957	2039.888836736541	3
3	958	2042.330134080976	2
3	959	2049.087035258026	1
3	960	2049.529672697113	0
3	962	2050.075995185237	0
3	966	2053.286951205201	1
3	971	2056.994920860771	1
3	972	2061.12259328599	0
3	1040	2166.547424019246	0
3	1041	2172.396070387002	0
3	1046	2190.516773128762	0
3	1047	2195.738411957436	0
3	1070	2238.342644924639	0
3	1071	2239.960648534912	0
3	1073	2241.536865042855	0
3	1075	2242.466596596854	1
3	1076	2246.959434959447	1
3	1081	2248.071177277043	0
3	1091	2283.392076793466	0
3	1093	2283.943439539722	1
3	1096	2284.441010093763	1
3	1101	2296.160734058443	0
3	1103	2298.37380560479	0
3	1105	2304.187980098955	1
3	1108	2313.781230793606	1
3	1110	2315.248738444814	1
3	1114	2320.865879407701	2
3	1116	2321.248891173496	3
3	1117	2326.222775092948	3
3	1118	2326.526965756815	2
3	1121	2329.224379767837	1
3	1126	2339.834298043646	0
3	1129	2341.447019352221	0
3	1130	2342.344788801331	0
3	1137	2355.084277993321	0
3	1138	2362.741067375388	0
3	1142	2379.095213703034	0
3	1147	2384.168745370808	0
3	1175	2437.703142205419	0
3	1176	2439.15809600231	0
3	1181	2475.022752058164	0
3	1183	2483.50970015636	1
3	1186	2492.535468733094	1
3	1188	2493.644976029564	1
4	156	361.62949154637	12
4	159	366.815598707679	13
4	162	369.332942378682	14
4	167	372.010238573468	15
4	170	374.287766696261	16
4	199	427.352441926102	17
4	200	428.663200336102	18
4	204	435.813811903326	19
4	209	444.641700756293	20
4	216	455.272046889376	21
4	221	461.429988515497	22
4	222	461.551510154012	23
4	230	492.582600107714	24
4	238	501.666295148984	25
4	243	510.187110175501	26
4	260	537.171579928336	27
4	261	544.361855321718	28
4	284	582.128218574839	29
4	297	625.420721316139	30
4	300	634.921679046595	31
4	314	689.571648264971	32
4	315	690.597516502647	33
4	316	697.942947350032	34
4	333	733.274814073576	35
4	344	744.045898595849	36
4	351	753.97185396715	37
4	358	761.865726967414	38
4	366	777.260001959457	39
4	371	793.641191572156	40
4	376	809.081820043915	41
4	379	817.279192734408	42
4	380	817.958947557417	43
4	390	832.486832420514	44
4	393	839.363898274538	45
4	402	863.26801176013	46
4	405	870.334091357365	47
4	411	878.360183107773	48
4	416	890.564661866769	49
4	422	900.191052204508	50
4	452	992.207584179131	51
4	472	1046.529990273221	52
4	481	1059.921559433228	53
4	489	1098.097970218164	54
4	503	1115.163120979739	55
4	506	1125.680524530813	56
4	509	1129.274116626333	57
4	510	1132.558379352905	58
4	511	1133.536094602389	59
4	520	1149.299477489775	60
4	523	1153.14816943605	61
4	528	1164.943857327095	62
4	529	1166.68073337875	63
4	530	1166.825588018388	64
4	537	1169.239594327176	65
4	543	1191.67829246024	66
4	578	1265.599685282561	67
4	579	1267.729385175157	68
4	588	1288.902858114541	69
4	595	1303.671562921278	70
4	614	1348.877663574679	71
4	620	1360.711559993299	72
4	627	1367.542946224726	73
4	628	1369.704309140646	74
4	629	1371.258792712501	75
4	642	1420.767687808444	76
4	648	1432.199241651258	77
4	654	1447.143409247247	78
4	686	1526.283987060134	79
4	703	1568.528049153239	80
4	706	1572.486095445838	81
4	707	1574.221135727417	82
4	717	1616.312301922389	83
4	732	1642.753138124943	84
4	735	1643.879255795558	85
4	755	1679.332229070657	86
4	762	1702.73053135485	87
4	776	1727.066514847668	88
4	779	1727.862661243487	89
4	790	1742.588800499065	90
4	794	1750.136162515211	91
4	797	1750.735825381193	92
4	801	1757.075150929991	93
4	818	1786.26691505709	94
4	832	1807.539203166498	95
4	833	1810.381626108461	96
4	834	1811.16821467173	97
4	843	1818.358143283091	98
4	852	1834.548900331519	99
4	865	1886.486309318967	100
4	868	1890.236503885523	101
4	873	1898.190616920393	102
4	890	1917.771017570812	103
4	917	1976.298416635276	104
4	920	1977.168247937627	105
4	935	1999.911008320063	106
4	936	2004.454004290735	107
4	939	2013.239534856257	108
4	940	2013.787096096912	109
4	941	2015.590785022685	110
4	942	2019.787040913106	111
4	957	2039.888836736541	112
4	958	2042.330134080976	113
4	959	2049.087035258026	114
4	960	2049.529672697113	115
4	971	2056.994920860771	116
4	972	2061.12259328599	117
4	1041	2172.396070387002	118
4	1047	2195.738411957436	119
4	1071	2239.960648534912	120
4	1076	2246.959434959447	121
4	1081	2248.071177277043	122
4	1096	2284.441010093763	123
4	1101	2296.160734058443	124
4	1108	2313.781230793606	125
4	1117	2326.222775092948	126
4	1118	2326.526965756815	127
4	1121	2329.224379767837	128
4	1126	2339.834298043646	129
4	1130	2342.344788801331	130
4	1138	2362.741067375388	131
4	1147	2384.168745370808	132
4	1176	2439.15809600231	133
4	1186	2492.535468733094	134
5	156	361.62949154637	13.527077913637
5	159	366.815598707679	17.836959033478
5	162	369.332942378682	18.522033738283
5	167	372.010238573468	9.571964509628
5	170	374.287766696261	1.82993489016
5	199	427.352441926102	6.121405062377
5	200	428.663200336102	6.405044699866
5	204	435.813811903326	1.416122641129
5	209	444.641700756293	5.031036784301
5	216	455.272046889376	1.478520366322
5	221	461.429988515497	3.607821859285
5	222	461.551510154012	1.95473101416
5	230	492.582600107714	2.550743661736
5	238	501.666295148984	0.519729551772
5	243	510.187110175501	2.188169685045
5	260	537.171579928336	1.786493061718
5	261	544.361855321718	7.714157571401
5	284	582.128218574839	5.120154860761
5	297	625.420721316139	0.264975648308
5	300	634.921679046595	1.944573705914
5	314	689.571648264971	6.610544322318
5	315	690.597516502647	5.438454458434
5	316	697.942947350032	9.525061257912
5	333	733.274814073576	12.456246450774
5	344	744.045898595849	1.698891125979
5	351	753.97185396715	1.579864591531
5	358	761.865726967414	5.968402482912
5	366	777.260001959457	1.597913575949
5	371	793.641191572156	3.560656739275
5	376	809.081820043915	18.268243287953
5	379	817.279192734408	10.227867471081
5	380	817.958947557417	3.776756142833
5	390	832.486832420514	12.83549324177
5	393	839.363898274538	18.736038245292
5	402	863.26801176013	2.271204766769
5	405	870.334091357365	0.026258607738
5	411	878.360183107773	3.600242688204
5	416	890.564661866769	9.717237217304
5	422	900.191052204508	7.12089582414
5	452	992.207584179131	5.952917623724
5	472	1046.529990273221	0.690043585688
5	481	1059.921559433228	4.026270932492
5	489	1098.097970218164	3.969935240636
5	503	1115.163120979739	13.685011234612
5	506	1125.680524530813	22.165258212603
5	509	1129.274116626333	20.761368811389
5	510	1132.558379352905	20.105686197236
5	511	1133.536094602389	7.45803994866
5	520	1149.299477489775	12.020539896906
5	523	1153.14816943605	14.676881494628
5	528	1164.943857327095	14.194706768181
5	529	1166.68073337875	9.090224299261
5	530	1166.825588018388	2.995578837641
5	537	1169.239594327176	0.053293263096
5	543	1191.67829246024	3.011620449932
5	578	1265.599685282561	10.762243258366
5	579	1267.729385175157	3.293343441146
5	588	1288.902858114541	5.341540370975
5	595	1303.671562921278	8.747421062961
5	614	1348.877663574679	14.25867676719
5	620	1360.711559993299	9.262329871493
5	627	1367.542946224726	14.205628684729
5	628	1369.704309140646	5.696440757779
5	629	1371.258792712501	4.024322216501
5	642	1420.767687808444	13.14437970287
5	648	1432.199241651258	2.246010454054
5	654	1447.143409247247	1.853391389806
5	686	1526.283987060134	3.737002023428
5	703	1568.528049153239	3.795959370224
5	706	1572.486095445838	7.284057131968
5	707	1574.221135727417	7.063005855812
5	717	1616.312301922389	1.496549260093
5	732	1642.753138124943	1.029627910552
5	735	1643.879255795558	0.95965596015
5	755	1679.332229070657	7.023021591831
5	762	1702.73053135485	2.236987475156
5	776	1727.066514847668	1.294710099871
5	779	1727.862661243487	0.755174257929
5	790	1742.588800499065	0.823693564162
5	794	1750.136162515211	2.463935338828
5	797	1750.735825381193	0.570054377555
5	801	1757.075150929991	3.192237698139
5	818	1786.26691505709	0.410137851191
5	832	1807.539203166498	17.341003010279
5	833	1810.381626108461	8.591398684094
5	834	1811.16821467173	7.124535836694
5	843	1818.358143283091	2.131908101384
5	852	1834.548900331519	3.610354588339
5	865	1886.486309318967	2.299386631102
5	868	1890.236503885523	5.924263783248
5	873	1898.190616920393	13.511227439592
5	890	1917.771017570812	1.82096217998
5	917	1976.298416635276	29.172283829115
5	920	1977.168247937627	27.055613339133
5	935	1999.911008320063	48.3507931653
5	936	2004.454004290735	50.627163022379
5	939	2013.239534856257	37.898284372567
5	940	2013.787096096912	27.217456624146
5	941	2015.590785022685	26.3530988803
5	942	2019.787040913106	25.606446731528
5	957	2039.888836736541	43.713126986673
5	958	2042.330134080976	10.014720581385
5	959	2049.087035258026	16.373417742579
5	960	2049.529672697113	16.698214372204
5	971	2056.994920860771	6.918925675534
5	972	2061.12259328599	7.835642080789
5	1041	2172.396070387002	5.848646367756
5	1047	2195.738411957436	5.221638828674
5	1071	2239.960648534912	1.618003610273
5	1076	2246.959434959447	5.422569916592
5	1081	2248.071177277043	5.604580680189
5	1096	2284.441010093763	1.048933300297
5	1101	2296.160734058443	12.217294518721
5	1108	2313.781230793606	15.407425188816
5	1117	2326.222775092948	22.034794993993
5	1118	2326.526965756815	11.278227312001
5	1121	2329.224379767837	8.358500360136
5	1126	2339.834298043646	18.58540687015
5	1130	2342.344788801331	0.89776944911
5	1138	2362.741067375388	7.656789382067
5	1147	2384.168745370808	5.073531667774
5	1176	2439.15809600231	1.454953796891
5	1186	2492.535468733094	17.51271667493
6	156	361.62949154637	12.650851872169
6	159	366.815598707679	16.00469006728
6	162	369.332942378682	6.894668314842
6	169	372.457831806101	0
6	194	421.231036863725	0
6	199	427.352441926102	5.094286289866
6	203	434.397689262197	0
6	206	439.610663971992	0
6	215	453.793526523054	0
6	218	457.822166656212	0
6	221	461.429988515497	1.833209375645
6	229	490.031856445978	0
6	237	501.146565597212	0
6	242	507.998940490456	0
6	257	535.385086866618	0
6	260	537.171579928336	0.523882178019
6	283	577.008063714078	0
6	296	625.155745667831	0
6	299	632.977105340681	0
6	305	682.961103942653	0
6	314	689.571648264971	4.412586220758
6	315	690.597516502647	2.179630410527
6	328	720.818567622802	0
6	343	742.34700746987	0
6	350	752.391989375619	0
6	353	755.897324484502	0
6	365	775.662088383508	0
6	368	790.080534832881	0
6	371	793.641191572156	2.827614816194
6	376	809.081820043915	2.030494780588
6	379	817.279192734408	3.097001319824
6	383	819.651339178744	0
6	390	832.486832420514	11.858972391268
6	401	860.996806993361	0
6	404	870.307832749627	0
6	410	874.759940419569	0
6	415	880.847424649465	0
6	419	893.070156380368	0
6	449	986.254666555407	0
6	471	1045.839946687533	0
6	480	1055.895288500736	0
6	488	1094.128034977528	0
6	494	1101.478109745127	0
6	503	1115.163120979739	11.647854661529
6	506	1125.680524530813	17.167776715869
6	509	1129.274116626333	16.821423470664
6	510	1132.558379352905	6.480324699176
6	515	1137.278937592869	0
6	520	1149.299477489775	10.828189548353
6	523	1153.14816943605	2.399018877136
6	528	1164.943857327095	7.353348247606
6	529	1166.68073337875	2.850724198003
6	536	1169.18630106408	0
6	542	1188.666672010308	0
6	571	1254.837442024195	0
6	578	1265.599685282561	1.16364354855
6	587	1283.561317743566	0
6	594	1294.924141858317	0
6	611	1334.618986807489	0
6	617	1351.449230121806	0
6	620	1360.711559993299	7.374242453302
6	627	1367.542946224726	3.535077841859
6	628	1369.704309140646	2.469838644646
6	635	1407.623308105574	0
6	647	1429.953231197204	0
6	653	1445.290017857441	0
6	685	1522.546985036706	0
6	698	1564.732089783015	0
6	703	1568.528049153239	3.326010839369
6	706	1572.486095445838	5.327965574233
6	716	1614.815752662296	0
6	731	1641.723510214391	0
6	734	1642.919599835408	0
6	752	1672.309207478826	0
6	761	1700.493543879694	0
6	775	1725.771804747797	0
6	778	1727.107486985558	0
6	789	1741.765106934903	0
6	793	1747.672227176383	0
6	796	1750.165771003638	0
6	800	1753.882913231852	0
6	817	1785.856777205899	0
6	821	1790.198200156219	0
6	832	1807.539203166498	5.748975742131
6	833	1810.381626108461	6.337947273425
6	842	1816.226235181707	0
6	851	1830.93854574318	0
6	860	1884.186922687865	0
6	865	1886.486309318967	2.174069216692
6	868	1890.236503885523	5.557114404722
6	889	1915.950055390832	0
6	902	1947.126132806161	0
6	917	1976.298416635276	26.185782036782
6	920	1977.168247937627	25.608032782864
6	935	1999.911008320063	46.084167051707
6	936	2004.454004290735	29.112753807045
6	939	2013.239534856257	26.669895383491
6	940	2013.787096096912	24.549409954527
6	941	2015.590785022685	21.410190841107
6	942	2019.787040913106	23.611331163238
6	957	2039.888836736541	7.57342323695
6	958	2042.330134080976	9.616516565529
6	959	2049.087035258026	16.255576933117
6	962	2050.075995185237	0
6	971	2056.994920860771	3.70796965557
6	1040	2166.547424019246	0
6	1046	2190.516773128762	0
6	1070	2238.342644924639	0
6	1073	2241.536865042855	0
6	1076	2246.959434959447	4.492838362593
6	1091	2283.392076793466	0
6	1096	2284.441010093763	0.497570554041
6	1103	2298.37380560479	0
6	1108	2313.781230793606	9.593250694651
6	1117	2326.222775092948	10.974036648134
6	1118	2326.526965756815	5.661086349114
6	1121	2329.224379767837	7.975488594341
6	1129	2341.447019352221	0
6	1137	2355.084277993321	0
6	1142	2379.095213703034	0
6	1175	2437.703142205419	0
6	1181	2475.022752058164	0
6	1186	2492.535468733094	9.025768576734
7	167	372.010238573468	22.125037173501
7	170	374.287766696261	23.98407238753
7	171	374.300650021648	21.591199405467
7	172	375.155775130388	16.018035551162
7	173	377.70296236916	8.436324942053
7	174	379.484805317614	10.109392500423
7	175	381.509711056733	10.635991711291
7	176	381.807967800211	9.35013599411
7	179	387.024720403828	0
7	182	393.421097502812	0.258485628267
7	185	394.679426205505	0
7	188	415.383307801732	0
7	191	418.87213829018	0
7	200	428.663200336102	6.800931068886
7	209	444.641700756293	3.511629223668
7	212	452.061875109923	0
7	224	468.155898046976	0
7	227	488.009898807156	0
7	230	492.582600107714	2.550743661736
7	235	495.896861115152	2.99649687813
7	238	501.666295148984	7.15428466585
7	239	501.859958179707	0.713392582495
7	245	512.775260977005	0
7	248	521.052336852026	0
7	253	527.467071435969	1.923817305168
7	254	530.764044803801	3.487308126213
7	263	551.162666912064	0
7	266	553.060902280298	0
7	269	556.124501929174	0.468078516238
7	272	560.003276316226	3.248447985343
7	275	563.370178863217	0
7	278	565.638401836711	0
7	281	576.375778673491	0
7	284	582.128218574839	5.120154860761
7	289	591.618241440476	9.169293942985
7	290	592.923769187974	8.04054454368
7	293	600.709963063835	0
7	302	640.85141684619	0
7	316	697.942947350032	10.181329115822
7	317	698.662253941053	9.934322612085
7	320	706.475953225875	1.399582503636
7	323	715.9480092005	0
7	326	720.686766845378	0
7	333	733.274814073576	12.456246450774
7	334	735.30419674546	11.505105176956
7	339	740.345602710717	9.295231016702
7	340	741.071317028645	2.856126293815
7	341	742.287335122011	3.465097097509
7	344	744.045898595849	1.698891125979
7	347	744.325717127439	0.257429890654
7	358	761.865726967414	5.380842345055
7	361	765.108115512552	3.634730290227
7	362	767.210801160934	4.98470688502
7	380	817.958947557417	18.234371232233
7	393	839.363898274538	18.216651261475
7	394	843.732115727789	19.930693222523
7	395	844.097645221826	7.347840675641
7	398	853.078903192315	0
7	407	870.998470699558	0
7	413	880.830733923947	0
7	416	890.564661866769	9.717237217304
7	422	900.191052204508	6.973617009872
7	425	906.668866996905	0
7	428	918.623290573403	0
7	431	922.007898456972	2.759548977073
7	434	945.855647726051	0
7	437	946.688111488124	0
7	440	968.031123308084	0
7	445	972.873706262456	2.721299543112
7	446	973.649704388003	2.499403955526
7	452	992.207584179131	3.814150181556
7	455	995.018549028622	0.527925345804
7	458	1027.125225611619	0
7	461	1033.912215976126	0
7	464	1043.308456436593	0
7	467	1044.462267627308	0
7	472	1046.529990273221	0.897142093137
7	477	1049.701859990781	3.861913303248
7	478	1055.791214152495	8.489145029246
7	481	1059.921559433228	12.083699945875
7	482	1061.117613609028	5.222325108292
7	485	1089.368639708313	0
7	491	1100.071111898213	0
7	511	1133.536094602389	30.296480458316
7	512	1134.259691151508	12.276368443951
7	530	1166.825588018388	22.09724519135
7	537	1169.239594327176	2.102301659329
7	538	1169.311505759257	0.380139274927
7	539	1172.150697994363	2.964396930283
7	545	1208.632144335726	0
7	548	1214.939955178806	4.888046563688
7	551	1219.258910902078	0
7	554	1223.076690675915	0
7	557	1234.450591372613	0
7	560	1238.123943579705	0
7	563	1242.928870294732	0
7	566	1248.411639262905	0
7	569	1251.379423845751	0
7	579	1267.729385175157	12.891943150962
7	580	1269.5753597591	14.176277728065
7	581	1270.549056014436	7.176469196712
7	584	1273.276051053439	1.508422542313
7	590	1293.504490813738	0
7	595	1303.671562921278	9.16572282372
7	596	1306.890061006058	11.965919147741
7	599	1310.016883361914	0
7	602	1326.010644670228	0
7	605	1327.589987124982	1.459821834936
7	608	1330.967456257961	1.708572539638
7	614	1348.877663574679	8.881325620014
7	629	1371.258792712501	7.024537493526
7	632	1385.251721740677	0
7	642	1420.767687808444	12.314178073797
7	643	1421.1453026821	10.603950920935
7	644	1428.680295438493	17.979094919071
7	650	1437.916239710075	0
7	656	1457.135986058949	0
7	659	1463.863081362695	0
7	662	1475.121051293377	0
7	667	1486.836651126872	1.137972358539
7	668	1488.560214122879	2.477449840901
7	673	1493.856991051651	5.202370749285
7	676	1496.089330715473	3.739310741065
7	677	1496.529023087391	2.047363895604
7	680	1502.788513431867	0
7	683	1521.305385869116	0
7	686	1526.283987060134	3.737002023428
7	689	1530.321319216425	0
7	692	1541.740056958835	0
7	695	1553.159850998384	0
7	707	1574.221135727417	5.642353087298
7	710	1578.587247343035	0
7	713	1589.573930396353	0
7	719	1617.49409152528	0
7	722	1622.843226805875	0
7	725	1636.203787737193	0
7	728	1636.639559408405	0.415954500443
7	737	1649.882857743454	0
7	740	1652.748665399068	0
7	743	1653.901490038131	0
7	746	1656.281657010804	0
7	749	1663.086637639268	0
7	755	1679.332229070657	2.422767242136
7	758	1697.064821415371	0
7	764	1713.323205912301	0
7	767	1713.741570913555	0.234127059053
7	772	1724.781180034017	10.465960627868
7	773	1724.870653735723	8.535450918627
7	776	1727.066514847668	1.294710099871
7	779	1727.862661243487	0.755174257929
7	782	1734.695155229784	0
7	787	1739.141398356205	3.250748523876
7	790	1742.588800499065	4.111510379722
7	791	1742.978943441504	1.213836506601
7	794	1750.136162515211	2.463935338828
7	797	1750.735825381193	0.570054377555
7	803	1757.670786796485	0
7	808	1760.914192492103	1.883735600809
7	809	1762.976747305544	3.449616413565
7	812	1773.983693338513	0
7	815	1780.903749549798	0
7	818	1786.26691505709	0.410137851191
7	834	1811.16821467173	20.951391013567
7	835	1811.225139323275	14.014854697945
7	838	1814.110895999688	14.720223701061
7	839	1815.904953482886	2.044188019092
7	845	1823.203980516358	0
7	848	1827.473098799169	0
7	854	1841.446792750422	0
7	857	1868.244179735752	0
7	873	1898.190616920393	10.520725887629
7	874	1898.962816639138	7.737513767997
7	875	1899.639785874967	5.855344356041
7	878	1901.79464966945	0
7	885	1913.066098898254	9.689637500163
7	890	1917.771017570812	13.801776254366
7	893	1922.364883267453	16.439999498322
7	894	1925.045771579124	10.074627408819
7	895	1926.46470352888	10.514648138048
7	896	1928.603353747553	7.070930224258
7	899	1931.833855161237	0
7	960	2049.529672697113	87.54655453977
7	972	2061.12259328599	85.622708533103
7	973	2063.883937686259	87.761119673415
7	978	2068.333114712654	91.168765868113
7	979	2070.187642935364	90.683712389614
7	980	2071.850062903724	88.11835740732
7	983	2072.734206203592	73.382283543347
7	984	2075.786313431005	64.7465958112
7	985	2077.901976052132	51.73315421706
7	986	2078.783909248053	50.604177163848
7	987	2080.91712797745	47.868955169069
7	988	2084.461959919286	51.388342328525
7	989	2084.575556038876	34.499560853639
7	990	2088.736070556382	38.277024954997
7	991	2091.154387288793	37.58168274126
7	992	2092.663866055603	38.706816483234
7	993	2093.339174301838	27.371432827558
7	998	2104.853874505567	38.385649592215
7	999	2104.9678409082	33.070699938511
7	1000	2105.610613007882	10.301401016693
7	1001	2109.711713295054	10.559470839458
7	1004	2111.494773923332	0
7	1009	2119.356164864857	5.476348609257
7	1010	2119.561506553707	3.292129275125
7	1013	2120.710911320751	0.686956941535
7	1018	2129.26866580508	6.145763443275
7	1025	2133.771969097794	6.021727267308
7	1026	2135.080806502549	5.002239318623
7	1027	2142.864387467982	11.369232063504
7	1028	2142.94175573428	10.316980745896
7	1031	2145.663129154121	1.728048510807
7	1034	2150.616198935546	0
7	1037	2157.745754046788	0
7	1043	2176.601181932338	0
7	1049	2196.080128418496	0
7	1054	2197.248349962893	0.599678285668
7	1057	2203.673988925458	7.021678798511
7	1058	2204.183939178675	6.73163303146
7	1061	2212.554795247171	0
7	1064	2220.065471877854	0
7	1067	2235.781844994769	0
7	1081	2248.071177277043	0.812914606154
7	1082	2249.361918520023	1.440765768206
7	1085	2262.60975715086	0
7	1088	2268.231280023979	0
7	1101	2296.160734058443	11.798270112972
7	1126	2339.834298043646	51.217333900167
7	1127	2340.894137454818	52.12612891496
7	1130	2342.344788801331	43.970983196541
7	1131	2346.707624989125	39.508547260839
7	1132	2347.107028475819	26.271684042965
7	1133	2351.599590371889	24.145346845236
7	1134	2352.797544000403	18.145584364932
7	1135	2354.662575958479	17.016035243266
7	1138	2362.741067375388	21.294048023167
7	1139	2363.357960795069	8.273682801748
7	1147	2384.168745370808	2.138726449656
7	1148	2384.384844347246	1.111367073085
7	1151	2389.569015800088	5.118919863617
7	1154	2394.024967628115	0
7	1157	2400.652626598113	2.73876006297
7	1160	2402.248345995042	0
7	1163	2423.668402161838	0
7	1166	2430.87271779238	0
7	1169	2432.784929235236	1.719866485699
7	1172	2435.567579352682	0
7	1178	2447.658637715971	0
8	169	372.457831806101	4
8	229	490.031856445978	5
8	237	501.146565597212	6
8	283	577.008063714078	7
8	328	720.818567622802	8
8	343	742.34700746987	9
8	415	880.847424649465	10
8	471	1045.839946687533	11
8	480	1055.895288500736	12
8	536	1169.18630106408	13
8	571	1254.837442024195	14
8	594	1294.924141858317	15
8	685	1522.546985036706	16
8	775	1725.771804747797	17
8	778	1727.107486985558	18
8	789	1741.765106934903	19
8	793	1747.672227176383	20
8	796	1750.165771003638	21
8	817	1785.856777205899	22
8	889	1915.950055390832	23
8	962	2050.075995185237	24
8	1103	2298.37380560479	25
8	1129	2341.447019352221	26
8	1137	2355.084277993321	27
9	171	374.300650021648	37
9	172	375.155775130388	38
9	173	377.70296236916	39
9	174	379.484805317614	40
9	175	381.509711056733	41
9	176	381.807967800211	42
9	177	383.121902362229	43
9	182	393.421097502812	44
9	183	394.064641873267	45
9	186	395.188514602379	46
9	189	417.011173578309	47
9	192	419.029105687038	48
9	201	429.358381840034	49
9	210	445.382648801376	50
9	213	453.289361194207	51
9	225	468.19864634754	52
9	235	495.896861115152	53
9	239	501.859958179707	54
9	240	507.198213840734	55
9	246	517.171830748225	56
9	253	527.467071435969	57
9	254	530.764044803801	58
9	255	531.400940243615	59
9	264	551.60872317512	60
9	269	556.124501929174	61
9	272	560.003276316226	62
9	273	560.29619973064	63
9	276	564.660983481965	64
9	279	567.935412306376	65
9	289	591.618241440476	66
9	290	592.923769187974	67
9	291	593.575766771774	68
9	294	605.242361279027	69
9	303	642.906592601465	70
9	317	698.662253941053	71
9	320	706.475953225875	72
9	321	708.005968177263	73
9	324	716.611608666598	74
9	334	735.30419674546	75
9	339	740.345602710717	76
9	340	741.071317028645	77
9	341	742.287335122011	78
9	347	744.325717127439	79
9	348	748.42832800932	80
9	361	765.108115512552	81
9	362	767.210801160934	82
9	363	768.138728278463	83
9	381	819.258787257964	84
9	394	843.732115727789	85
9	395	844.097645221826	86
9	396	845.599824369356	87
9	399	853.129797457702	88
9	408	871.24564403339	89
9	417	891.060902928915	90
9	423	905.646471318923	91
9	426	911.044064642379	92
9	431	922.007898456972	93
9	432	925.903504785435	94
9	435	946.180726591808	95
9	438	956.314132068293	96
9	445	972.873706262456	97
9	446	973.649704388003	98
9	447	973.822914180587	99
9	455	995.018549028622	100
9	456	995.526754243487	101
9	459	1029.434054421582	102
9	462	1034.384575027314	103
9	465	1043.452159341557	104
9	477	1049.701859990781	105
9	478	1055.791214152495	106
9	482	1061.117613609028	107
9	483	1063.857691831705	108
9	486	1090.104757833886	109
9	492	1100.667889720153	110
9	512	1134.259691151508	111
9	513	1135.825142058864	112
9	538	1169.311505759257	113
9	539	1172.150697994363	114
9	540	1181.955552418184	115
9	548	1214.939955178806	116
9	549	1216.22691917418	117
9	552	1221.227417431981	118
9	555	1223.242500407745	119
9	558	1238.072212891524	120
9	561	1239.590845108931	121
9	564	1246.119360481092	122
9	567	1248.99175829131	123
9	580	1269.5753597591	124
9	581	1270.549056014436	125
9	584	1273.276051053439	126
9	585	1275.896937280273	127
9	596	1306.890061006058	128
9	597	1308.483776740668	129
9	600	1311.566830322608	130
9	605	1327.589987124982	131
9	608	1330.967456257961	132
9	609	1331.487310874198	133
9	615	1349.070199358006	134
9	630	1372.137611230923	135
9	633	1390.910405462811	136
9	643	1421.1453026821	137
9	644	1428.680295438493	138
9	645	1428.92921006745	139
9	651	1438.476752548629	140
9	657	1458.828005336618	141
9	660	1466.494397869851	142
9	667	1486.836651126872	143
9	668	1488.560214122879	144
9	673	1493.856991051651	145
9	676	1496.089330715473	146
9	677	1496.529023087391	147
9	678	1502.087297177502	148
9	681	1503.697810147094	149
9	687	1529.778931255105	150
9	690	1532.642197211923	151
9	693	1550.460756154667	152
9	696	1560.206103144475	153
9	708	1576.092421240516	154
9	711	1581.889633035784	155
9	714	1592.75612055023	156
9	720	1617.594636042109	157
9	723	1624.044786370122	158
9	728	1636.639559408405	159
9	729	1636.767602844484	160
9	738	1650.048827449078	161
9	741	1653.054574782624	162
9	744	1655.371433841982	163
9	747	1658.944303172962	164
9	750	1667.664538944893	165
9	756	1681.302588723621	166
9	759	1699.103308306628	167
9	767	1713.741570913555	168
9	772	1724.781180034017	169
9	773	1724.870653735723	170
9	780	1731.237971625335	171
9	787	1739.141398356205	172
9	791	1742.978943441504	173
9	798	1753.219328278674	174
9	808	1760.914192492103	175
9	809	1762.976747305544	176
9	810	1763.704742090817	177
9	813	1774.072291558139	178
9	819	1788.094013736296	179
9	835	1811.225139323275	180
9	838	1814.110895999688	181
9	839	1815.904953482886	182
9	840	1816.182938664883	183
9	846	1825.042383170064	184
9	849	1829.790455716187	185
9	855	1844.721308887604	186
9	858	1871.585664453765	187
9	874	1898.962816639138	188
9	875	1899.639785874967	189
9	876	1900.698433272201	190
9	885	1913.066098898254	191
9	893	1922.364883267453	192
9	894	1925.045771579124	193
9	895	1926.46470352888	194
9	896	1928.603353747553	195
9	897	1928.986687748074	196
9	900	1935.040991197312	197
9	973	2063.883937686259	198
9	978	2068.333114712654	199
9	979	2070.187642935364	200
9	980	2071.850062903724	201
9	983	2072.734206203592	202
9	984	2075.786313431005	203
9	985	2077.901976052132	204
9	986	2078.783909248053	205
9	987	2080.91712797745	206
9	988	2084.461959919286	207
9	989	2084.575556038876	208
9	990	2088.736070556382	209
9	991	2091.154387288793	210
9	992	2092.663866055603	211
9	993	2093.339174301838	212
9	998	2104.853874505567	213
9	999	2104.9678409082	214
9	1000	2105.610613007882	215
9	1001	2109.711713295054	216
9	1002	2111.314273760314	217
9	1009	2119.356164864857	218
9	1010	2119.561506553707	219
9	1013	2120.710911320751	220
9	1018	2129.26866580508	221
9	1025	2133.771969097794	222
9	1026	2135.080806502549	223
9	1027	2142.864387467982	224
9	1028	2142.94175573428	225
9	1031	2145.663129154121	226
9	1032	2145.857375485386	227
9	1035	2152.335310249916	228
9	1038	2157.939179974699	229
9	1044	2177.915679688834	230
9	1054	2197.248349962893	231
9	1057	2203.673988925458	232
9	1058	2204.183939178675	233
9	1059	2206.014312124822	234
9	1062	2212.899749294568	235
9	1065	2222.758622618377	236
9	1068	2236.455828660173	237
9	1082	2249.361918520023	238
9	1083	2250.669226530019	239
9	1086	2266.925560331073	240
9	1089	2268.413701169	241
9	1127	2340.894137454818	242
9	1131	2346.707624989125	243
9	1132	2347.107028475819	244
9	1133	2351.599590371889	245
9	1134	2352.797544000403	246
9	1135	2354.662575958479	247
9	1139	2363.357960795069	248
9	1140	2366.649009826552	249
9	1148	2384.384844347246	250
9	1151	2389.569015800088	251
9	1152	2393.552260978463	252
9	1157	2400.652626598113	253
9	1158	2401.748067506225	254
9	1161	2402.549566231262	255
9	1164	2426.162444354681	256
9	1169	2432.784929235236	257
9	1170	2433.53738913111	258
9	1173	2436.901834725975	259
9	1179	2448.616730405855	260
10	171	374.300650021648	23.996955712917
10	172	375.155775130388	22.446324514207
10	173	377.70296236916	18.565222789934
10	174	379.484805317614	10.218167890507
10	175	381.509711056733	12.134298239542
10	176	381.807967800211	10.934248454769
10	177	383.121902362229	10.664070556128
10	182	393.421097502812	6.396377098984
10	183	394.064641873267	0.902029998722
10	186	395.188514602379	0.509088396874
10	189	417.011173578309	1.627865776577
10	192	419.029105687038	0.156967396858
10	201	429.358381840034	7.496112572818
10	210	445.382648801376	4.252577268751
10	213	453.289361194207	1.227486084284
10	225	468.19864634754	0.042748300564
10	235	495.896861115152	5.865004669174
10	239	501.859958179707	7.347947696573
10	240	507.198213840734	6.051648243522
10	246	517.171830748225	4.39656977122
10	253	527.467071435969	6.414734583943
10	254	530.764044803801	5.220790673
10	255	531.400940243615	4.124203566027
10	264	551.60872317512	0.446056263056
10	269	556.124501929174	3.063599648876
10	272	560.003276316226	4.34685290329
10	273	560.29619973064	3.541371399757
10	276	564.660983481965	1.290804618748
10	279	567.935412306376	2.297010469665
10	289	591.618241440476	14.610177726398
10	290	592.923769187974	10.474821690483
10	291	593.575766771774	8.69254212748
10	294	605.242361279027	4.532398215192
10	303	642.906592601465	2.055175755275
10	317	698.662253941053	10.900635706843
10	320	706.475953225875	17.748021896907
10	321	708.005968177263	2.929597455024
10	324	716.611608666598	0.663599466098
10	334	735.30419674546	14.485629122658
10	339	740.345602710717	16.546511142213
10	340	741.071317028645	10.02094533463
10	341	742.287335122011	4.072144387181
10	347	744.325717127439	1.978709657569
10	348	748.42832800932	4.360040772535
10	361	765.108115512552	8.623230890193
10	362	767.210801160934	5.737415938609
10	363	768.138728278463	5.912634002549
10	381	819.258787257964	19.53421093278
10	394	843.732115727789	22.584868714726
10	395	844.097645221826	20.29622271656
10	396	845.599824369356	8.850019823171
10	399	853.129797457702	0.050894265387
10	408	871.24564403339	0.247173333832
10	417	891.060902928915	10.21347827945
10	423	905.646471318923	12.429036124287
10	426	911.044064642379	4.375197645474
10	431	922.007898456972	3.384607883569
10	432	925.903504785435	6.655155305536
10	435	946.180726591808	0.325078865757
10	438	956.314132068293	9.626020580169
10	445	972.873706262456	4.842582954372
10	446	973.649704388003	3.497297668659
10	447	973.822914180587	2.67261374811
10	455	995.018549028622	6.625115031047
10	456	995.526754243487	1.036130560669
10	459	1029.434054421582	2.308828809963
10	462	1034.384575027314	0.472359051188
10	465	1043.452159341557	0.143702904964
10	477	1049.701859990781	4.069011810697
10	478	1055.791214152495	9.951267464962
10	482	1061.117613609028	13.279754121675
10	483	1063.857691831705	7.962403330969
10	486	1090.104757833886	0.736118125573
10	492	1100.667889720153	0.59677782194
10	512	1134.259691151508	31.020077007435
10	513	1135.825142058864	13.841819351307
10	538	1169.311505759257	2.17421309141
10	539	1172.150697994363	3.219331510033
10	540	1181.955552418184	12.769251354104
10	548	1214.939955178806	6.30781084308
10	549	1216.22691917418	6.175010559062
10	552	1221.227417431981	1.968506529903
10	555	1223.242500407745	0.16580973183
10	558	1238.072212891524	3.621621518911
10	561	1239.590845108931	1.466901529226
10	564	1246.119360481092	3.19049018636
10	567	1248.99175829131	0.580119028405
10	580	1269.5753597591	14.737917734905
10	581	1270.549056014436	15.149973983401
10	584	1273.276051053439	9.903464235715
10	585	1275.896937280273	4.129308769147
10	596	1306.890061006058	12.3842209085
10	597	1308.483776740668	13.559634882351
10	600	1311.566830322608	1.549946960694
10	605	1327.589987124982	1.579342454754
10	608	1330.967456257961	4.837290967915
10	609	1331.487310874198	2.228427155875
10	615	1349.070199358006	9.073861403341
10	630	1372.137611230923	7.903356011948
10	633	1390.910405462811	5.658683722134
10	643	1421.1453026821	12.691792947453
10	644	1428.680295438493	18.138943677328
10	645	1428.92921006745	18.228009548028
10	651	1438.476752548629	0.560512838554
10	657	1458.828005336618	1.692019277669
10	660	1466.494397869851	2.631316507156
10	667	1486.836651126872	11.715599833495
10	668	1488.560214122879	2.861535354546
10	673	1493.856991051651	7.774226769673
10	676	1496.089330715473	7.434710413107
10	677	1496.529023087391	4.179003112983
10	678	1502.087297177502	7.605637985715
10	681	1503.697810147094	0.909296715227
10	687	1529.778931255105	7.231946218399
10	690	1532.642197211923	2.320877995498
10	693	1550.460756154667	8.720699195832
10	696	1560.206103144475	7.046252146091
10	708	1576.092421240516	7.513638600397
10	711	1581.889633035784	3.302385692749
10	714	1592.75612055023	3.182190153877
10	720	1617.594636042109	0.100544516829
10	723	1624.044786370122	1.201559564247
10	728	1636.639559408405	0.435771671212
10	729	1636.767602844484	0.543997936522
10	738	1650.048827449078	0.165969705624
10	741	1653.054574782624	0.305909383556
10	744	1655.371433841982	1.469943803851
10	747	1658.944303172962	2.662646162158
10	750	1667.664538944893	4.577901305625
10	756	1681.302588723621	4.3931268951
10	759	1699.103308306628	2.038486891257
10	767	1713.741570913555	0.418365001254
10	772	1724.781180034017	11.273736179515
10	773	1724.870653735723	10.555434329574
10	780	1731.237971625335	4.130484639777
10	787	1739.141398356205	4.446243126421
10	791	1742.978943441504	4.501653322161
10	798	1753.219328278674	3.053557275036
10	808	1760.914192492103	3.243405695618
10	809	1762.976747305544	3.94629041425
10	810	1763.704742090817	4.177611198838
10	813	1774.072291558139	0.088598219626
10	819	1788.094013736296	2.237236530397
10	835	1811.225139323275	21.008315665112
10	838	1814.110895999688	16.900611374358
10	839	1815.904953482886	16.514281184259
10	840	1816.182938664883	2.322173201089
10	846	1825.042383170064	1.838402653706
10	849	1829.790455716187	2.317356917018
10	855	1844.721308887604	3.274516137182
10	858	1871.585664453765	3.341484718013
10	874	1898.962816639138	11.292925606374
10	875	1899.639785874967	8.414483003826
10	876	1900.698433272201	6.913991753275
10	885	1913.066098898254	11.271449228804
10	893	1922.364883267453	18.395641951007
10	894	1925.045771579124	19.120887809993
10	895	1926.46470352888	11.493559358575
10	896	1928.603353747553	12.653298356721
10	897	1928.986687748074	7.454264224779
10	900	1935.040991197312	3.207136036075
10	973	2063.883937686259	88.384052933372
10	978	2068.333114712654	92.21029669981
10	979	2070.187642935364	93.023294090823
10	980	2071.850062903724	92.346132357974
10	983	2072.734206203592	89.002500707188
10	984	2075.786313431005	76.43439077076
10	985	2077.901976052132	66.862258432327
10	986	2078.783909248053	52.615087412981
10	987	2080.91712797745	52.737395893245
10	988	2084.461959919286	51.413787110905
10	989	2084.575556038876	51.501938448115
10	990	2088.736070556382	38.660075371145
10	991	2091.154387288793	40.695341687408
10	992	2092.663866055603	39.09116150807
10	993	2093.339174301838	39.382124729469
10	998	2104.853874505567	38.886133031287
10	999	2104.9678409082	38.499615994848
10	1000	2105.610613007882	33.713472038193
10	1001	2109.711713295054	14.402501303865
10	1002	2111.314273760314	12.162031304718
10	1009	2119.356164864857	7.861390941525
10	1010	2119.561506553707	5.681690298107
10	1013	2120.710911320751	4.441534042169
10	1018	2129.26866580508	9.244711425864
10	1025	2133.771969097794	10.649066735989
10	1026	2135.080806502549	7.330564672063
10	1027	2142.864387467982	12.785820284056
10	1028	2142.94175573428	11.446600329802
10	1031	2145.663129154121	13.038354165737
10	1032	2145.857375485386	1.922294842072
10	1035	2152.335310249916	1.71911131437
10	1038	2157.939179974699	0.193425927911
10	1044	2177.915679688834	1.314497756496
10	1054	2197.248349962893	1.168221544397
10	1057	2203.673988925458	7.025317248233
10	1058	2204.183939178675	7.531629051728
10	1059	2206.014312124822	8.562005977607
10	1062	2212.899749294568	0.344954047397
10	1065	2222.758622618377	2.693150740523
10	1068	2236.455828660173	0.673983665404
10	1082	2249.361918520023	2.103655849134
10	1083	2250.669226530019	2.748073778202
10	1086	2266.925560331073	4.315803180213
10	1089	2268.413701169	0.182421145021
10	1127	2340.894137454818	52.277173311339
10	1131	2346.707624989125	48.333819384335
10	1132	2347.107028475819	39.907950747533
10	1133	2351.599590371889	30.764245939035
10	1134	2352.797544000403	25.34330047375
10	1135	2354.662575958479	20.010616323008
10	1139	2363.357960795069	21.910941442848
10	1140	2366.649009826552	11.564731833231
10	1148	2384.384844347246	2.354825426094
10	1151	2389.569015800088	6.295538525927
10	1152	2393.552260978463	9.102165041992
10	1157	2400.652626598113	6.627658969998
10	1158	2401.748067506225	3.834200971082
10	1161	2402.549566231262	0.30122023622
10	1164	2426.162444354681	2.494042192843
10	1169	2432.784929235236	1.912211442856
10	1170	2433.53738913111	2.472326381573
10	1173	2436.901834725975	1.334255373293
10	1179	2448.616730405855	0.958092689884
11	1189	2500	0.104
12	1189	2500	0.0536

