file 57041 1678273423                                           
version 2
run experiments_easy_game_mode1-524-20230308-12:03:43-21029
attr configname experiments_easy_game_mode1
attr datetime 20230308-12:03:43
attr experiment experiments_easy_game_mode1
attr inifile omnetpp.ini
attr iterationvars "$0=5.5, $1=2, $2=100"
attr iterationvarsf 5.5,2,100-
attr measurement "$0=5.5, $1=2, $2=100"
attr network Network
attr processid 21029
attr repetition 14
attr replication #14
attr resultdir results
attr runnumber 524
attr seedset 14
param *.boss.arrival_mean 20
param *.boss.service_mean 5.5
param *.minion.arrival_mean 10
param *.minion.service_mean 2
param *.player.recover_rate_x 100
param **.minion.arrival_distribution 0
param **.minion.service_distribution 0
param **.boss.arrival_distribution 0
param **.boss.service_distribution 0

vector 0 Network.player boss_defeated_stat:vector ETV
attr source signal_boss_defeated
vector 1 Network.player boss_jobs_queue_number_stat:vector ETV
attr source signal_boss_jobs_queue_number
vector 2 Network.player boss_response_time_stat:vector ETV
attr source signal_boss_response_time
vector 3 Network.player minion_jobs_number_stat:vector ETV
attr source signal_minion_jobs_number
vector 4 Network.player minion_jobs_queue_number_stat:vector ETV
attr source signal_minion_jobs_queue_number
vector 5 Network.player minion_waiting_time_stat:vector ETV
attr source signal_minion_waiting_time
vector 6 Network.player minion_defeated_stat:vector ETV
attr source signal_minion_defeated
vector 7 Network.player minion_response_time_stat:vector ETV
attr source signal_minion_response_time
vector 8 Network.player boss_jobs_number_stat:vector ETV
attr source signal_boss_jobs_number
vector 9 Network.player boss_waiting_time_stat:vector ETV
attr source signal_boss_waiting_time
vector 10 Network.player minion_recovered_stat:vector ETV
attr source signal_minion_recovered
vector 11 Network.player minion_throughput:vector ETV
attr source signal_minion_throughput
vector 12 Network.player boss_throughput:vector ETV
attr source signal_boss_throughput
0	2021 2688 150 1052 353.166053364655 2467.082580146683 100 15 114 6450 499350
1	4709 5113 150 1052 353.166053364655 2467.082580146683 199 0 2 38 42
2	9822 3880 150 1052 353.166053364655 2467.082580146683 100 0.199770604217 20.018313316385 621.91928500445 6106.1038018669
3	13702 5294 152 1063 355.033945535691 2493.000563500548 206 1 7 340 798
4	18996 10587 152 1065 355.033945535691 2495.794320975163 412 0 6 268 648
5	29583 7699 152 1064 355.033945535691 2494.441889545636 234 0 30.095821905943 893.75947803776 11385.328550098
6	37282 5641 153 1065 356.65988413439 2495.794320975163 206 36 241 28531 4680011
7	42923 7994 153 1065 356.65988413439 2495.794320975163 206 0.007528804826 31.578819565592 1209.6309458843 15384.127844685
8	50917 2540 155 1051 357.206506079018 2464.141668652333 99 1 3 118 158
9	53457 2774 155 1051 357.206506079018 2464.141668652333 99 0 14.18072441561 80.594497150232 677.96173326771
10	56231 769 202 1051 465.277290456284 2464.141668652333 28 3 30 462 9450
11	57000 20 1066 1066 2500 2500 1 0.0964 0.0964 0.0964 0.00929296
12	57020 20 1066 1066 2500 2500 1 0.0456 0.0456 0.0456 0.00207936

