file 58742 1678273450                                           
version 2
run experiments_easy_game_mode1-651-20230308-12:04:10-21672
attr configname experiments_easy_game_mode1
attr datetime 20230308-12:04:10
attr experiment experiments_easy_game_mode1
attr inifile omnetpp.ini
attr iterationvars "$0=5.5, $1=3, $2=100"
attr iterationvarsf 5.5,3,100-
attr measurement "$0=5.5, $1=3, $2=100"
attr network Network
attr processid 21672
attr repetition 21
attr replication #21
attr resultdir results
attr runnumber 651
attr seedset 21
param *.boss.arrival_mean 20
param *.boss.service_mean 5.5
param *.minion.arrival_mean 10
param *.minion.service_mean 3
param *.player.recover_rate_x 100
param **.minion.arrival_distribution 0
param **.minion.service_distribution 0
param **.boss.arrival_distribution 0
param **.boss.service_distribution 0

vector 0 Network.player minion_jobs_number_stat:vector ETV
attr source signal_minion_jobs_number
vector 1 Network.player minion_jobs_queue_number_stat:vector ETV
attr source signal_minion_jobs_queue_number
vector 2 Network.player minion_waiting_time_stat:vector ETV
attr source signal_minion_waiting_time
vector 3 Network.player minion_defeated_stat:vector ETV
attr source signal_minion_defeated
vector 4 Network.player minion_response_time_stat:vector ETV
attr source signal_minion_response_time
vector 5 Network.player boss_jobs_number_stat:vector ETV
attr source signal_boss_jobs_number
vector 6 Network.player boss_jobs_queue_number_stat:vector ETV
attr source signal_boss_jobs_queue_number
vector 7 Network.player boss_waiting_time_stat:vector ETV
attr source signal_boss_waiting_time
vector 8 Network.player boss_defeated_stat:vector ETV
attr source signal_boss_defeated
vector 9 Network.player boss_response_time_stat:vector ETV
attr source signal_boss_response_time
vector 10 Network.player minion_recovered_stat:vector ETV
attr source signal_minion_recovered
vector 11 Network.player minion_throughput:vector ETV
attr source signal_minion_throughput
vector 12 Network.player boss_throughput:vector ETV
attr source signal_boss_throughput
0	2021 5682 155 1099 363.579054885799 2491.481527160442 221 1 14 518 2292
1	7703 11332 155 1099 363.579054885799 2491.481527160442 441 0 13 594 2954
2	19035 8271 155 1094 363.579054885799 2489.019590075643 245 0 48.983693021655 1866.9720822803 48265.471640799
3	27306 6024 156 1095 364.814582328226 2489.096011024566 220 37 256 32230 5609010
4	33330 8544 156 1095 364.814582328226 2489.096011024566 220 0.00251240124 50.048065151267 2224.9557274658 55973.703377661
5	41874 2442 185 1097 437.655607876823 2490.842751616098 95 1 3 118 170
6	44316 4850 185 1097 437.655607876823 2490.842751616098 189 0 2 46 58
7	49166 2703 185 1097 437.655607876823 2490.842751616098 95 0 21.913688771121 99.956895169273 1124.3760126597
8	51869 2512 186 1088 444.891782679936 2442.695703268211 94 16 109 5875 436395
9	54381 3636 186 1088 444.891782679936 2442.695703268211 94 0.058419032313 25.807376818881 565.70918439036 6927.3809941199
10	58017 684 214 1080 529.768904742497 2424.407726500811 25 7 31 475 10325
11	58701 20 1100 1100 2500 2500 1 0.1024 0.1024 0.1024 0.01048576
12	58721 20 1100 1100 2500 2500 1 0.0436 0.0436 0.0436 0.00190096

