version 2
run experiments_easy_game_mode1-872-20230308-12:04:59-23128
attr configname experiments_easy_game_mode1
attr datetime 20230308-12:04:59
attr experiment experiments_easy_game_mode1
attr inifile omnetpp.ini
attr iterationvars "$0=6, $1=2, $2=100"
attr iterationvarsf 6,2,100-
attr measurement "$0=6, $1=2, $2=100"
attr network Network
attr processid 23128
attr repetition 2
attr replication #2
attr resultdir results
attr runnumber 872
attr seedset 2
param *.boss.arrival_mean 20
param *.boss.service_mean 6
param *.minion.arrival_mean 10
param *.minion.service_mean 2
param *.player.recover_rate_x 100
param **.minion.arrival_distribution 0
param **.minion.service_distribution 0
param **.boss.arrival_distribution 0
param **.boss.service_distribution 0

vector 0 Network.player minion_jobs_number_stat:vector ETV
attr source signal_minion_jobs_number
vector 1 Network.player minion_jobs_queue_number_stat:vector ETV
attr source signal_minion_jobs_queue_number
vector 2 Network.player minion_waiting_time_stat:vector ETV
attr source signal_minion_waiting_time
vector 3 Network.player minion_defeated_stat:vector ETV
attr source signal_minion_defeated
vector 4 Network.player minion_response_time_stat:vector ETV
attr source signal_minion_response_time
vector 5 Network.player boss_jobs_number_stat:vector ETV
attr source signal_boss_jobs_number
vector 6 Network.player boss_jobs_queue_number_stat:vector ETV
attr source signal_boss_jobs_queue_number
vector 7 Network.player boss_waiting_time_stat:vector ETV
attr source signal_boss_waiting_time
vector 8 Network.player boss_defeated_stat:vector ETV
attr source signal_boss_defeated
vector 9 Network.player boss_response_time_stat:vector ETV
attr source signal_boss_response_time
vector 10 Network.player minion_recovered_stat:vector ETV
attr source signal_minion_recovered
vector 11 Network.player minion_throughput:vector ETV
attr source signal_minion_throughput
vector 12 Network.player boss_throughput:vector ETV
attr source signal_boss_throughput
0	170	361.253872248248	1
0	176	382.033569988247	1
0	178	386.094833956454	2
0	180	386.647961139654	3
0	183	389.11721552314	3
0	187	392.226410515015	2
0	189	392.907147651836	3
0	192	396.36227194133	3
0	208	437.031828547986	1
0	212	448.318011895377	1
0	214	449.686015902366	2
0	217	453.261598126964	2
0	221	457.149607354789	1
0	224	459.167132141822	1
0	226	459.902982320572	2
0	229	465.705246785592	2
0	232	468.251201226019	2
0	238	475.822507308272	2
0	241	480.825237471622	2
0	250	509.866602764496	1
0	258	532.51419919372	1
0	262	539.722009720888	2
0	266	543.960260144784	1
0	272	555.155696511461	1
0	277	596.98708789577	1
0	279	598.284845066716	2
0	281	598.576374058973	3
0	285	602.620604624623	4
0	287	606.95438653281	5
0	289	610.162704550092	6
0	291	614.958540455523	7
0	296	623.406264846895	7
0	303	637.852286977402	5
0	305	648.643934406955	6
0	311	676.580654484565	4
0	315	679.89463627924	5
0	321	683.746700318794	3
0	324	685.331815749873	3
0	328	690.996536964801	2
0	330	692.204779726722	3
0	335	695.353883843244	3
0	339	706.298540363435	3
0	350	722.445853962356	1
0	352	723.104634167044	2
0	356	733.272343944783	1
0	361	739.797730469372	1
0	363	740.509362681322	2
0	371	750.972521332418	2
0	373	760.22695815373	3
0	375	761.712095157267	4
0	383	777.587614563966	1
0	389	789.201234791078	1
0	392	789.526551019467	1
0	394	789.861488633681	2
0	399	795.939403761245	3
0	407	819.542236411746	1
0	415	835.156933545261	1
0	419	837.724076214384	1
0	427	882.462444236032	1
0	429	890.900647318088	2
0	440	899.670495225509	1
0	443	902.698546084606	1
0	445	903.095442213722	2
0	448	905.089861502072	2
0	452	911.003404036779	1
0	457	915.690760576577	1
0	459	917.775434736723	2
0	464	924.213556890148	3
0	467	934.076817536199	4
0	473	936.960064299383	5
0	475	939.38482909942	6
0	488	957.912134853835	1
0	492	959.548743667564	2
0	499	978.23760579542	1
0	503	985.919423558647	1
0	506	998.744812864239	1
0	508	999.8027166863	2
0	514	1005.637083893272	1
0	518	1018.773414308077	1
0	521	1026.72492787685	1
0	532	1054.801043001804	1
0	535	1064.652973912992	2
0	542	1093.355992575201	1
0	545	1100.282182876396	1
0	548	1104.978036121906	1
0	551	1118.356984565768	1
0	555	1127.414208507312	2
0	560	1133.514281915121	3
0	565	1144.360864369609	4
0	573	1153.951718723298	3
0	580	1161.097070572118	2
0	587	1172.04226562065	3
0	589	1178.407903726891	4
0	597	1184.211304218178	5
0	599	1184.300423029734	6
0	601	1184.435390764814	7
0	603	1185.138503952723	8
0	605	1185.401070630046	9
0	609	1191.107114039485	10
0	611	1194.270322303708	11
0	613	1199.917749928224	12
0	615	1215.207056702361	13
0	618	1217.263576943163	14
0	636	1245.863388766485	3
0	641	1253.407346792082	1
0	644	1254.654480348304	1
0	653	1263.794569950446	1
0	659	1277.485357624897	1
0	664	1290.248085656458	1
0	674	1328.607576263913	1
0	677	1332.266115075993	1
0	683	1345.999171837684	1
0	686	1351.180955470854	1
0	689	1358.024277942655	1
0	698	1375.328048318735	1
0	703	1376.578224452794	1
0	707	1385.424457924955	1
0	710	1400.686626234377	1
0	716	1412.945932439393	1
0	718	1413.277010384735	2
0	722	1420.422398902746	1
0	724	1421.552048863122	2
0	728	1439.27524498052	1
0	731	1441.998615398113	1
0	737	1454.752516381548	1
0	740	1458.614725343514	1
0	743	1478.733427612972	1
0	755	1505.301943959205	1
0	758	1507.576092677335	1
0	761	1513.948258337622	1
0	764	1517.494098948675	1
0	767	1523.807210772095	1
0	773	1530.266107318484	1
0	778	1547.121827412251	1
0	782	1553.926200376688	2
0	784	1556.691645862258	3
0	787	1566.048321592974	4
0	794	1575.850548390337	1
0	799	1592.939572376582	1
0	803	1600.440615470523	1
0	806	1607.942529139216	1
0	809	1617.209974063659	1
0	814	1645.212310001142	1
0	818	1648.295608035408	1
0	821	1661.146836982142	1
0	824	1666.811507272016	1
0	826	1668.780869812961	2
0	828	1675.853363345013	3
0	833	1685.52198025974	1
0	836	1690.619515589583	1
0	839	1698.881351353874	1
0	842	1702.270853690546	1
0	847	1716.684891854079	1
0	856	1742.107707459114	2
0	860	1758.540050622779	3
0	866	1763.847708067724	1
0	869	1767.394836815643	1
0	872	1769.754296063747	1
0	875	1771.243760096415	1
0	884	1797.197225012532	1
0	894	1807.286711899146	2
0	897	1812.682840100208	3
0	899	1812.766270975972	4
0	903	1814.271161976253	3
0	908	1829.810402453992	1
0	910	1830.86100559469	2
0	916	1837.834111699134	1
0	920	1863.053869228857	1
0	933	1921.548888446662	1
0	936	1925.084728108583	2
0	944	1966.461828507534	1
0	952	1996.442726234962	1
0	954	1999.018505728651	2
0	956	2003.133855187522	3
0	958	2022.102208161922	4
0	962	2026.984715526444	4
0	968	2043.741429300996	1
0	971	2068.035895002599	1
0	974	2070.729528780533	1
0	977	2082.060564272508	1
0	985	2092.756536328325	1
0	991	2107.788762825608	1
0	998	2145.586000304457	1
0	1001	2157.470008204503	1
0	1014	2170.621603874021	1
0	1020	2197.669224470044	2
0	1024	2198.674373501187	3
0	1028	2203.554715304965	4
0	1033	2210.498316660967	2
0	1036	2212.274921811409	2
0	1040	2218.480584148708	1
0	1043	2221.48183917862	1
0	1045	2221.489280892939	2
0	1047	2223.125972974633	3
0	1057	2268.169216379668	1
0	1061	2280.874800280286	1
0	1070	2301.881038404028	1
0	1079	2309.910991732672	1
0	1082	2312.359914615875	2
0	1085	2318.170158082466	3
0	1092	2327.468414806708	3
0	1107	2343.996904793849	1
0	1112	2350.382606851478	2
0	1117	2358.611579696822	3
0	1121	2363.060537216027	4
0	1128	2373.50460996526	3
0	1132	2381.039792987798	2
0	1139	2386.087771682966	1
0	1142	2394.407798511697	1
0	1145	2404.565149470387	1
0	1156	2422.495692925158	1
0	1158	2423.823415495132	2
0	1160	2424.472143381992	3
0	1162	2430.129653405028	4
0	1170	2439.453006626528	5
0	1174	2446.289358719912	6
0	1179	2453.293347744151	7
0	1184	2458.70246381101	8
0	1186	2460.449554175474	9
0	1188	2464.794619718189	10
0	1190	2466.366369433583	11
0	1196	2477.751206080727	12
0	1208	2487.907921574443	9
0	1210	2491.854625862879	10
1	170	361.253872248248	0
1	171	363.452491123265	0
1	176	382.033569988247	0
1	178	386.094833956454	1
1	180	386.647961139654	2
1	181	388.057584311019	2
1	183	389.11721552314	2
1	184	389.645012868388	2
1	185	391.255655410929	1
1	187	392.226410515015	1
1	189	392.907147651836	2
1	190	393.679849627328	2
1	192	396.36227194133	2
1	193	399.420055381794	2
1	194	400.397130973144	1
1	195	402.383210103552	0
1	208	437.031828547986	0
1	210	443.999106279348	0
1	212	448.318011895377	0
1	214	449.686015902366	1
1	215	449.982231429304	1
1	217	453.261598126964	1
1	218	453.466690142878	1
1	219	455.50759539385	0
1	221	457.149607354789	0
1	222	458.403084941324	0
1	224	459.167132141822	0
1	226	459.902982320572	1
1	227	462.063628208298	1
1	229	465.705246785592	1
1	230	467.708006891697	1
1	232	468.251201226019	1
1	233	468.648684159752	1
1	238	475.822507308272	1
1	239	477.965787152019	1
1	241	480.825237471622	1
1	242	481.560889571869	1
1	243	489.752691173679	0
1	250	509.866602764496	0
1	252	515.941179497349	0
1	258	532.51419919372	0
1	262	539.722009720888	1
1	263	539.745845858053	1
1	264	539.911122667318	0
1	266	543.960260144784	0
1	267	545.432723251035	0
1	272	555.155696511461	0
1	273	555.295832471944	0
1	277	596.98708789577	0
1	279	598.284845066716	1
1	281	598.576374058973	2
1	285	602.620604624623	3
1	287	606.95438653281	4
1	289	610.162704550092	5
1	291	614.958540455523	6
1	294	622.509545510028	6
1	296	623.406264846895	6
1	297	623.860080154684	6
1	298	625.957100221572	5
1	299	626.427195545577	4
1	303	637.852286977402	4
1	305	648.643934406955	5
1	307	659.812132044752	5
1	308	666.882458809388	4
1	309	674.768511199246	3
1	311	676.580654484565	3
1	315	679.89463627924	4
1	317	680.449938375633	4
1	318	682.66502615036	3
1	319	683.222115840748	2
1	321	683.746700318794	2
1	322	684.12107396474	2
1	324	685.331815749873	2
1	325	685.86443248922	2
1	326	689.997891253448	1
1	328	690.996536964801	1
1	330	692.204779726722	2
1	331	693.16073380746	2
1	335	695.353883843244	2
1	337	702.455289668214	2
1	339	706.298540363435	2
1	340	707.184323852565	2
1	341	710.02425766223	1
1	342	711.760498292274	0
1	350	722.445853962356	0
1	352	723.104634167044	1
1	353	723.297909991459	1
1	354	723.452776676258	0
1	356	733.272343944783	0
1	357	734.517850808253	0
1	361	739.797730469372	0
1	363	740.509362681322	1
1	365	745.748368957982	1
1	371	750.972521332418	1
1	373	760.22695815373	2
1	375	761.712095157267	3
1	378	773.206946374061	3
1	379	774.348411631789	2
1	380	775.719887879567	1
1	381	777.521530804035	0
1	383	777.587614563966	0
1	384	778.887690386791	0
1	389	789.201234791078	0
1	390	789.503248421864	0
1	392	789.526551019467	0
1	394	789.861488633681	1
1	399	795.939403761245	2
1	400	797.240000600049	2
1	401	798.074917521587	1
1	402	802.161650481261	0
1	407	819.542236411746	0
1	408	827.242166892678	0
1	415	835.156933545261	0
1	417	835.900231555798	0
1	419	837.724076214384	0
1	420	843.035121493816	0
1	427	882.462444236032	0
1	429	890.900647318088	1
1	437	896.382301113564	1
1	438	898.176112012871	0
1	440	899.670495225509	0
1	441	902.10210816573	0
1	443	902.698546084606	0
1	445	903.095442213722	1
1	446	903.381666862511	1
1	448	905.089861502072	1
1	449	908.567543746868	1
1	450	909.329339942917	0
1	452	911.003404036779	0
1	453	911.08391254608	0
1	457	915.690760576577	0
1	459	917.775434736723	1
1	464	924.213556890148	2
1	467	934.076817536199	3
1	473	936.960064299383	4
1	475	939.38482909942	5
1	478	946.206350713484	5
1	479	946.29394452728	4
1	480	948.326464972248	3
1	481	954.516932795108	2
1	482	954.889867009979	1
1	483	956.128536825958	0
1	488	957.912134853835	0
1	492	959.548743667564	1
1	494	967.906765492222	1
1	495	968.015803368785	0
1	499	978.23760579542	0
1	501	981.542206152281	0
1	503	985.919423558647	0
1	504	985.998092511991	0
1	506	998.744812864239	0
1	508	999.8027166863	1
1	509	1000.98477678714	1
1	510	1001.356307145535	0
1	514	1005.637083893272	0
1	516	1006.413646486638	0
1	518	1018.773414308077	0
1	519	1021.938498935991	0
1	521	1026.72492787685	0
1	522	1027.115645067777	0
1	532	1054.801043001804	0
1	535	1064.652973912992	1
1	536	1064.950793199926	1
1	537	1065.225542211201	0
1	542	1093.355992575201	0
1	543	1093.65470724711	0
1	545	1100.282182876396	0
1	546	1100.427508268466	0
1	548	1104.978036121906	0
1	549	1105.848597382239	0
1	551	1118.356984565768	0
1	555	1127.414208507312	1
1	560	1133.514281915121	2
1	565	1144.360864369609	3
1	567	1148.683166890646	3
1	568	1148.802496126079	2
1	573	1153.951718723298	2
1	577	1160.142353176053	2
1	578	1161.017027798349	1
1	580	1161.097070572118	1
1	587	1172.04226562065	2
1	589	1178.407903726891	3
1	597	1184.211304218178	4
1	599	1184.300423029734	5
1	601	1184.435390764814	6
1	603	1185.138503952723	7
1	605	1185.401070630046	8
1	609	1191.107114039485	9
1	611	1194.270322303708	10
1	613	1199.917749928224	11
1	615	1215.207056702361	12
1	618	1217.263576943163	13
1	623	1226.651879767898	13
1	624	1227.248367098705	12
1	625	1227.319170018888	11
1	626	1227.939773654033	10
1	627	1230.960871581973	9
1	628	1235.765156759496	8
1	629	1237.060338075932	7
1	630	1237.106602995693	6
1	631	1237.254369108487	5
1	632	1238.194769224756	4
1	633	1242.866358042607	3
1	634	1243.311728668875	2
1	636	1245.863388766485	2
1	637	1246.573481180885	2
1	638	1247.413030895526	1
1	639	1247.42217947966	0
1	641	1253.407346792082	0
1	642	1254.581724754781	0
1	644	1254.654480348304	0
1	645	1255.145457013464	0
1	653	1263.794569950446	0
1	654	1265.173436561717	0
1	659	1277.485357624897	0
1	660	1280.100805177407	0
1	664	1290.248085656458	0
1	669	1303.630247994379	0
1	674	1328.607576263913	0
1	675	1329.378181585987	0
1	677	1332.266115075993	0
1	678	1332.748363459295	0
1	683	1345.999171837684	0
1	684	1347.591165272093	0
1	686	1351.180955470854	0
1	687	1351.669280586276	0
1	689	1358.024277942655	0
1	690	1358.099208464978	0
1	698	1375.328048318735	0
1	699	1375.856779378997	0
1	703	1376.578224452794	0
1	705	1380.21843054352	0
1	707	1385.424457924955	0
1	708	1388.036362826556	0
1	710	1400.686626234377	0
1	711	1402.14602882541	0
1	716	1412.945932439393	0
1	718	1413.277010384735	1
1	719	1414.021362509787	1
1	720	1415.487276735344	0
1	722	1420.422398902746	0
1	724	1421.552048863122	1
1	725	1422.176049458143	1
1	726	1425.796121096389	0
1	728	1439.27524498052	0
1	729	1440.639013117723	0
1	731	1441.998615398113	0
1	732	1442.014972190024	0
1	737	1454.752516381548	0
1	738	1455.876918477813	0
1	740	1458.614725343514	0
1	741	1459.436877709179	0
1	743	1478.733427612972	0
1	747	1482.277137056514	0
1	755	1505.301943959205	0
1	756	1507.011669219653	0
1	758	1507.576092677335	0
1	759	1509.20092952629	0
1	761	1513.948258337622	0
1	762	1514.238142823448	0
1	764	1517.494098948675	0
1	765	1518.214979121623	0
1	767	1523.807210772095	0
1	768	1524.124705765558	0
1	773	1530.266107318484	0
1	774	1537.333157078101	0
1	778	1547.121827412251	0
1	782	1553.926200376688	1
1	784	1556.691645862258	2
1	787	1566.048321592974	3
1	789	1567.376491612242	3
1	790	1567.885869985778	2
1	791	1569.51322613548	1
1	792	1569.812011530915	0
1	794	1575.850548390337	0
1	795	1582.440528167644	0
1	799	1592.939572376582	0
1	801	1599.341157114959	0
1	803	1600.440615470523	0
1	804	1602.961934528468	0
1	806	1607.942529139216	0
1	807	1609.296797039244	0
1	809	1617.209974063659	0
1	810	1618.889784638714	0
1	814	1645.212310001142	0
1	816	1648.267563002941	0
1	818	1648.295608035408	0
1	819	1651.39723295984	0
1	821	1661.146836982142	0
1	822	1661.378355806336	0
1	824	1666.811507272016	0
1	826	1668.780869812961	1
1	828	1675.853363345013	2
1	829	1676.44713234749	2
1	830	1677.99834524047	1
1	831	1678.079217147784	0
1	833	1685.52198025974	0
1	834	1686.204987994911	0
1	836	1690.619515589583	0
1	837	1691.280521091712	0
1	839	1698.881351353874	0
1	840	1699.09887069666	0
1	842	1702.270853690546	0
1	843	1704.678671938372	0
1	847	1716.684891854079	0
1	856	1742.107707459114	1
1	860	1758.540050622779	2
1	862	1761.44087794913	2
1	863	1761.764126510682	1
1	864	1763.763969540981	0
1	866	1763.847708067724	0
1	867	1767.195473474628	0
1	869	1767.394836815643	0
1	870	1767.472254485413	0
1	872	1769.754296063747	0
1	873	1769.814954988334	0
1	875	1771.243760096415	0
1	876	1772.630486175865	0
1	884	1797.197225012532	0
1	894	1807.286711899146	1
1	897	1812.682840100208	2
1	899	1812.766270975972	3
1	900	1813.60301104562	3
1	901	1813.777492253683	2
1	903	1814.271161976253	2
1	904	1814.652820271401	2
1	905	1817.786709916991	1
1	906	1819.581455554996	0
1	908	1829.810402453992	0
1	910	1830.86100559469	1
1	911	1832.648335329161	1
1	912	1832.662960184643	0
1	916	1837.834111699134	0
1	918	1838.925606987938	0
1	920	1863.053869228857	0
1	921	1866.390277283599	0
1	933	1921.548888446662	0
1	936	1925.084728108583	1
1	941	1936.383461631237	1
1	942	1941.989418886424	0
1	944	1966.461828507534	0
1	945	1971.444306804017	0
1	952	1996.442726234962	0
1	954	1999.018505728651	1
1	956	2003.133855187522	2
1	958	2022.102208161922	3
1	960	2026.957807018443	3
1	962	2026.984715526444	3
1	963	2028.415190911366	3
1	964	2036.294300700093	2
1	965	2036.580978605944	1
1	966	2041.192149330057	0
1	968	2043.741429300996	0
1	969	2043.980219981643	0
1	971	2068.035895002599	0
1	972	2068.178767181883	0
1	974	2070.729528780533	0
1	975	2074.415311990838	0
1	977	2082.060564272508	0
1	981	2085.385469869407	0
1	985	2092.756536328325	0
1	987	2096.558587617693	0
1	991	2107.788762825608	0
1	993	2114.898834043557	0
1	998	2145.586000304457	0
1	999	2146.190959886922	0
1	1001	2157.470008204503	0
1	1008	2164.654613470047	0
1	1014	2170.621603874021	0
1	1020	2197.669224470044	1
1	1024	2198.674373501187	2
1	1028	2203.554715304965	3
1	1029	2204.037594112974	3
1	1030	2206.628350178019	2
1	1031	2207.381675807568	1
1	1033	2210.498316660967	1
1	1034	2210.688561520879	1
1	1036	2212.274921811409	1
1	1037	2213.825375975523	1
1	1038	2214.730470037482	0
1	1040	2218.480584148708	0
1	1041	2219.83943058906	0
1	1043	2221.48183917862	0
1	1045	2221.489280892939	1
1	1047	2223.125972974633	2
1	1048	2226.582212861119	2
1	1049	2233.296086659385	1
1	1050	2234.869309171765	0
1	1057	2268.169216379668	0
1	1059	2271.228970464865	0
1	1061	2280.874800280286	0
1	1065	2284.028258395358	0
1	1070	2301.881038404028	0
1	1071	2306.547572201337	0
1	1079	2309.910991732672	0
1	1082	2312.359914615875	1
1	1085	2318.170158082466	2
1	1090	2326.415596989309	2
1	1092	2327.468414806708	2
1	1093	2328.094632809144	2
1	1094	2331.883229870182	1
1	1095	2333.357374939327	0
1	1107	2343.996904793849	0
1	1112	2350.382606851478	1
1	1117	2358.611579696822	2
1	1121	2363.060537216027	3
1	1125	2371.747447628067	3
1	1126	2373.156857790685	2
1	1128	2373.50460996526	2
1	1129	2374.846723095904	2
1	1130	2378.20078101367	1
1	1132	2381.039792987798	1
1	1133	2381.928710971425	1
1	1137	2383.639597711173	0
1	1139	2386.087771682966	0
1	1140	2386.246575507213	0
1	1142	2394.407798511697	0
1	1143	2398.026102139924	0
1	1145	2404.565149470387	0
1	1146	2407.572190966539	0
1	1156	2422.495692925158	0
1	1158	2423.823415495132	1
1	1160	2424.472143381992	2
1	1162	2430.129653405028	3
1	1170	2439.453006626528	4
1	1174	2446.289358719912	5
1	1179	2453.293347744151	6
1	1184	2458.70246381101	7
1	1186	2460.449554175474	8
1	1188	2464.794619718189	9
1	1190	2466.366369433583	10
1	1196	2477.751206080727	11
1	1201	2481.51480071119	11
1	1202	2482.557634638415	10
1	1203	2485.89995420714	9
1	1204	2485.974218597594	8
1	1208	2487.907921574443	8
1	1210	2491.854625862879	9
1	1212	2495.164614029774	9
1	1213	2495.233473434737	8
1	1214	2497.505650493253	7
2	170	361.253872248248	0
2	176	382.033569988247	0
2	181	388.057584311019	1.962750354565
2	184	389.645012868388	2.997051728734
2	185	391.255655410929	2.138439887789
2	190	393.679849627328	1.453439112313
2	193	399.420055381794	6.512907729958
2	194	400.397130973144	4.034859031814
2	209	441.627896713145	4.596068165159
2	212	448.318011895377	0
2	215	449.982231429304	0.296215526938
2	218	453.466690142878	0.205092015914
2	221	457.149607354789	0
2	224	459.167132141822	0
2	227	462.063628208298	2.160645887726
2	230	467.708006891697	2.002760106105
2	233	468.648684159752	0.397482933733
2	236	475.117775537837	5.315527288897
2	239	477.965787152019	2.143279843747
2	242	481.560889571869	0.735652100247
2	251	515.720527275506	5.85392451101
2	260	539.374062984261	6.859863790541
2	263	539.745845858053	0.023836137165
2	266	543.960260144784	0
2	272	555.155696511461	0
2	293	616.68979712988	19.70270923411
2	294	622.509545510028	24.224700443312
2	297	623.860080154684	25.283706095711
2	298	625.957100221572	23.336495596949
2	299	626.427195545577	19.472809012767
2	306	654.625630111014	44.462925560922
2	307	659.812132044752	44.853591589229
2	308	666.882458809388	43.476193962493
2	309	674.768511199246	46.976748326273
2	316	680.039474309354	42.187187331952
2	317	680.449938375633	31.806003968678
2	318	682.66502615036	6.084371665795
2	319	683.222115840748	5.464648568272
2	322	684.12107396474	4.2264376855
2	325	685.86443248922	2.117732170426
2	326	689.997891253448	4.666075503575
2	331	693.16073380746	2.164196842659
2	336	702.359638337308	10.154858610586
2	337	702.455289668214	9.128908532914
2	340	707.184323852565	11.830440009321
2	341	710.02425766223	3.725717298795
2	350	722.445853962356	0
2	353	723.297909991459	0.193275824415
2	356	733.272343944783	0
2	364	745.399495423633	5.601764954261
2	365	745.748368957982	5.23900627666
2	377	773.022241909624	25.482627684443
2	378	773.206946374061	22.234425041643
2	379	774.348411631789	14.121453478059
2	380	775.719887879567	14.0077927223
2	383	777.587614563966	0
2	389	789.201234791078	0
2	392	789.526551019467	0
2	397	792.65625548975	2.794766856069
2	400	797.240000600049	7.119026623149
2	401	798.074917521587	2.135513760342
2	407	819.542236411746	0
2	416	835.485300751845	0.328367206584
2	419	837.724076214384	0
2	433	893.258613163072	10.79616892704
2	436	895.384569176926	4.483921858838
2	437	896.382301113564	2.009272672051
2	440	899.670495225509	0
2	443	902.698546084606	0
2	446	903.381666862511	0.286224648789
2	449	908.567543746868	3.477682244796
2	452	911.003404036779	0
2	465	930.036851251459	14.346090674882
2	477	944.123114887391	26.347680150668
2	478	946.206350713484	21.992793823336
2	479	946.29394452728	12.217126991081
2	480	948.326464972248	13.653756792529
2	481	954.516932795108	17.556868495725
2	482	954.889867009979	15.505037910559
2	488	957.912134853835	0
2	493	967.385785422369	9.175703134372
2	494	967.906765492222	8.358021824658
2	500	980.509132262706	2.271526467286
2	503	985.919423558647	0
2	506	998.744812864239	0
2	509	1000.98477678714	1.18206010084
2	515	1005.86580367396	0.228719780688
2	518	1018.773414308077	0
2	521	1026.72492787685	0
2	533	1064.59587190064	9.794828898836
2	536	1064.950793199926	0.297819286934
2	542	1093.355992575201	0
2	545	1100.282182876396	0
2	548	1104.978036121906	0
2	551	1118.356984565768	0
2	556	1127.678307300709	7.591881117607
2	566	1147.357936936647	19.943728429335
2	567	1148.683166890646	20.530923568893
2	568	1148.802496126079	15.288214210958
2	571	1152.67624584902	8.315381479411
2	576	1158.965898451941	6.719226731482
2	577	1160.142353176053	6.190634452755
2	578	1161.017027798349	6.874044329383
2	583	1166.553868271887	5.456797699769
2	622	1226.289908790479	63.972527885206
2	623	1226.651879767898	57.180988338456
2	624	1227.248367098705	55.206101478055
2	625	1227.319170018888	48.911266291997
2	626	1227.939773654033	43.728469435855
2	627	1230.960871581973	46.660448552239
2	628	1235.765156759496	51.329765994682
2	629	1237.060338075932	51.921834123209
2	630	1237.106602995693	51.705532365647
2	631	1237.254369108487	46.147255069002
2	632	1238.194769224756	43.924446921048
2	633	1242.866358042607	42.948608114383
2	634	1243.311728668875	28.104671966514
2	637	1246.573481180885	29.309904237722
2	638	1247.413030895526	1.549642129041
2	641	1253.407346792082	0
2	644	1254.654480348304	0
2	653	1263.794569950446	0
2	659	1277.485357624897	0
2	668	1302.560194661688	12.31210900523
2	674	1328.607576263913	0
2	677	1332.266115075993	0
2	683	1345.999171837684	0
2	686	1351.180955470854	0
2	689	1358.024277942655	0
2	698	1375.328048318735	0
2	704	1376.819355683919	0.241131231125
2	707	1385.424457924955	0
2	710	1400.686626234377	0
2	716	1412.945932439393	0
2	719	1414.021362509787	0.744352125052
2	722	1420.422398902746	0
2	725	1422.176049458143	0.624000595021
2	728	1439.27524498052	0
2	731	1441.998615398113	0
2	737	1454.752516381548	0
2	740	1458.614725343514	0
2	743	1478.733427612972	0
2	746	1480.285575675863	0.225854393931
2	755	1505.301943959205	0
2	758	1507.576092677335	0
2	761	1513.948258337622	0
2	764	1517.494098948675	0
2	767	1523.807210772095	0
2	773	1530.266107318484	0
2	788	1567.264697637146	20.142870224895
2	789	1567.376491612242	13.450291235554
2	790	1567.885869985778	11.19422412352
2	791	1569.51322613548	3.464904542506
2	794	1575.850548390337	0
2	800	1597.432483996252	4.49291161967
2	803	1600.440615470523	0
2	806	1607.942529139216	0
2	809	1617.209974063659	0
2	815	1647.862956724556	2.650646723414
2	818	1648.295608035408	0
2	821	1661.146836982142	0
2	824	1666.811507272016	0
2	829	1676.44713234749	7.666262534529
2	830	1677.99834524047	2.144981895457
2	833	1685.52198025974	0
2	836	1690.619515589583	0
2	839	1698.881351353874	0
2	842	1702.270853690546	0
2	861	1760.091828441276	43.406936587197
2	862	1761.44087794913	19.333170490016
2	863	1761.764126510682	3.224075887903
2	866	1763.847708067724	0
2	869	1767.394836815643	0
2	872	1769.754296063747	0
2	875	1771.243760096415	0
2	884	1797.197225012532	0
2	887	1798.323316691176	0.312058513836
2	890	1802.665315948635	2.691646936343
2	895	1810.961873018311	8.173261268175
2	900	1813.60301104562	6.316299146474
2	901	1813.777492253683	1.094652153475
2	904	1814.652820271401	1.886549295429
2	905	1817.786709916991	3.515547940738
2	908	1829.810402453992	0
2	911	1832.648335329161	1.787329734471
2	917	1838.317243511958	0.483131812824
2	920	1863.053869228857	0
2	940	1936.170831714355	14.621943267693
2	941	1936.383461631237	11.298733522654
2	944	1966.461828507534	0
2	959	2026.611420360976	30.168694126014
2	960	2026.957807018443	27.939301289792
2	963	2028.415190911366	25.281335723844
2	964	2036.294300700093	14.192092538171
2	965	2036.580978605944	9.5962630795
2	968	2043.741429300996	0
2	971	2068.035895002599	0
2	974	2070.729528780533	0
2	977	2082.060564272508	0
2	980	2083.980858918901	0.125705572682
2	986	2094.978942182193	2.222405853868
2	992	2113.683750621754	5.894987796146
2	998	2145.586000304457	0
2	1001	2157.470008204503	0
2	1004	2159.671638350068	2.139638330246
2	1007	2162.220871635631	1.450928289142
2	1026	2202.322373343154	31.700769469133
2	1029	2204.037594112974	6.36836964293
2	1030	2206.628350178019	7.953976676832
2	1031	2207.381675807568	3.826960502603
2	1034	2210.688561520879	0.190244859912
2	1037	2213.825375975523	1.550454164114
2	1040	2218.480584148708	0
2	1043	2221.48183917862	0
2	1048	2226.582212861119	5.09293196818
2	1049	2233.296086659385	10.170113684752
2	1058	2269.759731921816	1.590515542148
2	1061	2280.874800280286	0
2	1064	2283.943132255925	3.068238926646
2	1070	2301.881038404028	0
2	1086	2323.348074409003	13.437082676331
2	1089	2325.840753941522	13.480839325647
2	1090	2326.415596989309	8.245438906843
2	1093	2328.094632809144	3.289791822509
2	1094	2331.883229870182	4.414815063474
2	1124	2371.718852877566	27.721948083717
2	1125	2371.747447628067	21.364840776589
2	1126	2373.156857790685	14.545278093863
2	1129	2374.846723095904	11.786185879877
2	1130	2378.20078101367	4.69617104841
2	1133	2381.928710971425	0.888917983627
2	1136	2383.487809331709	1.553132378957
2	1139	2386.087771682966	0
2	1142	2394.407798511697	0
2	1145	2404.565149470387	0
2	1192	2474.473721848499	51.978028923341
2	1200	2478.683906671853	54.860491176721
2	1201	2481.51480071119	57.042657329198
2	1202	2482.557634638415	52.427981233387
2	1203	2485.89995420714	46.446947580612
2	1204	2485.974218597594	39.684859877682
2	1211	2492.248997985291	38.95565024114
2	1212	2495.164614029774	36.462150218764
2	1213	2495.233473434737	34.783919259263
2	1214	2497.505650493253	32.711030775064
3	171	363.452491123265	35
3	181	388.057584311019	36
3	184	389.645012868388	37
3	185	391.255655410929	38
3	190	393.679849627328	39
3	193	399.420055381794	40
3	194	400.397130973144	41
3	195	402.383210103552	42
3	210	443.999106279348	43
3	215	449.982231429304	44
3	218	453.466690142878	45
3	219	455.50759539385	46
3	222	458.403084941324	47
3	227	462.063628208298	48
3	230	467.708006891697	49
3	233	468.648684159752	50
3	239	477.965787152019	51
3	242	481.560889571869	52
3	243	489.752691173679	53
3	252	515.941179497349	54
3	263	539.745845858053	55
3	264	539.911122667318	56
3	267	545.432723251035	57
3	273	555.295832471944	58
3	294	622.509545510028	59
3	297	623.860080154684	60
3	298	625.957100221572	61
3	299	626.427195545577	62
3	307	659.812132044752	63
3	308	666.882458809388	64
3	309	674.768511199246	65
3	317	680.449938375633	66
3	318	682.66502615036	67
3	319	683.222115840748	68
3	322	684.12107396474	69
3	325	685.86443248922	70
3	326	689.997891253448	71
3	331	693.16073380746	72
3	337	702.455289668214	73
3	340	707.184323852565	74
3	341	710.02425766223	75
3	342	711.760498292274	76
3	353	723.297909991459	77
3	354	723.452776676258	78
3	357	734.517850808253	79
3	365	745.748368957982	80
3	378	773.206946374061	81
3	379	774.348411631789	82
3	380	775.719887879567	83
3	381	777.521530804035	84
3	384	778.887690386791	85
3	390	789.503248421864	86
3	400	797.240000600049	87
3	401	798.074917521587	88
3	402	802.161650481261	89
3	408	827.242166892678	90
3	417	835.900231555798	91
3	420	843.035121493816	92
3	437	896.382301113564	93
3	438	898.176112012871	94
3	441	902.10210816573	95
3	446	903.381666862511	96
3	449	908.567543746868	97
3	450	909.329339942917	98
3	453	911.08391254608	99
3	478	946.206350713484	100
3	479	946.29394452728	101
3	480	948.326464972248	102
3	481	954.516932795108	103
3	482	954.889867009979	104
3	483	956.128536825958	105
3	494	967.906765492222	106
3	495	968.015803368785	107
3	501	981.542206152281	108
3	504	985.998092511991	109
3	509	1000.98477678714	110
3	510	1001.356307145535	111
3	516	1006.413646486638	112
3	519	1021.938498935991	113
3	522	1027.115645067777	114
3	536	1064.950793199926	115
3	537	1065.225542211201	116
3	543	1093.65470724711	117
3	546	1100.427508268466	118
3	549	1105.848597382239	119
3	567	1148.683166890646	120
3	568	1148.802496126079	121
3	577	1160.142353176053	122
3	578	1161.017027798349	123
3	623	1226.651879767898	124
3	624	1227.248367098705	125
3	625	1227.319170018888	126
3	626	1227.939773654033	127
3	627	1230.960871581973	128
3	628	1235.765156759496	129
3	629	1237.060338075932	130
3	630	1237.106602995693	131
3	631	1237.254369108487	132
3	632	1238.194769224756	133
3	633	1242.866358042607	134
3	634	1243.311728668875	135
3	637	1246.573481180885	136
3	638	1247.413030895526	137
3	639	1247.42217947966	138
3	642	1254.581724754781	139
3	645	1255.145457013464	140
3	654	1265.173436561717	141
3	660	1280.100805177407	142
3	669	1303.630247994379	143
3	675	1329.378181585987	144
3	678	1332.748363459295	145
3	684	1347.591165272093	146
3	687	1351.669280586276	147
3	690	1358.099208464978	148
3	699	1375.856779378997	149
3	705	1380.21843054352	150
3	708	1388.036362826556	151
3	711	1402.14602882541	152
3	719	1414.021362509787	153
3	720	1415.487276735344	154
3	725	1422.176049458143	155
3	726	1425.796121096389	156
3	729	1440.639013117723	157
3	732	1442.014972190024	158
3	738	1455.876918477813	159
3	741	1459.436877709179	160
3	747	1482.277137056514	161
3	756	1507.011669219653	162
3	759	1509.20092952629	163
3	762	1514.238142823448	164
3	765	1518.214979121623	165
3	768	1524.124705765558	166
3	774	1537.333157078101	167
3	789	1567.376491612242	168
3	790	1567.885869985778	169
3	791	1569.51322613548	170
3	792	1569.812011530915	171
3	795	1582.440528167644	172
3	801	1599.341157114959	173
3	804	1602.961934528468	174
3	807	1609.296797039244	175
3	810	1618.889784638714	176
3	816	1648.267563002941	177
3	819	1651.39723295984	178
3	822	1661.378355806336	179
3	829	1676.44713234749	180
3	830	1677.99834524047	181
3	831	1678.079217147784	182
3	834	1686.204987994911	183
3	837	1691.280521091712	184
3	840	1699.09887069666	185
3	843	1704.678671938372	186
3	862	1761.44087794913	187
3	863	1761.764126510682	188
3	864	1763.763969540981	189
3	867	1767.195473474628	190
3	870	1767.472254485413	191
3	873	1769.814954988334	192
3	876	1772.630486175865	193
3	900	1813.60301104562	194
3	901	1813.777492253683	195
3	904	1814.652820271401	196
3	905	1817.786709916991	197
3	906	1819.581455554996	198
3	911	1832.648335329161	199
3	912	1832.662960184643	200
3	918	1838.925606987938	201
3	921	1866.390277283599	202
3	941	1936.383461631237	203
3	942	1941.989418886424	204
3	945	1971.444306804017	205
3	960	2026.957807018443	206
3	963	2028.415190911366	207
3	964	2036.294300700093	208
3	965	2036.580978605944	209
3	966	2041.192149330057	210
3	969	2043.980219981643	211
3	972	2068.178767181883	212
3	975	2074.415311990838	213
3	981	2085.385469869407	214
3	987	2096.558587617693	215
3	993	2114.898834043557	216
3	999	2146.190959886922	217
3	1008	2164.654613470047	218
3	1029	2204.037594112974	219
3	1030	2206.628350178019	220
3	1031	2207.381675807568	221
3	1034	2210.688561520879	222
3	1037	2213.825375975523	223
3	1038	2214.730470037482	224
3	1041	2219.83943058906	225
3	1048	2226.582212861119	226
3	1049	2233.296086659385	227
3	1050	2234.869309171765	228
3	1059	2271.228970464865	229
3	1065	2284.028258395358	230
3	1071	2306.547572201337	231
3	1090	2326.415596989309	232
3	1093	2328.094632809144	233
3	1094	2331.883229870182	234
3	1095	2333.357374939327	235
3	1125	2371.747447628067	236
3	1126	2373.156857790685	237
3	1129	2374.846723095904	238
3	1130	2378.20078101367	239
3	1133	2381.928710971425	240
3	1137	2383.639597711173	241
3	1140	2386.246575507213	242
3	1143	2398.026102139924	243
3	1146	2407.572190966539	244
3	1201	2481.51480071119	245
3	1202	2482.557634638415	246
3	1203	2485.89995420714	247
3	1204	2485.974218597594	248
3	1212	2495.164614029774	249
3	1213	2495.233473434737	250
3	1214	2497.505650493253	251
4	171	363.452491123265	2.198618875017
4	181	388.057584311019	6.024014322772
4	184	389.645012868388	3.550178911934
4	185	391.255655410929	4.607694271275
4	190	393.679849627328	4.562634104188
4	193	399.420055381794	7.193644866779
4	194	400.397130973144	7.489983321308
4	195	402.383210103552	6.020938162222
4	210	443.999106279348	6.967277731362
4	215	449.982231429304	1.664219533927
4	218	453.466690142878	3.780674240512
4	219	455.50759539385	2.245997266886
4	222	458.403084941324	1.253477586535
4	227	462.063628208298	2.896496066476
4	230	467.708006891697	7.805024571125
4	233	468.648684159752	2.94343737416
4	239	477.965787152019	8.163538903079
4	242	481.560889571869	5.738382263597
4	243	489.752691173679	8.927453702057
4	252	515.941179497349	6.074576732853
4	263	539.745845858053	7.231646664333
4	264	539.911122667318	0.18911294643
4	267	545.432723251035	1.472463106251
4	273	555.295832471944	0.140135960483
4	294	622.509545510028	25.522457614258
4	297	623.860080154684	25.575235087968
4	298	625.957100221572	27.380726162599
4	299	626.427195545577	23.806590920954
4	307	659.812132044752	49.64942749466
4	308	666.882458809388	51.923918353865
4	309	674.768511199246	51.362246352351
4	317	680.449938375633	42.597651398231
4	318	682.66502615036	34.021091743405
4	319	683.222115840748	6.641461356183
4	322	684.12107396474	6.363606692264
4	325	685.86443248922	5.96979620998
4	326	689.997891253448	6.251190934654
4	331	693.16073380746	7.828918057587
4	337	702.455289668214	10.250509941492
4	340	707.184323852565	13.857942717265
4	341	710.02425766223	14.670373818986
4	342	711.760498292274	5.461957928839
4	353	723.297909991459	0.852056029103
4	354	723.452776676258	0.348142509214
4	357	734.517850808253	1.24550686347
4	365	745.748368957982	5.95063848861
4	378	773.206946374061	25.66733214888
4	379	774.348411631789	23.375890299371
4	380	775.719887879567	15.492929725837
4	381	777.521530804035	15.809435646768
4	384	778.887690386791	1.300075822825
4	390	789.503248421864	0.302013630786
4	400	797.240000600049	7.378511966368
4	401	798.074917521587	7.953943544687
4	402	802.161650481261	6.222246720016
4	408	827.242166892678	7.699930480932
4	417	835.900231555798	0.743298010537
4	420	843.035121493816	5.311045279432
4	437	896.382301113564	5.481653795476
4	438	898.176112012871	3.803083571358
4	441	902.10210816573	2.431612940221
4	446	903.381666862511	0.683120777905
4	449	908.567543746868	5.472101533146
4	450	909.329339942917	4.239478440845
4	453	911.08391254608	0.080508509301
4	478	946.206350713484	28.430915976761
4	479	946.29394452728	22.080387637132
4	480	948.326464972248	14.249647436049
4	481	954.516932795108	19.844224615389
4	482	954.889867009979	17.929802710596
4	483	956.128536825958	16.743707726538
4	494	967.906765492222	9.696683204225
4	495	968.015803368785	8.467059701221
4	501	981.542206152281	3.304600356861
4	504	985.998092511991	0.078668953344
4	509	1000.98477678714	2.239963922901
4	510	1001.356307145535	1.553590459235
4	516	1006.413646486638	0.776562593366
4	519	1021.938498935991	3.165084627914
4	522	1027.115645067777	0.390717190927
4	536	1064.950793199926	10.149750198122
4	537	1065.225542211201	0.572568298209
4	543	1093.65470724711	0.298714671909
4	546	1100.427508268466	0.14532539207
4	549	1105.848597382239	0.870561260333
4	567	1148.683166890646	21.268958383334
4	568	1148.802496126079	20.650252804326
4	577	1160.142353176053	7.895681455594
4	578	1161.017027798349	7.065309075051
4	623	1226.651879767898	64.334498862625
4	624	1227.248367098705	57.777475669263
4	625	1227.319170018888	55.276904398238
4	626	1227.939773654033	49.531869927142
4	627	1230.960871581973	46.749567363795
4	628	1235.765156759496	51.464733729762
4	629	1237.060338075932	52.624947311118
4	630	1237.106602995693	51.96809904297
4	631	1237.254369108487	51.853298478441
4	632	1238.194769224756	47.087655185271
4	633	1242.866358042607	48.596035738899
4	634	1243.311728668875	43.393978740651
4	637	1246.573481180885	31.366424478524
4	638	1247.413030895526	30.149453952363
4	639	1247.42217947966	1.558790713175
4	642	1254.581724754781	1.174377962699
4	645	1255.145457013464	0.49097666516
4	654	1265.173436561717	1.378866611271
4	660	1280.100805177407	2.61544755251
4	669	1303.630247994379	13.382162337921
4	675	1329.378181585987	0.770605322074
4	678	1332.748363459295	0.482248383302
4	684	1347.591165272093	1.591993434409
4	687	1351.669280586276	0.488325115422
4	690	1358.099208464978	0.074930522323
4	699	1375.856779378997	0.528731060262
4	705	1380.21843054352	3.640206090726
4	708	1388.036362826556	2.611904901601
4	711	1402.14602882541	1.459402591033
4	719	1414.021362509787	1.075430070394
4	720	1415.487276735344	2.210266350609
4	725	1422.176049458143	1.753650555397
4	726	1425.796121096389	4.244072233267
4	729	1440.639013117723	1.363768137203
4	732	1442.014972190024	0.016356791911
4	738	1455.876918477813	1.124402096265
4	741	1459.436877709179	0.822152365665
4	747	1482.277137056514	2.217415774582
4	756	1507.011669219653	1.709725260448
4	759	1509.20092952629	1.624836848955
4	762	1514.238142823448	0.289884485826
4	765	1518.214979121623	0.720880172948
4	768	1524.124705765558	0.317494993463
4	774	1537.333157078101	7.067049759617
4	789	1567.376491612242	20.254664199991
4	790	1567.885869985778	13.95966960909
4	791	1569.51322613548	12.821580273222
4	792	1569.812011530915	3.763689937941
4	795	1582.440528167644	6.589979777307
4	801	1599.341157114959	6.401584738377
4	804	1602.961934528468	2.521319057945
4	807	1609.296797039244	1.354267900028
4	810	1618.889784638714	1.679810575055
4	816	1648.267563002941	3.055253001799
4	819	1651.39723295984	3.101624924432
4	822	1661.378355806336	0.231518824194
4	829	1676.44713234749	9.635625075474
4	830	1677.99834524047	9.217475427509
4	831	1678.079217147784	2.225853802771
4	834	1686.204987994911	0.683007735171
4	837	1691.280521091712	0.661005502129
4	840	1699.09887069666	0.217519342786
4	843	1704.678671938372	2.407818247826
4	862	1761.44087794913	44.755986095051
4	863	1761.764126510682	19.656419051568
4	864	1763.763969540981	5.223918918202
4	867	1767.195473474628	3.347765406904
4	870	1767.472254485413	0.07741766977
4	873	1769.814954988334	0.060658924587
4	876	1772.630486175865	1.38672607945
4	900	1813.60301104562	10.814399295484
4	901	1813.777492253683	6.490780354537
4	904	1814.652820271401	1.969980171193
4	905	1817.786709916991	5.020438941019
4	906	1819.581455554996	5.310293578743
4	911	1832.648335329161	2.837932875169
4	912	1832.662960184643	1.801954589953
4	918	1838.925606987938	1.091495288804
4	921	1866.390277283599	3.336408054742
4	941	1936.383461631237	14.834573184575
4	942	1941.989418886424	16.904690777841
4	945	1971.444306804017	4.982478296483
4	960	2026.957807018443	30.515080783481
4	963	2028.415190911366	29.396685182715
4	964	2036.294300700093	33.160445512571
4	965	2036.580978605944	14.478770444022
4	966	2041.192149330057	14.207433803613
4	969	2043.980219981643	0.238790680647
4	972	2068.178767181883	0.142872179284
4	975	2074.415311990838	3.685783210305
4	981	2085.385469869407	1.530316523188
4	987	2096.558587617693	3.802051289368
4	993	2114.898834043557	7.110071217949
4	999	2146.190959886922	0.604959582465
4	1008	2164.654613470047	3.884670123558
4	1029	2204.037594112974	33.415990238953
4	1030	2206.628350178019	8.959125707975
4	1031	2207.381675807568	8.707302306381
4	1034	2210.688561520879	7.133846215914
4	1037	2213.825375975523	3.327059314556
4	1038	2214.730470037482	2.455548226073
4	1041	2219.83943058906	1.358846440352
4	1048	2226.582212861119	5.100373682499
4	1049	2233.296086659385	11.806805766446
4	1050	2234.869309171765	11.743336197132
4	1059	2271.228970464865	3.059754085197
4	1065	2284.028258395358	3.153365066079
4	1071	2306.547572201337	4.666533797309
4	1090	2326.415596989309	14.055682373434
4	1093	2328.094632809144	9.924474726678
4	1094	2331.883229870182	7.078388883547
4	1095	2333.357374939327	5.888960132619
4	1125	2371.747447628067	27.750542834218
4	1126	2373.156857790685	22.774250939207
4	1129	2374.846723095904	16.235143399082
4	1130	2378.20078101367	15.140243797643
4	1133	2381.928710971425	8.424101006165
4	1137	2383.639597711173	1.704920758421
4	1140	2386.246575507213	0.158803824247
4	1143	2398.026102139924	3.618303628227
4	1146	2407.572190966539	3.007041496152
4	1201	2481.51480071119	57.691385216058
4	1202	2482.557634638415	58.085491256423
4	1203	2485.89995420714	55.770300802112
4	1204	2485.974218597594	46.521211971066
4	1212	2495.164614029774	41.871266285623
4	1213	2495.233473434737	36.531009623727
4	1214	2497.505650493253	37.056096317779
5	173	368.958402505989	1
5	197	402.880317121656	1
5	199	402.959438767677	2
5	202	411.151057594791	2
5	205	425.50773619485	2
5	235	469.80224824894	1
5	245	503.294683776111	1
5	248	507.710655197798	1
5	254	526.672789580331	1
5	256	527.294692179906	2
5	269	552.879779829314	1
5	275	594.891439112898	1
5	283	601.794162164892	2
5	301	627.791762872973	1
5	313	677.757467272476	1
5	333	693.3263811353	1
5	344	718.401955800649	1
5	347	721.220745948366	1
5	359	736.862253510529	1
5	367	747.539614225181	1
5	369	750.606602021905	2
5	386	780.773926758294	1
5	396	790.1209739769	1
5	404	807.657632949454	1
5	410	830.082990056291	1
5	413	834.116293496415	1
5	422	845.77824134047	1
5	425	880.761697232639	1
5	431	892.145415789384	2
5	435	894.373028441513	1
5	455	913.607525755531	1
5	461	920.277206925292	2
5	469	934.672708179719	1
5	471	936.028935313202	2
5	485	957.048087016828	1
5	490	958.210082287997	1
5	497	976.587912042603	1
5	512	1005.590137975379	1
5	524	1038.308158018523	1
5	526	1038.545319263007	2
5	530	1053.293452183994	1
5	539	1072.225530406186	1
5	553	1120.086426183102	1
5	558	1128.152243321753	1
5	562	1135.843037619533	2
5	570	1152.246671720459	1
5	575	1154.142983468966	1
5	582	1162.317380905273	1
5	585	1169.470891429442	1
5	591	1180.063672947012	2
5	593	1182.484086536195	3
5	595	1184.083476601723	4
5	620	1219.368073518	2
5	647	1257.720377731584	1
5	649	1258.681009477602	2
5	656	1270.276931261535	1
5	662	1289.96228240382	1
5	666	1292.563411709023	2
5	671	1308.426570154145	1
5	680	1334.742141683582	1
5	692	1368.959044590421	1
5	695	1371.947207617954	1
5	701	1376.38378442529	1
5	713	1405.507827071999	1
5	734	1444.385113574848	1
5	745	1480.059721281932	1
5	749	1488.726294780898	1
5	752	1496.141136259839	1
5	770	1524.242338504501	1
5	776	1542.447631622299	1
5	780	1549.466082130356	2
5	797	1590.641998253917	1
5	812	1633.714350027253	1
5	845	1715.229752380084	1
5	849	1723.105769530319	2
5	851	1735.705584841452	3
5	853	1739.312436688954	4
5	878	1781.020742921571	1
5	880	1790.989767933443	2
5	886	1798.01125817734	1
5	889	1799.973669012292	1
5	892	1802.788611750136	1
5	914	1837.207809601665	1
5	923	1874.214819834976	1
5	926	1877.492323099577	1
5	929	1899.01190856079	1
5	931	1908.705791028292	2
5	938	1926.80487591959	2
5	947	1984.546275450773	1
5	950	1996.012842413922	1
5	979	2083.855153346219	1
5	983	2092.664060113132	1
5	989	2104.851380459965	1
5	995	2122.543875262575	1
5	1003	2157.532000019822	1
5	1006	2160.769943346489	1
5	1010	2166.560262012353	1
5	1012	2170.316721573153	2
5	1017	2188.511548646784	2
5	1022	2198.633767710102	2
5	1052	2245.259994245578	1
5	1055	2265.579539773758	1
5	1063	2280.874893329279	1
5	1067	2290.195761337989	1
5	1073	2308.037549004393	1
5	1075	2308.085742285505	2
5	1077	2308.887224526848	3
5	1088	2324.804840986635	1
5	1097	2333.642706438426	1
5	1099	2336.358455922297	2
5	1101	2338.017678787934	3
5	1103	2339.680804628958	4
5	1109	2346.97091279548	3
5	1114	2352.329510823868	3
5	1119	2360.360545668002	3
5	1135	2381.934676952752	1
5	1148	2411.664070294826	1
5	1150	2416.504309095825	2
5	1152	2417.319899226566	3
5	1154	2421.859081073032	4
5	1165	2433.0836491068	4
5	1172	2442.737002327712	2
5	1177	2450.301596221221	2
5	1182	2455.396158994061	2
5	1194	2475.635191458486	1
5	1198	2478.070608996934	2
5	1206	2486.574186514758	1
6	173	368.958402505989	0
6	174	369.649090577257	0
6	197	402.880317121656	0
6	199	402.959438767677	1
6	200	407.257921132158	1
6	202	411.151057594791	1
6	203	420.718396169104	1
6	205	425.50773619485	1
6	206	429.95195740122	1
6	209	441.627896713145	0
6	235	469.80224824894	0
6	236	475.117775537837	0
6	245	503.294683776111	0
6	246	504.377247529077	0
6	248	507.710655197798	0
6	251	515.720527275506	0
6	254	526.672789580331	0
6	256	527.294692179906	1
6	259	532.676271996549	1
6	260	539.374062984261	0
6	269	552.879779829314	0
6	270	553.003957688631	0
6	275	594.891439112898	0
6	283	601.794162164892	1
6	292	615.945001702458	1
6	293	616.68979712988	0
6	301	627.791762872973	0
6	306	654.625630111014	0
6	313	677.757467272476	0
6	316	680.039474309354	0
6	333	693.3263811353	0
6	336	702.359638337308	0
6	344	718.401955800649	0
6	345	719.4331825571	0
6	347	721.220745948366	0
6	348	721.373571456702	0
6	359	736.862253510529	0
6	364	745.399495423633	0
6	367	747.539614225181	0
6	369	750.606602021905	1
6	376	762.790665853454	1
6	377	773.022241909624	0
6	386	780.773926758294	0
6	387	783.949007821287	0
6	396	790.1209739769	0
6	397	792.65625548975	0
6	404	807.657632949454	0
6	405	808.919757363202	0
6	410	830.082990056291	0
6	411	832.386375478124	0
6	413	834.116293496415	0
6	416	835.485300751845	0
6	422	845.77824134047	0
6	423	846.488653992153	0
6	425	880.761697232639	0
6	431	892.145415789384	1
6	432	892.732486557241	1
6	433	893.258613163072	0
6	435	894.373028441513	0
6	436	895.384569176926	0
6	455	913.607525755531	0
6	461	920.277206925292	1
6	462	921.091437282854	1
6	465	930.036851251459	0
6	469	934.672708179719	0
6	471	936.028935313202	1
6	476	940.163607391477	1
6	477	944.123114887391	0
6	485	957.048087016828	0
6	486	957.391787966921	0
6	490	958.210082287997	0
6	493	967.385785422369	0
6	497	976.587912042603	0
6	500	980.509132262706	0
6	512	1005.590137975379	0
6	515	1005.86580367396	0
6	524	1038.308158018523	0
6	526	1038.545319263007	1
6	527	1041.389900049328	1
6	528	1047.215683044217	0
6	530	1053.293452183994	0
6	533	1064.59587190064	0
6	539	1072.225530406186	0
6	540	1075.730990983277	0
6	553	1120.086426183102	0
6	556	1127.678307300709	0
6	558	1128.152243321753	0
6	562	1135.843037619533	1
6	563	1141.82915156461	1
6	566	1147.357936936647	0
6	570	1152.246671720459	0
6	571	1152.67624584902	0
6	575	1154.142983468966	0
6	576	1158.965898451941	0
6	582	1162.317380905273	0
6	583	1166.553868271887	0
6	585	1169.470891429442	0
6	591	1180.063672947012	1
6	593	1182.484086536195	2
6	595	1184.083476601723	3
6	606	1187.338528241516	3
6	607	1191.090405407927	2
6	616	1216.998332061294	1
6	620	1219.368073518	1
6	621	1223.814480553119	1
6	622	1226.289908790479	0
6	647	1257.720377731584	0
6	649	1258.681009477602	1
6	650	1261.703758580964	1
6	651	1263.349390350418	0
6	656	1270.276931261535	0
6	657	1273.61974238996	0
6	662	1289.96228240382	0
6	666	1292.563411709023	1
6	667	1299.512924028597	1
6	668	1302.560194661688	0
6	671	1308.426570154145	0
6	672	1308.82139927295	0
6	680	1334.742141683582	0
6	681	1335.005875172629	0
6	692	1368.959044590421	0
6	693	1371.680195682276	0
6	695	1371.947207617954	0
6	696	1373.257545001288	0
6	701	1376.38378442529	0
6	704	1376.819355683919	0
6	713	1405.507827071999	0
6	714	1409.390599843234	0
6	734	1444.385113574848	0
6	735	1446.693512028967	0
6	745	1480.059721281932	0
6	746	1480.285575675863	0
6	749	1488.726294780898	0
6	750	1489.164187828068	0
6	752	1496.141136259839	0
6	753	1496.177242784147	0
6	770	1524.242338504501	0
6	771	1526.299508918292	0
6	776	1542.447631622299	0
6	780	1549.466082130356	1
6	785	1557.897921255192	1
6	788	1567.264697637146	0
6	797	1590.641998253917	0
6	800	1597.432483996252	0
6	812	1633.714350027253	0
6	815	1647.862956724556	0
6	845	1715.229752380084	0
6	849	1723.105769530319	1
6	851	1735.705584841452	2
6	853	1739.312436688954	3
6	854	1741.896634143356	3
6	857	1751.335888688934	2
6	858	1755.141093209773	1
6	861	1760.091828441276	0
6	878	1781.020742921571	0
6	880	1790.989767933443	1
6	881	1791.428577864885	1
6	882	1797.171541494627	0
6	886	1798.01125817734	0
6	887	1798.323316691176	0
6	889	1799.973669012292	0
6	890	1802.665315948635	0
6	892	1802.788611750136	0
6	895	1810.961873018311	0
6	914	1837.207809601665	0
6	917	1838.317243511958	0
6	923	1874.214819834976	0
6	924	1876.047754698317	0
6	926	1877.492323099577	0
6	927	1880.931092878543	0
6	929	1899.01190856079	0
6	931	1908.705791028292	1
6	934	1921.681220256307	1
6	938	1926.80487591959	1
6	939	1929.600336125825	1
6	940	1936.170831714355	0
6	947	1984.546275450773	0
6	948	1984.93598786273	0
6	950	1996.012842413922	0
6	959	2026.611420360976	0
6	979	2083.855153346219	0
6	980	2083.980858918901	0
6	983	2092.664060113132	0
6	986	2094.978942182193	0
6	989	2104.851380459965	0
6	992	2113.683750621754	0
6	995	2122.543875262575	0
6	996	2131.879740739824	0
6	1003	2157.532000019822	0
6	1004	2159.671638350068	0
6	1006	2160.769943346489	0
6	1007	2162.220871635631	0
6	1010	2166.560262012353	0
6	1012	2170.316721573153	1
6	1015	2173.807429606212	1
6	1017	2188.511548646784	1
6	1018	2191.916272034465	1
6	1022	2198.633767710102	1
6	1025	2199.876906271715	1
6	1026	2202.322373343154	0
6	1052	2245.259994245578	0
6	1053	2261.469835551054	0
6	1055	2265.579539773758	0
6	1058	2269.759731921816	0
6	1063	2280.874893329279	0
6	1064	2283.943132255925	0
6	1067	2290.195761337989	0
6	1068	2297.845686237654	0
6	1073	2308.037549004393	0
6	1075	2308.085742285505	1
6	1077	2308.887224526848	2
6	1080	2310.700645043384	2
6	1083	2313.49113644532	1
6	1086	2323.348074409003	0
6	1088	2324.804840986635	0
6	1089	2325.840753941522	0
6	1097	2333.642706438426	0
6	1099	2336.358455922297	1
6	1101	2338.017678787934	2
6	1103	2339.680804628958	3
6	1104	2342.318745940131	3
6	1105	2342.654534950739	2
6	1109	2346.97091279548	2
6	1110	2348.998460087315	2
6	1114	2352.329510823868	2
6	1115	2355.310789373847	2
6	1119	2360.360545668002	2
6	1122	2365.305777971319	2
6	1123	2365.551917026495	1
6	1124	2371.718852877566	0
6	1135	2381.934676952752	0
6	1136	2383.487809331709	0
6	1148	2411.664070294826	0
6	1150	2416.504309095825	1
6	1152	2417.319899226566	2
6	1154	2421.859081073032	3
6	1163	2430.605684787082	3
6	1165	2433.0836491068	3
6	1166	2434.274111190134	3
6	1167	2436.711773611034	2
6	1168	2438.72024873913	1
6	1172	2442.737002327712	1
6	1175	2446.762501350317	1
6	1177	2450.301596221221	1
6	1180	2454.591667690138	1
6	1182	2455.396158994061	1
6	1191	2472.546091630303	1
6	1192	2474.473721848499	0
6	1194	2475.635191458486	0
6	1198	2478.070608996934	1
6	1199	2478.077266674319	1
6	1200	2478.683906671853	0
6	1206	2486.574186514758	0
6	1211	2492.248997985291	0
7	173	368.958402505989	0
7	197	402.880317121656	0
7	200	407.257921132158	4.298482364481
7	203	420.718396169104	9.567338574313
7	206	429.95195740122	4.44422120637
7	235	469.80224824894	0
7	245	503.294683776111	0
7	248	507.710655197798	0
7	254	526.672789580331	0
7	259	532.676271996549	5.381579816643
7	269	552.879779829314	0
7	275	594.891439112898	0
7	292	615.945001702458	14.150839537566
7	301	627.791762872973	0
7	313	677.757467272476	0
7	333	693.3263811353	0
7	344	718.401955800649	0
7	347	721.220745948366	0
7	359	736.862253510529	0
7	367	747.539614225181	0
7	376	762.790665853454	12.184063831549
7	386	780.773926758294	0
7	396	790.1209739769	0
7	404	807.657632949454	0
7	410	830.082990056291	0
7	413	834.116293496415	0
7	422	845.77824134047	0
7	425	880.761697232639	0
7	432	892.732486557241	0.587070767857
7	435	894.373028441513	0
7	455	913.607525755531	0
7	462	921.091437282854	0.814230357562
7	469	934.672708179719	0
7	476	940.163607391477	4.134672078275
7	485	957.048087016828	0
7	490	958.210082287997	0
7	497	976.587912042603	0
7	512	1005.590137975379	0
7	524	1038.308158018523	0
7	527	1041.389900049328	2.844580786321
7	530	1053.293452183994	0
7	539	1072.225530406186	0
7	553	1120.086426183102	0
7	558	1128.152243321753	0
7	563	1141.82915156461	5.986113945077
7	570	1152.246671720459	0
7	575	1154.142983468966	0
7	582	1162.317380905273	0
7	585	1169.470891429442	0
7	606	1187.338528241516	7.274855294504
7	607	1191.090405407927	8.606318871732
7	616	1216.998332061294	32.914855459571
7	621	1223.814480553119	4.446407035119
7	647	1257.720377731584	0
7	650	1261.703758580964	3.022749103362
7	656	1270.276931261535	0
7	662	1289.96228240382	0
7	667	1299.512924028597	6.949512319574
7	671	1308.426570154145	0
7	680	1334.742141683582	0
7	692	1368.959044590421	0
7	695	1371.947207617954	0
7	701	1376.38378442529	0
7	713	1405.507827071999	0
7	734	1444.385113574848	0
7	745	1480.059721281932	0
7	749	1488.726294780898	0
7	752	1496.141136259839	0
7	770	1524.242338504501	0
7	776	1542.447631622299	0
7	785	1557.897921255192	8.431839124836
7	797	1590.641998253917	0
7	812	1633.714350027253	0
7	845	1715.229752380084	0
7	854	1741.896634143356	18.790864613037
7	857	1751.335888688934	15.630303847482
7	858	1755.141093209773	15.828656520819
7	878	1781.020742921571	0
7	881	1791.428577864885	0.438809931442
7	886	1798.01125817734	0
7	889	1799.973669012292	0
7	892	1802.788611750136	0
7	914	1837.207809601665	0
7	923	1874.214819834976	0
7	926	1877.492323099577	0
7	929	1899.01190856079	0
7	934	1921.681220256307	12.975429228015
7	939	1929.600336125825	2.795460206235
7	947	1984.546275450773	0
7	950	1996.012842413922	0
7	979	2083.855153346219	0
7	983	2092.664060113132	0
7	989	2104.851380459965	0
7	995	2122.543875262575	0
7	1003	2157.532000019822	0
7	1006	2160.769943346489	0
7	1010	2166.560262012353	0
7	1015	2173.807429606212	3.490708033059
7	1018	2191.916272034465	3.404723387681
7	1025	2199.876906271715	1.243138561613
7	1052	2245.259994245578	0
7	1055	2265.579539773758	0
7	1063	2280.874893329279	0
7	1067	2290.195761337989	0
7	1073	2308.037549004393	0
7	1080	2310.700645043384	2.614902757879
7	1083	2313.49113644532	4.603911918472
7	1088	2324.804840986635	0
7	1097	2333.642706438426	0
7	1104	2342.318745940131	5.960290017834
7	1105	2342.654534950739	4.636856162805
7	1110	2348.998460087315	9.317655458357
7	1115	2355.310789373847	8.339876578367
7	1122	2365.305777971319	12.976267147451
7	1123	2365.551917026495	5.191371358493
7	1135	2381.934676952752	0
7	1148	2411.664070294826	0
7	1163	2430.605684787082	14.101375691257
7	1166	2434.274111190134	16.954211963568
7	1167	2436.711773611034	14.852692538002
7	1168	2438.72024873913	5.63659963233
7	1175	2446.762501350317	4.025499022605
7	1180	2454.591667690138	4.290071468917
7	1191	2472.546091630303	17.149932636242
7	1194	2475.635191458486	0
7	1199	2478.077266674319	0.006657677385
7	1206	2486.574186514758	0
8	174	369.649090577257	23
8	200	407.257921132158	24
8	203	420.718396169104	25
8	206	429.95195740122	26
8	209	441.627896713145	27
8	236	475.117775537837	28
8	246	504.377247529077	29
8	251	515.720527275506	30
8	259	532.676271996549	31
8	260	539.374062984261	32
8	270	553.003957688631	33
8	292	615.945001702458	34
8	293	616.68979712988	35
8	306	654.625630111014	36
8	316	680.039474309354	37
8	336	702.359638337308	38
8	345	719.4331825571	39
8	348	721.373571456702	40
8	364	745.399495423633	41
8	376	762.790665853454	42
8	377	773.022241909624	43
8	387	783.949007821287	44
8	397	792.65625548975	45
8	405	808.919757363202	46
8	411	832.386375478124	47
8	416	835.485300751845	48
8	423	846.488653992153	49
8	432	892.732486557241	50
8	433	893.258613163072	51
8	436	895.384569176926	52
8	462	921.091437282854	53
8	465	930.036851251459	54
8	476	940.163607391477	55
8	477	944.123114887391	56
8	486	957.391787966921	57
8	493	967.385785422369	58
8	500	980.509132262706	59
8	515	1005.86580367396	60
8	527	1041.389900049328	61
8	528	1047.215683044217	62
8	533	1064.59587190064	63
8	540	1075.730990983277	64
8	556	1127.678307300709	65
8	563	1141.82915156461	66
8	566	1147.357936936647	67
8	571	1152.67624584902	68
8	576	1158.965898451941	69
8	583	1166.553868271887	70
8	606	1187.338528241516	71
8	607	1191.090405407927	72
8	616	1216.998332061294	73
8	621	1223.814480553119	74
8	622	1226.289908790479	75
8	650	1261.703758580964	76
8	651	1263.349390350418	77
8	657	1273.61974238996	78
8	667	1299.512924028597	79
8	668	1302.560194661688	80
8	672	1308.82139927295	81
8	681	1335.005875172629	82
8	693	1371.680195682276	83
8	696	1373.257545001288	84
8	704	1376.819355683919	85
8	714	1409.390599843234	86
8	735	1446.693512028967	87
8	746	1480.285575675863	88
8	750	1489.164187828068	89
8	753	1496.177242784147	90
8	771	1526.299508918292	91
8	785	1557.897921255192	92
8	788	1567.264697637146	93
8	800	1597.432483996252	94
8	815	1647.862956724556	95
8	854	1741.896634143356	96
8	857	1751.335888688934	97
8	858	1755.141093209773	98
8	861	1760.091828441276	99
8	881	1791.428577864885	100
8	882	1797.171541494627	101
8	887	1798.323316691176	102
8	890	1802.665315948635	103
8	895	1810.961873018311	104
8	917	1838.317243511958	105
8	924	1876.047754698317	106
8	927	1880.931092878543	107
8	934	1921.681220256307	108
8	939	1929.600336125825	109
8	940	1936.170831714355	110
8	948	1984.93598786273	111
8	959	2026.611420360976	112
8	980	2083.980858918901	113
8	986	2094.978942182193	114
8	992	2113.683750621754	115
8	996	2131.879740739824	116
8	1004	2159.671638350068	117
8	1007	2162.220871635631	118
8	1015	2173.807429606212	119
8	1018	2191.916272034465	120
8	1025	2199.876906271715	121
8	1026	2202.322373343154	122
8	1053	2261.469835551054	123
8	1058	2269.759731921816	124
8	1064	2283.943132255925	125
8	1068	2297.845686237654	126
8	1080	2310.700645043384	127
8	1083	2313.49113644532	128
8	1086	2323.348074409003	129
8	1089	2325.840753941522	130
8	1104	2342.318745940131	131
8	1105	2342.654534950739	132
8	1110	2348.998460087315	133
8	1115	2355.310789373847	134
8	1122	2365.305777971319	135
8	1123	2365.551917026495	136
8	1124	2371.718852877566	137
8	1136	2383.487809331709	138
8	1163	2430.605684787082	139
8	1166	2434.274111190134	140
8	1167	2436.711773611034	141
8	1168	2438.72024873913	142
8	1175	2446.762501350317	143
8	1180	2454.591667690138	144
8	1191	2472.546091630303	145
8	1192	2474.473721848499	146
8	1199	2478.077266674319	147
8	1200	2478.683906671853	148
8	1211	2492.248997985291	149
9	174	369.649090577257	0.690688071268
9	200	407.257921132158	4.377604010502
9	203	420.718396169104	17.758957401427
9	206	429.95195740122	18.800899806429
9	209	441.627896713145	16.120160518295
9	236	475.117775537837	5.315527288897
9	246	504.377247529077	1.082563752966
9	251	515.720527275506	8.009872077708
9	259	532.676271996549	6.003482416218
9	260	539.374062984261	12.079370804355
9	270	553.003957688631	0.124177859317
9	292	615.945001702458	21.05356258956
9	293	616.68979712988	14.895634964988
9	306	654.625630111014	26.833867238041
9	316	680.039474309354	2.282007036878
9	336	702.359638337308	9.033257202008
9	345	719.4331825571	1.031226756451
9	348	721.373571456702	0.152825508336
9	364	745.399495423633	8.537241913104
9	376	762.790665853454	15.251051628273
9	377	773.022241909624	22.415639887719
9	387	783.949007821287	3.175081062993
9	397	792.65625548975	2.53528151285
9	405	808.919757363202	1.262124413748
9	411	832.386375478124	2.303385421833
9	416	835.485300751845	1.36900725543
9	423	846.488653992153	0.710412651683
9	432	892.732486557241	11.970789324602
9	433	893.258613163072	1.113197373688
9	436	895.384569176926	1.011540735413
9	462	921.091437282854	7.483911527323
9	465	930.036851251459	9.759644326167
9	476	940.163607391477	5.490899211758
9	477	944.123114887391	8.094179574189
9	486	957.391787966921	0.343700950093
9	493	967.385785422369	9.175703134372
9	500	980.509132262706	3.921220220103
9	515	1005.86580367396	0.275665698581
9	527	1041.389900049328	3.081742030805
9	528	1047.215683044217	8.67036378121
9	533	1064.59587190064	11.302419716646
9	540	1075.730990983277	3.505460577091
9	556	1127.678307300709	7.591881117607
9	563	1141.82915156461	13.676908242857
9	566	1147.357936936647	11.514899317114
9	571	1152.67624584902	0.429574128561
9	576	1158.965898451941	4.822914982975
9	583	1166.553868271887	4.236487366614
9	606	1187.338528241516	17.867636812074
9	607	1191.090405407927	11.026732460915
9	616	1216.998332061294	34.514245525099
9	621	1223.814480553119	39.731003951396
9	622	1226.289908790479	6.921835272479
9	650	1261.703758580964	3.98338084938
9	651	1263.349390350418	4.668380872816
9	657	1273.61974238996	3.342811128425
9	667	1299.512924028597	9.550641624777
9	668	1302.560194661688	9.996782952665
9	672	1308.82139927295	0.394829118805
9	681	1335.005875172629	0.263733489047
9	693	1371.680195682276	2.721151091855
9	696	1373.257545001288	1.310337383334
9	704	1376.819355683919	0.435571258629
9	714	1409.390599843234	3.882772771235
9	735	1446.693512028967	2.308398454119
9	746	1480.285575675863	0.225854393931
9	750	1489.164187828068	0.43789304717
9	753	1496.177242784147	0.036106524308
9	771	1526.299508918292	2.057170413791
9	785	1557.897921255192	15.450289632893
9	788	1567.264697637146	17.79861550679
9	800	1597.432483996252	6.790485742335
9	815	1647.862956724556	14.148606697303
9	854	1741.896634143356	26.666881763272
9	857	1751.335888688934	28.230119158615
9	858	1755.141093209773	19.435508368321
9	861	1760.091828441276	20.779391752322
9	881	1791.428577864885	10.407834943314
9	882	1797.171541494627	6.181773561184
9	887	1798.323316691176	0.312058513836
9	890	1802.665315948635	2.691646936343
9	895	1810.961873018311	8.173261268175
9	917	1838.317243511958	1.109433910293
9	924	1876.047754698317	1.832934863341
9	927	1880.931092878543	3.438769778966
9	934	1921.681220256307	22.669311695517
9	939	1929.600336125825	20.894545097533
9	940	1936.170831714355	9.365955794765
9	948	1984.93598786273	0.389712411957
9	959	2026.611420360976	30.598577947054
9	980	2083.980858918901	0.125705572682
9	986	2094.978942182193	2.314882069061
9	992	2113.683750621754	8.832370161789
9	996	2131.879740739824	9.335865477249
9	1004	2159.671638350068	2.139638330246
9	1007	2162.220871635631	1.450928289142
9	1015	2173.807429606212	7.247167593859
9	1018	2191.916272034465	21.599550461312
9	1025	2199.876906271715	11.365357624931
9	1026	2202.322373343154	3.688605633052
9	1053	2261.469835551054	16.209841305476
9	1058	2269.759731921816	4.180192148058
9	1064	2283.943132255925	3.068238926646
9	1068	2297.845686237654	7.649924899665
9	1080	2310.700645043384	2.663096038991
9	1083	2313.49113644532	5.405394159815
9	1086	2323.348074409003	14.460849882155
9	1089	2325.840753941522	1.035912954887
9	1104	2342.318745940131	8.676039501705
9	1105	2342.654534950739	6.296079028442
9	1110	2348.998460087315	10.980781299381
9	1115	2355.310789373847	15.629984744889
9	1122	2365.305777971319	18.334865175839
9	1123	2365.551917026495	13.222406202627
9	1124	2371.718852877566	11.358307209564
9	1136	2383.487809331709	1.553132378957
9	1163	2430.605684787082	18.941614492256
9	1166	2434.274111190134	17.769802094309
9	1167	2436.711773611034	19.391874384468
9	1168	2438.72024873913	16.861167666098
9	1175	2446.762501350317	13.678852243517
9	1180	2454.591667690138	11.854665362426
9	1191	2472.546091630303	22.244495409082
9	1192	2474.473721848499	19.077562854438
9	1199	2478.077266674319	2.442075215833
9	1200	2478.683906671853	0.613297674919
9	1211	2492.248997985291	5.674811470533
10	235	469.80224824894	4
10	301	627.791762872973	5
10	313	677.757467272476	6
10	333	693.3263811353	7
10	367	747.539614225181	8
10	396	790.1209739769	9
10	435	894.373028441513	10
10	469	934.672708179719	11
10	490	958.210082287997	12
10	553	1120.086426183102	13
10	558	1128.152243321753	14
10	570	1152.246671720459	15
10	575	1154.142983468966	16
10	582	1162.317380905273	17
10	585	1169.470891429442	18
10	745	1480.059721281932	19
10	886	1798.01125817734	20
10	889	1799.973669012292	21
10	892	1802.788611750136	22
10	979	2083.855153346219	23
10	1003	2157.532000019822	24
10	1006	2160.769943346489	25
10	1063	2280.874893329279	26
10	1088	2324.804840986635	27
10	1135	2381.934676952752	28
10	1194	2475.635191458486	29
10	1206	2486.574186514758	30
11	1215	2500	0.1004
12	1215	2500	0.0596

