file 61269 1678273371                                           
version 2
run experiments_easy_game_mode1-273-20230308-12:02:51-19770
attr configname experiments_easy_game_mode1
attr datetime 20230308-12:02:51
attr experiment experiments_easy_game_mode1
attr inifile omnetpp.ini
attr iterationvars "$0=5, $1=3, $2=100"
attr iterationvarsf 5,3,100-
attr measurement "$0=5, $1=3, $2=100"
attr network Network
attr processid 19770
attr repetition 3
attr replication #3
attr resultdir results
attr runnumber 273
attr seedset 3
param *.boss.arrival_mean 20
param *.boss.service_mean 5
param *.minion.arrival_mean 10
param *.minion.service_mean 3
param *.player.recover_rate_x 100
param **.minion.arrival_distribution 0
param **.minion.service_distribution 0
param **.boss.arrival_distribution 0
param **.boss.service_distribution 0

vector 0 Network.player boss_defeated_stat:vector ETV
attr source signal_boss_defeated
vector 1 Network.player boss_jobs_queue_number_stat:vector ETV
attr source signal_boss_jobs_queue_number
vector 2 Network.player boss_response_time_stat:vector ETV
attr source signal_boss_response_time
vector 3 Network.player minion_jobs_number_stat:vector ETV
attr source signal_minion_jobs_number
vector 4 Network.player minion_jobs_queue_number_stat:vector ETV
attr source signal_minion_jobs_queue_number
vector 5 Network.player minion_waiting_time_stat:vector ETV
attr source signal_minion_waiting_time
vector 6 Network.player minion_defeated_stat:vector ETV
attr source signal_minion_defeated
vector 7 Network.player minion_response_time_stat:vector ETV
attr source signal_minion_response_time
vector 8 Network.player boss_jobs_number_stat:vector ETV
attr source signal_boss_jobs_number
vector 9 Network.player minion_recovered_stat:vector ETV
attr source signal_minion_recovered
vector 10 Network.player boss_waiting_time_stat:vector ETV
attr source signal_boss_waiting_time
vector 11 Network.player minion_throughput:vector ETV
attr source signal_minion_throughput
vector 12 Network.player boss_throughput:vector ETV
attr source signal_boss_throughput
0	2010 2526 159 1125 358.107273479916 2476.317149386508 94 20 113 6251 484899
1	4536 4807 159 1125 358.107273479916 2476.317149386508 187 0 4 96 192
2	9343 3658 159 1125 358.107273479916 2476.317149386508 94 0.156192598532 38.957011736071 745.18047990294 13337.304517788
3	13001 6039 161 1139 361.339663494602 2499.804357768263 234 1 9 454 1364
4	19040 12044 161 1139 361.339663494602 2499.804357768263 467 0 8 440 1380
5	31084 8672 161 1139 361.339663494602 2499.804357768263 261 0 52.517598882893 1357.719363667 26792.726049987
6	39756 6405 162 1137 363.60840644636 2497.967116598139 233 34 266 34950 6296592
7	46161 9078 162 1137 363.60840644636 2497.967116598139 233 3.6114346e-05 55.04537321603 1880.5805800329 35839.529549607
8	55239 2389 169 1113 380.659473743649 2458.010288498061 93 1 5 141 285
9	57628 719 169 1041 380.659473743649 2312.094400186417 27 10 36 621 15921
10	58347 2881 169 1122 380.659473743649 2468.470880738175 93 0 36.623836807113 299.79567010341 5964.7788745474
11	61228 20 1140 1140 2500 2500 1 0.1064 0.1064 0.1064 0.01132096
12	61248 20 1140 1140 2500 2500 1 0.0452 0.0452 0.0452 0.00204304

