version 2
run experiments_easy_game_mode1-449-20230308-12:03:28-20653
attr configname experiments_easy_game_mode1
attr datetime 20230308-12:03:28
attr experiment experiments_easy_game_mode1
attr inifile omnetpp.ini
attr iterationvars "$0=5.5, $1=1.5, $2=0"
attr iterationvarsf 5.5,1.5,0-
attr measurement "$0=5.5, $1=1.5, $2=0"
attr network Network
attr processid 20653
attr repetition 29
attr replication #29
attr resultdir results
attr runnumber 449
attr seedset 29
param *.boss.arrival_mean 20
param *.boss.service_mean 5.5
param *.minion.arrival_mean 10
param *.minion.service_mean 1.5
param *.player.recover_rate_x 0
param **.minion.arrival_distribution 0
param **.minion.service_distribution 0
param **.boss.arrival_distribution 0
param **.boss.service_distribution 0

vector 0 Network.player boss_jobs_number_stat:vector ETV
attr source signal_boss_jobs_number
vector 1 Network.player boss_jobs_queue_number_stat:vector ETV
attr source signal_boss_jobs_queue_number
vector 2 Network.player boss_waiting_time_stat:vector ETV
attr source signal_boss_waiting_time
vector 3 Network.player boss_defeated_stat:vector ETV
attr source signal_boss_defeated
vector 4 Network.player boss_response_time_stat:vector ETV
attr source signal_boss_response_time
vector 5 Network.player minion_jobs_number_stat:vector ETV
attr source signal_minion_jobs_number
vector 6 Network.player minion_jobs_queue_number_stat:vector ETV
attr source signal_minion_jobs_queue_number
vector 7 Network.player minion_waiting_time_stat:vector ETV
attr source signal_minion_waiting_time
vector 8 Network.player minion_defeated_stat:vector ETV
attr source signal_minion_defeated
vector 9 Network.player minion_response_time_stat:vector ETV
attr source signal_minion_response_time
vector 10 Network.player minion_recovered_stat:vector ETV
attr source signal_minion_recovered
vector 11 Network.player minion_throughput:vector ETV
attr source signal_minion_throughput
vector 12 Network.player boss_throughput:vector ETV
attr source signal_boss_throughput
0	149	361.021825549164	1
0	152	377.990665820572	1
0	154	378.253915431294	2
0	167	422.009642860919	1
0	171	440.507768153143	2
0	194	523.73951392862	1
0	197	530.555131859566	1
0	202	545.373125084985	1
0	218	589.35608943426	1
0	221	610.291214639623	1
0	224	615.800908427453	1
0	254	652.662135001111	1
0	259	662.997675276741	1
0	266	681.988222083014	1
0	284	722.609711117216	1
0	287	742.368989217759	1
0	290	751.111928766331	1
0	317	799.632860009152	1
0	329	814.853493710681	1
0	347	860.107364097815	1
0	350	863.381446274853	1
0	353	873.232163967375	1
0	355	875.141813991404	2
0	365	896.29040962463	1
0	372	900.777193276199	1
0	394	924.490335754125	1
0	398	944.436092298924	1
0	401	951.47929612701	1
0	431	1011.77198842037	1
0	434	1012.512646375906	1
0	448	1038.37111930574	1
0	487	1124.687148995609	1
0	493	1134.14472775205	1
0	495	1136.014676504768	2
0	500	1150.696087075246	2
0	506	1163.995141988292	1
0	508	1164.834707420463	2
0	512	1175.182035494463	1
0	521	1230.359838712003	1
0	536	1257.761287405401	1
0	542	1277.139323562446	1
0	546	1284.576761460268	2
0	554	1290.546818596825	3
0	556	1290.626256761703	4
0	558	1295.97049487972	5
0	564	1303.980580883593	4
0	568	1309.463716143574	5
0	584	1347.514072646773	1
0	602	1388.786029090884	1
0	605	1400.099639158162	1
0	623	1448.468959825449	1
0	644	1540.065042446857	1
0	659	1583.325883925548	1
0	661	1586.275170027452	2
0	671	1613.626189748491	1
0	673	1614.26675634966	2
0	677	1628.988584949879	1
0	679	1633.042512394715	2
0	692	1654.225093828105	1
0	695	1663.525897776844	1
0	724	1734.077240528806	1
0	740	1749.437982594428	1
0	755	1799.40592340194	1
0	770	1818.494866855502	1
0	782	1844.445977291195	1
0	785	1857.169951238713	1
0	788	1865.263090597383	1
0	791	1870.89228262137	1
0	794	1874.166523009959	1
0	796	1875.969531453931	2
0	803	1894.574768464284	1
0	830	1956.269871227903	1
0	832	1958.634551972986	2
0	847	1983.36840924784	1
0	854	2008.698798874346	1
0	869	2040.337147864579	1
0	884	2060.761979702989	1
0	890	2072.43993907191	1
0	905	2125.454313612626	1
0	917	2161.780818154514	1
0	921	2164.572453140033	2
0	923	2165.34997202045	3
0	932	2184.469118021856	1
0	938	2206.677665640295	1
0	943	2213.274337973245	1
0	947	2217.002569442759	1
0	950	2221.137838314775	1
0	971	2272.148163070228	1
0	973	2275.806883192869	2
0	980	2280.659867074338	1
0	983	2285.193654503639	1
0	986	2296.706842502531	1
0	990	2299.904511665169	2
0	995	2307.946249155461	2
0	1018	2328.895385620355	1
0	1021	2339.416810040685	1
0	1023	2339.425908011321	2
0	1028	2342.523346328393	1
0	1034	2367.255355255618	1
0	1055	2436.401942894968	1
0	1064	2455.75371522284	1
1	149	361.021825549164	0
1	150	362.786632213461	0
1	152	377.990665820572	0
1	154	378.253915431294	1
1	157	380.986537090338	1
1	158	383.839430301011	0
1	167	422.009642860919	0
1	171	440.507768153143	1
1	174	445.921158019473	1
1	175	447.099357768184	0
1	194	523.73951392862	0
1	195	524.260139162637	0
1	197	530.555131859566	0
1	198	532.231779315939	0
1	202	545.373125084985	0
1	203	546.089339872012	0
1	218	589.35608943426	0
1	219	607.76018740461	0
1	221	610.291214639623	0
1	222	614.558964910306	0
1	224	615.800908427453	0
1	227	619.34780824825	0
1	254	652.662135001111	0
1	257	661.323361337397	0
1	259	662.997675276741	0
1	260	667.406463761028	0
1	266	681.988222083014	0
1	269	684.670159036511	0
1	284	722.609711117216	0
1	285	723.551052853445	0
1	287	742.368989217759	0
1	288	744.551493429282	0
1	290	751.111928766331	0
1	291	753.48675970839	0
1	317	799.632860009152	0
1	318	799.876571908162	0
1	329	814.853493710681	0
1	330	826.521825061185	0
1	347	860.107364097815	0
1	348	862.380810736273	0
1	350	863.381446274853	0
1	351	866.899503107554	0
1	353	873.232163967375	0
1	355	875.141813991404	1
1	356	877.541039566092	1
1	359	885.376015373162	0
1	365	896.29040962463	0
1	370	900.716971788142	0
1	372	900.777193276199	0
1	373	905.851573935936	0
1	394	924.490335754125	0
1	395	931.434466056984	0
1	398	944.436092298924	0
1	399	950.120318356815	0
1	401	951.47929612701	0
1	406	956.047763903404	0
1	431	1011.77198842037	0
1	432	1012.020000435246	0
1	434	1012.512646375906	0
1	437	1017.538123794198	0
1	448	1038.37111930574	0
1	451	1044.508588278975	0
1	487	1124.687148995609	0
1	490	1133.21104872466	0
1	493	1134.14472775205	0
1	495	1136.014676504768	1
1	496	1142.81341454731	1
1	500	1150.696087075246	1
1	501	1153.792550573422	1
1	502	1156.573902163013	0
1	506	1163.995141988292	0
1	508	1164.834707420463	1
1	509	1172.982969807271	1
1	510	1174.194741921933	0
1	512	1175.182035494463	0
1	513	1176.869468466831	0
1	521	1230.359838712003	0
1	522	1231.210157585901	0
1	536	1257.761287405401	0
1	539	1262.514530763819	0
1	542	1277.139323562446	0
1	546	1284.576761460268	1
1	554	1290.546818596825	2
1	556	1290.626256761703	3
1	558	1295.97049487972	4
1	561	1297.929494209483	4
1	562	1298.732761787843	3
1	564	1303.980580883593	3
1	568	1309.463716143574	4
1	569	1315.283480677678	4
1	570	1319.991522061015	3
1	575	1328.742596978838	2
1	576	1328.982658291448	1
1	581	1344.381811157403	0
1	584	1347.514072646773	0
1	589	1356.761416001839	0
1	602	1388.786029090884	0
1	603	1390.284585593176	0
1	605	1400.099639158162	0
1	606	1401.954084528557	0
1	623	1448.468959825449	0
1	626	1457.223438114447	0
1	644	1540.065042446857	0
1	647	1556.210871461234	0
1	659	1583.325883925548	0
1	661	1586.275170027452	1
1	662	1586.987574430528	1
1	667	1596.604003362476	0
1	671	1613.626189748491	0
1	673	1614.26675634966	1
1	674	1619.646309411863	1
1	675	1619.88372924904	0
1	677	1628.988584949879	0
1	679	1633.042512394715	1
1	680	1635.941128881674	1
1	683	1638.701137529901	0
1	692	1654.225093828105	0
1	693	1655.640756457872	0
1	695	1663.525897776844	0
1	698	1665.52839162615	0
1	724	1734.077240528806	0
1	729	1741.61437943537	0
1	740	1749.437982594428	0
1	743	1757.46404329317	0
1	755	1799.40592340194	0
1	760	1801.693142653193	0
1	770	1818.494866855502	0
1	771	1818.941784578863	0
1	782	1844.445977291195	0
1	783	1845.032355299924	0
1	785	1857.169951238713	0
1	786	1860.980366264863	0
1	788	1865.263090597383	0
1	789	1865.611024923776	0
1	791	1870.89228262137	0
1	792	1873.849855477813	0
1	794	1874.166523009959	0
1	796	1875.969531453931	1
1	797	1876.81247187224	1
1	798	1883.746909292324	0
1	803	1894.574768464284	0
1	808	1901.120155529902	0
1	830	1956.269871227903	0
1	832	1958.634551972986	1
1	835	1962.095582917304	1
1	842	1977.511665961438	0
1	847	1983.36840924784	0
1	848	1985.621857842916	0
1	854	2008.698798874346	0
1	855	2012.267313546351	0
1	869	2040.337147864579	0
1	874	2042.656221139385	0
1	884	2060.761979702989	0
1	887	2067.237020348462	0
1	890	2072.43993907191	0
1	891	2074.018889791622	0
1	905	2125.454313612626	0
1	906	2134.303113617609	0
1	917	2161.780818154514	0
1	921	2164.572453140033	1
1	923	2165.34997202045	2
1	924	2165.997813192405	2
1	925	2169.55034439533	1
1	926	2175.02594031517	0
1	932	2184.469118021856	0
1	933	2187.975343053311	0
1	938	2206.677665640295	0
1	939	2207.966639619254	0
1	943	2213.274337973245	0
1	944	2215.90419298033	0
1	947	2217.002569442759	0
1	948	2217.720689590021	0
1	950	2221.137838314775	0
1	957	2240.78858621391	0
1	971	2272.148163070228	0
1	973	2275.806883192869	1
1	974	2276.174405580621	1
1	977	2278.140203225768	0
1	980	2280.659867074338	0
1	981	2281.287618201779	0
1	983	2285.193654503639	0
1	984	2289.658162488954	0
1	986	2296.706842502531	0
1	990	2299.904511665169	1
1	993	2307.280408490981	1
1	995	2307.946249155461	1
1	998	2309.382253058336	1
1	999	2309.925806821377	0
1	1018	2328.895385620355	0
1	1019	2337.686419828908	0
1	1021	2339.416810040685	0
1	1023	2339.425908011321	1
1	1024	2340.931700177762	1
1	1025	2341.153598801891	0
1	1028	2342.523346328393	0
1	1031	2350.355558492962	0
1	1034	2367.255355255618	0
1	1035	2370.083591908364	0
1	1055	2436.401942894968	0
1	1060	2440.542987959397	0
1	1064	2455.75371522284	0
1	1065	2456.0399330524	0
2	149	361.021825549164	0
2	152	377.990665820572	0
2	157	380.986537090338	2.732621659044
2	167	422.009642860919	0
2	174	445.921158019473	5.41338986633
2	194	523.73951392862	0
2	197	530.555131859566	0
2	202	545.373125084985	0
2	218	589.35608943426	0
2	221	610.291214639623	0
2	224	615.800908427453	0
2	254	652.662135001111	0
2	259	662.997675276741	0
2	266	681.988222083014	0
2	284	722.609711117216	0
2	287	742.368989217759	0
2	290	751.111928766331	0
2	317	799.632860009152	0
2	329	814.853493710681	0
2	347	860.107364097815	0
2	350	863.381446274853	0
2	353	873.232163967375	0
2	356	877.541039566092	2.399225574688
2	365	896.29040962463	0
2	372	900.777193276199	0
2	394	924.490335754125	0
2	398	944.436092298924	0
2	401	951.47929612701	0
2	431	1011.77198842037	0
2	434	1012.512646375906	0
2	448	1038.37111930574	0
2	487	1124.687148995609	0
2	493	1134.14472775205	0
2	496	1142.81341454731	6.798738042542
2	501	1153.792550573422	3.096463498176
2	506	1163.995141988292	0
2	509	1172.982969807271	8.148262386808
2	512	1175.182035494463	0
2	521	1230.359838712003	0
2	536	1257.761287405401	0
2	542	1277.139323562446	0
2	561	1297.929494209483	13.352732749215
2	562	1298.732761787843	8.185943191018
2	569	1315.283480677678	24.657223915975
2	570	1319.991522061015	24.021027181295
2	575	1328.742596978838	24.762016095245
2	576	1328.982658291448	19.518942147874
2	584	1347.514072646773	0
2	602	1388.786029090884	0
2	605	1400.099639158162	0
2	623	1448.468959825449	0
2	644	1540.065042446857	0
2	659	1583.325883925548	0
2	662	1586.987574430528	0.712404403076
2	671	1613.626189748491	0
2	674	1619.646309411863	5.379553062203
2	677	1628.988584949879	0
2	680	1635.941128881674	2.898616486959
2	692	1654.225093828105	0
2	695	1663.525897776844	0
2	724	1734.077240528806	0
2	740	1749.437982594428	0
2	755	1799.40592340194	0
2	770	1818.494866855502	0
2	782	1844.445977291195	0
2	785	1857.169951238713	0
2	788	1865.263090597383	0
2	791	1870.89228262137	0
2	794	1874.166523009959	0
2	797	1876.81247187224	0.842940418309
2	803	1894.574768464284	0
2	830	1956.269871227903	0
2	835	1962.095582917304	3.461030944318
2	847	1983.36840924784	0
2	854	2008.698798874346	0
2	869	2040.337147864579	0
2	884	2060.761979702989	0
2	890	2072.43993907191	0
2	905	2125.454313612626	0
2	917	2161.780818154514	0
2	924	2165.997813192405	1.425360052372
2	925	2169.55034439533	4.20037237488
2	932	2184.469118021856	0
2	938	2206.677665640295	0
2	943	2213.274337973245	0
2	947	2217.002569442759	0
2	950	2221.137838314775	0
2	971	2272.148163070228	0
2	974	2276.174405580621	0.367522387752
2	980	2280.659867074338	0
2	983	2285.193654503639	0
2	986	2296.706842502531	0
2	993	2307.280408490981	7.375896825812
2	998	2309.382253058336	1.436003902875
2	1018	2328.895385620355	0
2	1021	2339.416810040685	0
2	1024	2340.931700177762	1.505792166441
2	1028	2342.523346328393	0
2	1034	2367.255355255618	0
2	1055	2436.401942894968	0
2	1064	2455.75371522284	0
3	150	362.786632213461	14
3	157	380.986537090338	15
3	158	383.839430301011	16
3	174	445.921158019473	17
3	175	447.099357768184	18
3	195	524.260139162637	19
3	198	532.231779315939	20
3	203	546.089339872012	21
3	219	607.76018740461	22
3	222	614.558964910306	23
3	227	619.34780824825	24
3	257	661.323361337397	25
3	260	667.406463761028	26
3	269	684.670159036511	27
3	285	723.551052853445	28
3	288	744.551493429282	29
3	291	753.48675970839	30
3	318	799.876571908162	31
3	330	826.521825061185	32
3	348	862.380810736273	33
3	351	866.899503107554	34
3	356	877.541039566092	35
3	359	885.376015373162	36
3	370	900.716971788142	37
3	373	905.851573935936	38
3	395	931.434466056984	39
3	399	950.120318356815	40
3	406	956.047763903404	41
3	432	1012.020000435246	42
3	437	1017.538123794198	43
3	451	1044.508588278975	44
3	490	1133.21104872466	45
3	496	1142.81341454731	46
3	501	1153.792550573422	47
3	502	1156.573902163013	48
3	509	1172.982969807271	49
3	510	1174.194741921933	50
3	513	1176.869468466831	51
3	522	1231.210157585901	52
3	539	1262.514530763819	53
3	561	1297.929494209483	54
3	562	1298.732761787843	55
3	569	1315.283480677678	56
3	570	1319.991522061015	57
3	575	1328.742596978838	58
3	576	1328.982658291448	59
3	581	1344.381811157403	60
3	589	1356.761416001839	61
3	603	1390.284585593176	62
3	606	1401.954084528557	63
3	626	1457.223438114447	64
3	647	1556.210871461234	65
3	662	1586.987574430528	66
3	667	1596.604003362476	67
3	674	1619.646309411863	68
3	675	1619.88372924904	69
3	680	1635.941128881674	70
3	683	1638.701137529901	71
3	693	1655.640756457872	72
3	698	1665.52839162615	73
3	729	1741.61437943537	74
3	743	1757.46404329317	75
3	760	1801.693142653193	76
3	771	1818.941784578863	77
3	783	1845.032355299924	78
3	786	1860.980366264863	79
3	789	1865.611024923776	80
3	792	1873.849855477813	81
3	797	1876.81247187224	82
3	798	1883.746909292324	83
3	808	1901.120155529902	84
3	835	1962.095582917304	85
3	842	1977.511665961438	86
3	848	1985.621857842916	87
3	855	2012.267313546351	88
3	874	2042.656221139385	89
3	887	2067.237020348462	90
3	891	2074.018889791622	91
3	906	2134.303113617609	92
3	924	2165.997813192405	93
3	925	2169.55034439533	94
3	926	2175.02594031517	95
3	933	2187.975343053311	96
3	939	2207.966639619254	97
3	944	2215.90419298033	98
3	948	2217.720689590021	99
3	957	2240.78858621391	100
3	974	2276.174405580621	101
3	977	2278.140203225768	102
3	981	2281.287618201779	103
3	984	2289.658162488954	104
3	993	2307.280408490981	105
3	998	2309.382253058336	106
3	999	2309.925806821377	107
3	1019	2337.686419828908	108
3	1024	2340.931700177762	109
3	1025	2341.153598801891	110
3	1031	2350.355558492962	111
3	1035	2370.083591908364	112
3	1060	2440.542987959397	113
3	1065	2456.0399330524	114
4	150	362.786632213461	1.764806664297
4	157	380.986537090338	2.995871269766
4	158	383.839430301011	5.585514869717
4	174	445.921158019473	23.911515158554
4	175	447.099357768184	6.591589615041
4	195	524.260139162637	0.520625234017
4	198	532.231779315939	1.676647456373
4	203	546.089339872012	0.716214787027
4	219	607.76018740461	18.40409797035
4	222	614.558964910306	4.267750270683
4	227	619.34780824825	3.546899820797
4	257	661.323361337397	8.661226336286
4	260	667.406463761028	4.408788484287
4	269	684.670159036511	2.681936953497
4	285	723.551052853445	0.941341736229
4	288	744.551493429282	2.182504211523
4	291	753.48675970839	2.374830942059
4	318	799.876571908162	0.24371189901
4	330	826.521825061185	11.668331350504
4	348	862.380810736273	2.273446638458
4	351	866.899503107554	3.518056832701
4	356	877.541039566092	4.308875598717
4	359	885.376015373162	10.234201381758
4	370	900.716971788142	4.426562163512
4	373	905.851573935936	5.074380659737
4	395	931.434466056984	6.944130302859
4	399	950.120318356815	5.684226057891
4	406	956.047763903404	4.568467776394
4	432	1012.020000435246	0.248012014876
4	437	1017.538123794198	5.025477418292
4	451	1044.508588278975	6.137468973235
4	490	1133.21104872466	8.523899729051
4	496	1142.81341454731	8.66868679526
4	501	1153.792550573422	17.777874068654
4	502	1156.573902163013	5.877815087767
4	509	1172.982969807271	8.987827818979
4	510	1174.194741921933	9.36003450147
4	513	1176.869468466831	1.687432972368
4	522	1231.210157585901	0.850318873898
4	539	1262.514530763819	4.753243358418
4	561	1297.929494209483	20.790170647037
4	562	1298.732761787843	14.156000327575
4	569	1315.283480677678	24.736662080853
4	570	1319.991522061015	29.365265299312
4	575	1328.742596978838	32.772102099118
4	576	1328.982658291448	25.002077407855
4	581	1344.381811157403	34.918095013829
4	589	1356.761416001839	9.247343355066
4	603	1390.284585593176	1.498556502292
4	606	1401.954084528557	1.854445370395
4	626	1457.223438114447	8.754478288998
4	647	1556.210871461234	16.145829014377
4	662	1586.987574430528	3.66169050498
4	667	1596.604003362476	10.328833335024
4	674	1619.646309411863	6.020119663372
4	675	1619.88372924904	5.61697289938
4	680	1635.941128881674	6.952543931795
4	683	1638.701137529901	5.658625135186
4	693	1655.640756457872	1.415662629767
4	698	1665.52839162615	2.002493849306
4	729	1741.61437943537	7.537138906564
4	743	1757.46404329317	8.026060698742
4	760	1801.693142653193	2.287219251253
4	771	1818.941784578863	0.446917723361
4	783	1845.032355299924	0.586378008729
4	786	1860.980366264863	3.81041502615
4	789	1865.611024923776	0.347934326393
4	792	1873.849855477813	2.957572856443
4	797	1876.81247187224	2.645948862281
4	798	1883.746909292324	7.777377838393
4	808	1901.120155529902	6.545387065618
4	835	1962.095582917304	5.825711689401
4	842	1977.511665961438	18.877113988452
4	848	1985.621857842916	2.253448595076
4	855	2012.267313546351	3.568514672005
4	874	2042.656221139385	2.319073274806
4	887	2067.237020348462	6.475040645473
4	891	2074.018889791622	1.578950719712
4	906	2134.303113617609	8.848800004983
4	924	2165.997813192405	4.216995037891
4	925	2169.55034439533	4.977891255297
4	926	2175.02594031517	9.67596829472
4	933	2187.975343053311	3.506225031455
4	939	2207.966639619254	1.288973978959
4	944	2215.90419298033	2.629855007085
4	948	2217.720689590021	0.718120147262
4	957	2240.78858621391	19.650747899135
4	974	2276.174405580621	4.026242510393
4	977	2278.140203225768	2.333320032899
4	981	2281.287618201779	0.627751127441
4	984	2289.658162488954	4.464507985315
4	993	2307.280408490981	10.57356598845
4	998	2309.382253058336	9.477741393167
4	999	2309.925806821377	1.979557665916
4	1019	2337.686419828908	8.791034208553
4	1024	2340.931700177762	1.514890137077
4	1025	2341.153598801891	1.72769079057
4	1031	2350.355558492962	7.832212164569
4	1035	2370.083591908364	2.828236652746
4	1060	2440.542987959397	4.141045064429
4	1065	2456.0399330524	0.28621782956
5	156	379.608095313354	1
5	161	385.157042033546	1
5	164	399.228233649482	1
5	169	426.29441775287	1
5	173	443.660282730514	2
5	179	448.882770349587	1
5	182	458.137377426833	1
5	185	465.826518938555	1
5	188	494.833255579592	1
5	191	499.822669747212	1
5	200	545.209727119979	1
5	206	556.326563719439	1
5	209	572.24175660314	1
5	212	575.863779244195	1
5	214	577.881832968284	2
5	226	618.606462312563	1
5	230	621.290089637664	1
5	232	624.589581645086	2
5	236	627.159808616859	1
5	239	636.156734196456	1
5	242	638.695588633048	1
5	244	639.503912377234	2
5	247	641.651605112762	2
5	251	648.446565023337	1
5	256	656.54974981075	1
5	263	679.39638457525	1
5	268	682.973119520857	1
5	272	694.937514966378	1
5	275	709.632194269071	1
5	277	711.758812941697	2
5	281	714.745063282436	1
5	293	780.526003935068	1
5	295	782.044152913347	2
5	299	785.118702325468	1
5	302	786.82893246052	1
5	305	792.211735403243	1
5	308	794.650893746256	1
5	311	796.164645718989	1
5	314	797.919207288304	1
5	320	800.659176556938	1
5	323	802.145561068497	1
5	326	811.00518497882	1
5	332	837.601350145641	1
5	335	842.808892412795	1
5	338	850.859225738186	1
5	341	852.072682488855	1
5	344	856.159958446072	1
5	358	877.773073587536	1
5	362	893.64717916577	1
5	367	896.443773630609	1
5	369	899.605850019362	2
5	375	906.490154822813	3
5	378	908.845874933179	3
5	380	909.068777480588	4
5	383	910.906698195825	4
5	385	913.501120803603	5
5	392	923.456570972861	1
5	403	953.896826670245	1
5	405	955.784633106749	2
5	408	959.402928374506	3
5	413	967.655498130466	1
5	416	977.727526974586	1
5	419	986.483345419537	1
5	422	992.65484243738	1
5	425	1000.462186581842	1
5	428	1006.176726943197	1
5	436	1017.427407056631	1
5	440	1023.333185885289	1
5	443	1035.575057615901	1
5	445	1036.397542892707	2
5	450	1042.071307097477	2
5	455	1053.311955600887	1
5	458	1068.628170045546	1
5	460	1068.7372523909	2
5	464	1076.558449330755	1
5	467	1085.269920578633	1
5	470	1090.503816550838	1
5	473	1108.756096424927	1
5	475	1109.014040151767	2
5	479	1111.825117276107	1
5	482	1117.188075728243	1
5	484	1118.573341036805	2
5	489	1130.12602680693	2
5	498	1145.944497366466	2
5	515	1191.074306916834	1
5	518	1224.317871195993	1
5	524	1239.415299962359	1
5	527	1241.319226478284	1
5	530	1246.698348383056	1
5	533	1249.075240055608	1
5	538	1262.228682128353	1
5	544	1281.456586332296	1
5	548	1285.868618464094	2
5	550	1287.995910071284	3
5	552	1290.105014442061	4
5	560	1297.064115025479	5
5	566	1309.251003332188	6
5	572	1322.970381474386	7
5	574	1327.054292896169	8
5	578	1337.426373481282	9
5	580	1339.570652825673	10
5	586	1353.57388117284	10
5	588	1354.516585092584	11
5	608	1421.845319537203	1
5	611	1433.077455864582	1
5	614	1434.570566934513	1
5	617	1436.700873309931	1
5	620	1444.299171092421	1
5	625	1451.583659890725	1
5	629	1462.140670769399	1
5	632	1486.551119297569	1
5	635	1496.223907441521	1
5	638	1523.68482419876	1
5	641	1535.830083928314	1
5	646	1552.15528015073	1
5	650	1569.113611818043	1
5	653	1574.59712260323	1
5	655	1577.783622414697	2
5	664	1588.000980001104	1
5	666	1592.596152355802	2
5	682	1636.55918818209	1
5	685	1640.641096239258	2
5	689	1650.918419052956	1
5	697	1663.785704815084	1
5	701	1667.004304150596	1
5	704	1674.644996918479	1
5	706	1675.406868188611	2
5	710	1683.621375205935	1
5	713	1691.870758945599	1
5	716	1720.321633944097	1
5	719	1728.242047121611	1
5	722	1733.304477625183	1
5	726	1736.123190533158	2
5	728	1736.909763431248	3
5	733	1745.044126709653	2
5	736	1748.564229081137	2
5	738	1749.269661046032	3
5	742	1753.344411509976	4
5	749	1768.415993221564	1
5	752	1784.209010264732	1
5	757	1800.178677377241	1
5	759	1800.95833616599	2
5	762	1802.963572909128	3
5	765	1808.674857293738	3
5	773	1823.070351810148	1
5	775	1823.916015992079	2
5	779	1834.242923632817	1
5	800	1884.674211425783	1
5	805	1897.934943306775	1
5	807	1899.021409378431	2
5	812	1908.271706007079	1
5	815	1911.895429355032	1
5	818	1914.724388814061	1
5	821	1919.490991222787	1
5	824	1923.241762418407	1
5	827	1936.92438258832	1
5	834	1961.501522926047	1
5	837	1965.216661545734	2
5	839	1976.143259682891	3
5	841	1977.106085114153	4
5	851	2002.049166686635	1
5	857	2014.824804974099	1
5	860	2026.435831902888	1
5	862	2026.746619278247	2
5	866	2034.2767880203	1
5	871	2040.832134308452	1
5	873	2041.731501973777	2
5	877	2044.394175563752	2
5	881	2057.540071414153	1
5	886	2064.678649429053	1
5	893	2100.643440090761	1
5	896	2109.735389103771	1
5	899	2114.55518655679	1
5	902	2119.70008837266	1
5	908	2141.252353958549	1
5	911	2145.214967111336	1
5	914	2156.225819555676	1
5	919	2162.801836191714	1
5	929	2176.399567796595	1
5	935	2206.400218154673	1
5	941	2212.910426022293	1
5	952	2223.822523938987	1
5	954	2229.518382743654	2
5	956	2237.356526885323	3
5	961	2242.16939733723	2
5	965	2249.811830180648	1
5	968	2260.677147560681	1
5	976	2276.381357349022	1
5	988	2299.593657816942	1
5	992	2305.917559909468	2
5	997	2308.049972561187	3
5	1003	2311.300208667409	2
5	1006	2311.517313327987	2
5	1009	2317.103988873237	2
5	1013	2321.252529477898	1
5	1016	2324.894460081239	1
5	1030	2345.158710441866	1
5	1037	2393.48451685585	1
5	1040	2409.027012630994	1
5	1043	2414.534346640401	1
5	1046	2418.902692042539	1
5	1048	2419.493416931437	2
5	1052	2432.165685310105	1
5	1057	2437.386547876681	1
5	1059	2439.315187646736	2
5	1067	2461.210077954654	1
5	1070	2463.600744450632	1
5	1072	2464.886615128397	2
6	156	379.608095313354	0
6	159	384.335844052635	0
6	161	385.157042033546	0
6	162	387.142640497371	0
6	164	399.228233649482	0
6	165	400.54291619982	0
6	169	426.29441775287	0
6	173	443.660282730514	1
6	176	447.158409940455	1
6	177	447.200074078157	0
6	179	448.882770349587	0
6	180	451.700763089531	0
6	182	458.137377426833	0
6	183	458.183541579203	0
6	185	465.826518938555	0
6	186	466.028801246487	0
6	188	494.833255579592	0
6	189	494.866406064181	0
6	191	499.822669747212	0
6	192	501.256347076393	0
6	200	545.209727119979	0
6	204	547.087452492347	0
6	206	556.326563719439	0
6	207	558.196766123673	0
6	209	572.24175660314	0
6	210	572.362801606067	0
6	212	575.863779244195	0
6	214	577.881832968284	1
6	215	579.340709824684	1
6	216	582.607829523215	0
6	226	618.606462312563	0
6	228	619.518350238423	0
6	230	621.290089637664	0
6	232	624.589581645086	1
6	233	626.592783164873	1
6	234	626.767588463381	0
6	236	627.159808616859	0
6	237	629.811529796429	0
6	239	636.156734196456	0
6	240	637.124615713617	0
6	242	638.695588633048	0
6	244	639.503912377234	1
6	245	641.014723769442	1
6	247	641.651605112762	1
6	248	642.558673274883	1
6	249	644.524766369235	0
6	251	648.446565023337	0
6	252	650.153360761667	0
6	256	656.54974981075	0
6	261	671.878984512894	0
6	263	679.39638457525	0
6	264	680.598760026667	0
6	268	682.973119520857	0
6	270	685.736926856603	0
6	272	694.937514966378	0
6	273	697.997932702371	0
6	275	709.632194269071	0
6	277	711.758812941697	1
6	278	713.217395821428	1
6	279	713.865594763217	0
6	281	714.745063282436	0
6	282	716.113843866376	0
6	293	780.526003935068	0
6	295	782.044152913347	1
6	296	782.20032369947	1
6	297	783.386950044277	0
6	299	785.118702325468	0
6	300	786.363451195898	0
6	302	786.82893246052	0
6	303	788.924757189544	0
6	305	792.211735403243	0
6	306	792.313637077758	0
6	308	794.650893746256	0
6	309	794.811801426362	0
6	311	796.164645718989	0
6	312	796.70977108783	0
6	314	797.919207288304	0
6	315	797.968925100041	0
6	320	800.659176556938	0
6	321	800.859574258031	0
6	323	802.145561068497	0
6	324	804.240853151616	0
6	326	811.00518497882	0
6	327	812.699375958352	0
6	332	837.601350145641	0
6	333	838.28085069798	0
6	335	842.808892412795	0
6	336	843.787721576218	0
6	338	850.859225738186	0
6	339	850.950533963597	0
6	341	852.072682488855	0
6	342	852.318513373578	0
6	344	856.159958446072	0
6	345	856.740666380897	0
6	358	877.773073587536	0
6	360	885.581616089511	0
6	362	893.64717916577	0
6	363	895.429708262142	0
6	367	896.443773630609	0
6	369	899.605850019362	1
6	375	906.490154822813	2
6	376	908.772143826436	2
6	378	908.845874933179	2
6	380	909.068777480588	3
6	381	910.267857408239	3
6	383	910.906698195825	3
6	385	913.501120803603	4
6	386	914.011956375848	4
6	387	914.122052929954	3
6	388	915.776894447576	2
6	389	916.630629394367	1
6	390	916.682995659936	0
6	392	923.456570972861	0
6	396	932.176821466284	0
6	403	953.896826670245	0
6	405	955.784633106749	1
6	408	959.402928374506	2
6	409	960.523469831376	2
6	410	963.055589062363	1
6	411	964.972225509955	0
6	413	967.655498130466	0
6	414	970.51344204409	0
6	416	977.727526974586	0
6	417	981.328697005916	0
6	419	986.483345419537	0
6	420	986.7777930264	0
6	422	992.65484243738	0
6	423	994.206685378857	0
6	425	1000.462186581842	0
6	426	1002.250883726324	0
6	428	1006.176726943197	0
6	429	1008.501719940503	0
6	436	1017.427407056631	0
6	438	1018.578616855142	0
6	440	1023.333185885289	0
6	441	1024.882790158631	0
6	443	1035.575057615901	0
6	445	1036.397542892707	1
6	446	1037.531638513066	1
6	450	1042.071307097477	1
6	452	1045.402822196823	1
6	453	1047.292095908534	0
6	455	1053.311955600887	0
6	456	1053.767933569036	0
6	458	1068.628170045546	0
6	460	1068.7372523909	1
6	461	1068.939731538543	1
6	462	1073.855728902318	0
6	464	1076.558449330755	0
6	465	1077.974187266563	0
6	467	1085.269920578633	0
6	468	1085.384114552531	0
6	470	1090.503816550838	0
6	471	1092.70354294658	0
6	473	1108.756096424927	0
6	475	1109.014040151767	1
6	476	1109.691991704048	1
6	477	1110.052188570169	0
6	479	1111.825117276107	0
6	480	1112.350225503101	0
6	482	1117.188075728243	0
6	484	1118.573341036805	1
6	485	1123.328791879102	1
6	489	1130.12602680693	1
6	491	1133.53826535469	1
6	498	1145.944497366466	1
6	503	1157.851282612541	1
6	504	1159.994184526058	0
6	515	1191.074306916834	0
6	516	1192.293034782725	0
6	518	1224.317871195993	0
6	519	1226.585306656261	0
6	524	1239.415299962359	0
6	525	1240.260395499245	0
6	527	1241.319226478284	0
6	528	1241.717853180536	0
6	530	1246.698348383056	0
6	531	1246.806892646892	0
6	533	1249.075240055608	0
6	534	1249.351408718908	0
6	538	1262.228682128353	0
6	540	1264.27996106658	0
6	544	1281.456586332296	0
6	548	1285.868618464094	1
6	550	1287.995910071284	2
6	552	1290.105014442061	3
6	560	1297.064115025479	4
6	566	1309.251003332188	5
6	572	1322.970381474386	6
6	574	1327.054292896169	7
6	578	1337.426373481282	8
6	580	1339.570652825673	9
6	582	1345.579416191202	9
6	586	1353.57388117284	9
6	588	1354.516585092584	10
6	590	1361.078421099533	10
6	591	1363.471436973061	9
6	592	1369.858771261894	8
6	593	1371.966785724377	7
6	594	1374.135055391201	6
6	595	1375.143300478198	5
6	596	1375.621336975203	4
6	597	1377.89876377224	3
6	598	1378.07391017469	2
6	599	1378.576493230156	1
6	600	1379.38251649508	0
6	608	1421.845319537203	0
6	609	1422.026509554211	0
6	611	1433.077455864582	0
6	612	1434.474041494535	0
6	614	1434.570566934513	0
6	615	1435.110847215776	0
6	617	1436.700873309931	0
6	618	1438.327703241318	0
6	620	1444.299171092421	0
6	621	1444.574594465866	0
6	625	1451.583659890725	0
6	627	1459.181166092701	0
6	629	1462.140670769399	0
6	630	1463.033581010996	0
6	632	1486.551119297569	0
6	633	1486.786912019329	0
6	635	1496.223907441521	0
6	636	1497.085959643752	0
6	638	1523.68482419876	0
6	639	1526.414720060353	0
6	641	1535.830083928314	0
6	642	1536.211401814556	0
6	646	1552.15528015073	0
6	648	1557.215918590399	0
6	650	1569.113611818043	0
6	651	1569.372378109389	0
6	653	1574.59712260323	0
6	655	1577.783622414697	1
6	656	1580.280020001771	1
6	657	1582.819028175166	0
6	664	1588.000980001104	0
6	666	1592.596152355802	1
6	668	1597.402827630587	1
6	669	1599.000370208246	0
6	682	1636.55918818209	0
6	685	1640.641096239258	1
6	686	1641.229481471562	1
6	687	1642.057523118959	0
6	689	1650.918419052956	0
6	690	1651.080403206202	0
6	697	1663.785704815084	0
6	699	1665.95401500023	0
6	701	1667.004304150596	0
6	702	1670.801217741476	0
6	704	1674.644996918479	0
6	706	1675.406868188611	1
6	707	1677.603441438006	1
6	708	1679.453434620329	0
6	710	1683.621375205935	0
6	711	1686.027331259726	0
6	713	1691.870758945599	0
6	714	1691.937164993567	0
6	716	1720.321633944097	0
6	717	1721.748941737929	0
6	719	1728.242047121611	0
6	720	1729.154420242459	0
6	722	1733.304477625183	0
6	726	1736.123190533158	1
6	728	1736.909763431248	2
6	730	1742.233139331793	2
6	731	1743.809818165445	1
6	733	1745.044126709653	1
6	734	1746.586958633304	1
6	736	1748.564229081137	1
6	738	1749.269661046032	2
6	742	1753.344411509976	3
6	744	1759.687369214363	3
6	745	1759.720262217421	2
6	746	1760.501870579682	1
6	747	1761.112672863146	0
6	749	1768.415993221564	0
6	750	1774.226997831167	0
6	752	1784.209010264732	0
6	753	1785.005741850793	0
6	757	1800.178677377241	0
6	759	1800.95833616599	1
6	762	1802.963572909128	2
6	763	1803.147081304044	2
6	765	1808.674857293738	2
6	766	1808.967614849395	2
6	767	1810.084870015053	1
6	768	1811.291666133381	0
6	773	1823.070351810148	0
6	775	1823.916015992079	1
6	776	1824.36537007683	1
6	777	1826.707911761192	0
6	779	1834.242923632817	0
6	780	1836.224130080327	0
6	800	1884.674211425783	0
6	801	1890.500085032655	0
6	805	1897.934943306775	0
6	807	1899.021409378431	1
6	809	1902.090179406419	1
6	810	1902.333342404983	0
6	812	1908.271706007079	0
6	813	1909.495610988577	0
6	815	1911.895429355032	0
6	816	1913.816128831415	0
6	818	1914.724388814061	0
6	819	1917.687522560675	0
6	821	1919.490991222787	0
6	822	1921.067889920487	0
6	824	1923.241762418407	0
6	825	1929.047955202445	0
6	827	1936.92438258832	0
6	828	1938.689822548692	0
6	834	1961.501522926047	0
6	837	1965.216661545734	1
6	839	1976.143259682891	2
6	841	1977.106085114153	3
6	843	1978.542147250041	3
6	844	1979.679868814583	2
6	845	1981.134720581618	1
6	849	1989.013257840562	0
6	851	2002.049166686635	0
6	852	2003.468253241704	0
6	857	2014.824804974099	0
6	858	2014.832793152953	0
6	860	2026.435831902888	0
6	862	2026.746619278247	1
6	863	2030.04044849442	1
6	864	2030.269554159394	0
6	866	2034.2767880203	0
6	867	2034.518425295821	0
6	871	2040.832134308452	0
6	873	2041.731501973777	1
6	875	2042.980434693632	1
6	877	2044.394175563752	1
6	878	2045.012115654099	1
6	879	2046.59802499667	0
6	881	2057.540071414153	0
6	882	2057.959788081835	0
6	886	2064.678649429053	0
6	888	2070.082809155713	0
6	893	2100.643440090761	0
6	894	2101.17028738557	0
6	896	2109.735389103771	0
6	897	2110.747675582642	0
6	899	2114.55518655679	0
6	900	2115.135915229552	0
6	902	2119.70008837266	0
6	903	2120.202831008133	0
6	908	2141.252353958549	0
6	909	2141.942790617948	0
6	911	2145.214967111336	0
6	912	2145.73457367944	0
6	914	2156.225819555676	0
6	915	2158.678173479623	0
6	919	2162.801836191714	0
6	927	2175.107325879758	0
6	929	2176.399567796595	0
6	930	2179.852590249419	0
6	935	2206.400218154673	0
6	936	2206.504346402614	0
6	941	2212.910426022293	0
6	945	2216.36427785886	0
6	952	2223.822523938987	0
6	954	2229.518382743654	1
6	956	2237.356526885323	2
6	958	2241.017646200193	2
6	959	2242.005094891752	1
6	961	2242.16939733723	1
6	962	2244.204497461841	1
6	963	2244.477750229383	0
6	965	2249.811830180648	0
6	966	2249.822610056508	0
6	968	2260.677147560681	0
6	969	2262.253826683085	0
6	976	2276.381357349022	0
6	978	2279.859113132087	0
6	988	2299.593657816942	0
6	992	2305.917559909468	1
6	997	2308.049972561187	2
6	1000	2310.871458253246	2
6	1001	2311.137327630355	1
6	1003	2311.300208667409	1
6	1004	2311.492718544818	1
6	1006	2311.517313327987	1
6	1007	2311.536385614712	1
6	1009	2317.103988873237	1
6	1010	2318.90903118337	1
6	1011	2320.349013813095	0
6	1013	2321.252529477898	0
6	1014	2322.969626823792	0
6	1016	2324.894460081239	0
6	1026	2341.72387541408	0
6	1030	2345.158710441866	0
6	1032	2353.292146128398	0
6	1037	2393.48451685585	0
6	1038	2397.114204202316	0
6	1040	2409.027012630994	0
6	1041	2409.153942703524	0
6	1043	2414.534346640401	0
6	1044	2417.988792511508	0
6	1046	2418.902692042539	0
6	1048	2419.493416931437	1
6	1049	2419.849530844616	1
6	1050	2420.10817987587	0
6	1052	2432.165685310105	0
6	1053	2433.080941241648	0
6	1057	2437.386547876681	0
6	1059	2439.315187646736	1
6	1061	2442.763109098431	1
6	1062	2445.398948628648	0
6	1067	2461.210077954654	0
6	1068	2462.668468101149	0
6	1070	2463.600744450632	0
6	1072	2464.886615128397	1
6	1073	2465.910877016318	1
6	1074	2466.244748034272	0
7	158	383.839430301011	4.231334987657
7	161	385.157042033546	0
7	164	399.228233649482	0
7	175	447.099357768184	20.804940015314
7	176	447.158409940455	3.498127209941
7	179	448.882770349587	0
7	182	458.137377426833	0
7	185	465.826518938555	0
7	188	494.833255579592	0
7	191	499.822669747212	0
7	200	545.209727119979	0
7	203	546.089339872012	0.716214787027
7	206	556.326563719439	0
7	209	572.24175660314	0
7	212	575.863779244195	0
7	215	579.340709824684	1.4588768564
7	227	619.34780824825	0.741345935687
7	230	621.290089637664	0
7	233	626.592783164873	2.003201519787
7	236	627.159808616859	0
7	239	636.156734196456	0
7	242	638.695588633048	0
7	245	641.014723769442	1.510811392208
7	248	642.558673274883	0.907068162121
7	251	648.446565023337	0
7	257	661.323361337397	4.773611526647
7	260	667.406463761028	4.408788484287
7	263	679.39638457525	0
7	269	684.670159036511	1.697039515654
7	272	694.937514966378	0
7	275	709.632194269071	0
7	278	713.217395821428	1.458582879731
7	281	714.745063282436	0
7	293	780.526003935068	0
7	296	782.20032369947	0.156170786123
7	299	785.118702325468	0
7	302	786.82893246052	0
7	305	792.211735403243	0
7	308	794.650893746256	0
7	311	796.164645718989	0
7	314	797.919207288304	0
7	320	800.659176556938	0
7	323	802.145561068497	0
7	326	811.00518497882	0
7	332	837.601350145641	0
7	335	842.808892412795	0
7	338	850.859225738186	0
7	341	852.072682488855	0
7	344	856.159958446072	0
7	359	885.376015373162	7.602941785626
7	362	893.64717916577	0
7	370	900.716971788142	4.273198157533
7	373	905.851573935936	6.245723916574
7	376	908.772143826436	7.994950550237
7	381	910.267857408239	3.777702585426
7	386	914.011956375848	5.166081442669
7	387	914.122052929954	5.053275449366
7	388	915.776894447576	4.870196251751
7	389	916.630629394367	3.129508590764
7	392	923.456570972861	0
7	395	931.434466056984	6.944130302859
7	406	956.047763903404	2.150937233159
7	409	960.523469831376	4.738836724627
7	410	963.055589062363	3.652660687857
7	413	967.655498130466	0
7	416	977.727526974586	0
7	419	986.483345419537	0
7	422	992.65484243738	0
7	425	1000.462186581842	0
7	428	1006.176726943197	0
7	437	1017.538123794198	0.110716737567
7	440	1023.333185885289	0
7	443	1035.575057615901	0
7	446	1037.531638513066	1.134095620359
7	451	1044.508588278975	6.137468973235
7	452	1045.402822196823	3.331515099346
7	455	1053.311955600887	0
7	458	1068.628170045546	0
7	461	1068.939731538543	0.202479147643
7	464	1076.558449330755	0
7	467	1085.269920578633	0
7	470	1090.503816550838	0
7	473	1108.756096424927	0
7	476	1109.691991704048	0.677951552281
7	479	1111.825117276107	0
7	482	1117.188075728243	0
7	485	1123.328791879102	4.755450842297
7	490	1133.21104872466	8.523899729051
7	491	1133.53826535469	3.41223854776
7	502	1156.573902163013	22.429174410963
7	503	1157.851282612541	11.906785246075
7	515	1191.074306916834	0
7	518	1224.317871195993	0
7	524	1239.415299962359	0
7	527	1241.319226478284	0
7	530	1246.698348383056	0
7	533	1249.075240055608	0
7	539	1262.514530763819	0.285848635466
7	581	1344.381811157403	62.925224825107
7	582	1345.579416191202	59.710797727108
7	589	1356.761416001839	68.765505930555
7	590	1361.078421099533	70.973406657472
7	591	1363.471436973061	66.407321947582
7	592	1369.858771261894	60.607767929706
7	593	1371.966785724377	48.996404249991
7	594	1374.135055391201	47.080762495032
7	595	1375.143300478198	37.716926996916
7	596	1375.621336975203	36.05068414953
7	597	1377.89876377224	30.384691125467
7	598	1378.07391017469	24.50002900185
7	599	1378.576493230156	24.059908137572
7	608	1421.845319537203	0
7	611	1433.077455864582	0
7	614	1434.570566934513	0
7	617	1436.700873309931	0
7	620	1444.299171092421	0
7	626	1457.223438114447	5.639778223722
7	629	1462.140670769399	0
7	632	1486.551119297569	0
7	635	1496.223907441521	0
7	638	1523.68482419876	0
7	641	1535.830083928314	0
7	647	1556.210871461234	4.055591310504
7	650	1569.113611818043	0
7	653	1574.59712260323	0
7	656	1580.280020001771	2.496397587074
7	667	1596.604003362476	8.603023361372
7	668	1597.402827630587	4.806675274785
7	683	1638.701137529901	2.141949347811
7	686	1641.229481471562	0.588385232304
7	689	1650.918419052956	0
7	698	1665.52839162615	1.742686811066
7	701	1667.004304150596	0
7	704	1674.644996918479	0
7	707	1677.603441438006	2.196573249395
7	710	1683.621375205935	0
7	713	1691.870758945599	0
7	716	1720.321633944097	0
7	719	1728.242047121611	0
7	722	1733.304477625183	0
7	729	1741.61437943537	7.537138906564
7	730	1742.233139331793	6.109948798635
7	731	1743.809818165445	6.900054734197
7	734	1746.586958633304	1.542831923651
7	743	1757.46404329317	8.899814212033
7	744	1759.687369214363	10.417708168331
7	745	1759.720262217421	10.282279622993
7	746	1760.501870579682	7.157459069706
7	749	1768.415993221564	0
7	752	1784.209010264732	0
7	760	1801.693142653193	1.514465275952
7	763	1803.147081304044	2.188745138054
7	766	1808.967614849395	6.004041940267
7	767	1810.084870015053	1.410012721315
7	773	1823.070351810148	0
7	776	1824.36537007683	0.449354084751
7	779	1834.242923632817	0
7	800	1884.674211425783	0
7	808	1901.120155529902	3.185212223127
7	809	1902.090179406419	3.068770027988
7	812	1908.271706007079	0
7	815	1911.895429355032	0
7	818	1914.724388814061	0
7	821	1919.490991222787	0
7	824	1923.241762418407	0
7	827	1936.92438258832	0
7	842	1977.511665961438	16.010143035391
7	843	1978.542147250041	13.325485704307
7	844	1979.679868814583	3.536609131692
7	845	1981.134720581618	4.028635467465
7	848	1985.621857842916	2.253448595076
7	851	2002.049166686635	0
7	857	2014.824804974099	0
7	860	2026.435831902888	0
7	863	2030.04044849442	3.293829216173
7	866	2034.2767880203	0
7	874	2042.656221139385	1.824086830933
7	875	2042.980434693632	1.248932719855
7	878	2045.012115654099	0.617940090347
7	881	2057.540071414153	0
7	887	2067.237020348462	2.558370919409
7	893	2100.643440090761	0
7	896	2109.735389103771	0
7	899	2114.55518655679	0
7	902	2119.70008837266	0
7	908	2141.252353958549	0
7	911	2145.214967111336	0
7	914	2156.225819555676	0
7	926	2175.02594031517	12.224104123456
7	929	2176.399567796595	0
7	935	2206.400218154673	0
7	941	2212.910426022293	0
7	944	2215.90419298033	2.629855007085
7	957	2240.78858621391	16.966062274923
7	958	2241.017646200193	11.499263456539
7	959	2242.005094891752	4.648568006429
7	962	2244.204497461841	2.035100124611
7	965	2249.811830180648	0
7	968	2260.677147560681	0
7	977	2278.140203225768	1.758845876746
7	999	2309.925806821377	10.332149004435
7	1000	2310.871458253246	4.953898343778
7	1001	2311.137327630355	3.087355069168
7	1004	2311.492718544818	0.192509877409
7	1007	2311.536385614712	0.019072286725
7	1010	2318.90903118337	1.805042310133
7	1013	2321.252529477898	0
7	1016	2324.894460081239	0
7	1019	2337.686419828908	8.791034208553
7	1025	2341.153598801891	1.736788761206
7	1031	2350.355558492962	5.196848051096
7	1037	2393.48451685585	0
7	1040	2409.027012630994	0
7	1043	2414.534346640401	0
7	1046	2418.902692042539	0
7	1049	2419.849530844616	0.356113913179
7	1052	2432.165685310105	0
7	1060	2440.542987959397	3.156440082716
7	1061	2442.763109098431	3.447921451695
7	1067	2461.210077954654	0
7	1070	2463.600744450632	0
7	1073	2465.910877016318	1.024261887921
8	159	384.335844052635	37
8	162	387.142640497371	38
8	165	400.54291619982	39
8	176	447.158409940455	40
8	177	447.200074078157	41
8	180	451.700763089531	42
8	183	458.183541579203	43
8	186	466.028801246487	44
8	189	494.866406064181	45
8	192	501.256347076393	46
8	204	547.087452492347	47
8	207	558.196766123673	48
8	210	572.362801606067	49
8	215	579.340709824684	50
8	216	582.607829523215	51
8	228	619.518350238423	52
8	233	626.592783164873	53
8	234	626.767588463381	54
8	237	629.811529796429	55
8	240	637.124615713617	56
8	245	641.014723769442	57
8	248	642.558673274883	58
8	249	644.524766369235	59
8	252	650.153360761667	60
8	261	671.878984512894	61
8	264	680.598760026667	62
8	270	685.736926856603	63
8	273	697.997932702371	64
8	278	713.217395821428	65
8	279	713.865594763217	66
8	282	716.113843866376	67
8	296	782.20032369947	68
8	297	783.386950044277	69
8	300	786.363451195898	70
8	303	788.924757189544	71
8	306	792.313637077758	72
8	309	794.811801426362	73
8	312	796.70977108783	74
8	315	797.968925100041	75
8	321	800.859574258031	76
8	324	804.240853151616	77
8	327	812.699375958352	78
8	333	838.28085069798	79
8	336	843.787721576218	80
8	339	850.950533963597	81
8	342	852.318513373578	82
8	345	856.740666380897	83
8	360	885.581616089511	84
8	363	895.429708262142	85
8	376	908.772143826436	86
8	381	910.267857408239	87
8	386	914.011956375848	88
8	387	914.122052929954	89
8	388	915.776894447576	90
8	389	916.630629394367	91
8	390	916.682995659936	92
8	396	932.176821466284	93
8	409	960.523469831376	94
8	410	963.055589062363	95
8	411	964.972225509955	96
8	414	970.51344204409	97
8	417	981.328697005916	98
8	420	986.7777930264	99
8	423	994.206685378857	100
8	426	1002.250883726324	101
8	429	1008.501719940503	102
8	438	1018.578616855142	103
8	441	1024.882790158631	104
8	446	1037.531638513066	105
8	452	1045.402822196823	106
8	453	1047.292095908534	107
8	456	1053.767933569036	108
8	461	1068.939731538543	109
8	462	1073.855728902318	110
8	465	1077.974187266563	111
8	468	1085.384114552531	112
8	471	1092.70354294658	113
8	476	1109.691991704048	114
8	477	1110.052188570169	115
8	480	1112.350225503101	116
8	485	1123.328791879102	117
8	491	1133.53826535469	118
8	503	1157.851282612541	119
8	504	1159.994184526058	120
8	516	1192.293034782725	121
8	519	1226.585306656261	122
8	525	1240.260395499245	123
8	528	1241.717853180536	124
8	531	1246.806892646892	125
8	534	1249.351408718908	126
8	540	1264.27996106658	127
8	582	1345.579416191202	128
8	590	1361.078421099533	129
8	591	1363.471436973061	130
8	592	1369.858771261894	131
8	593	1371.966785724377	132
8	594	1374.135055391201	133
8	595	1375.143300478198	134
8	596	1375.621336975203	135
8	597	1377.89876377224	136
8	598	1378.07391017469	137
8	599	1378.576493230156	138
8	600	1379.38251649508	139
8	609	1422.026509554211	140
8	612	1434.474041494535	141
8	615	1435.110847215776	142
8	618	1438.327703241318	143
8	621	1444.574594465866	144
8	627	1459.181166092701	145
8	630	1463.033581010996	146
8	633	1486.786912019329	147
8	636	1497.085959643752	148
8	639	1526.414720060353	149
8	642	1536.211401814556	150
8	648	1557.215918590399	151
8	651	1569.372378109389	152
8	656	1580.280020001771	153
8	657	1582.819028175166	154
8	668	1597.402827630587	155
8	669	1599.000370208246	156
8	686	1641.229481471562	157
8	687	1642.057523118959	158
8	690	1651.080403206202	159
8	699	1665.95401500023	160
8	702	1670.801217741476	161
8	707	1677.603441438006	162
8	708	1679.453434620329	163
8	711	1686.027331259726	164
8	714	1691.937164993567	165
8	717	1721.748941737929	166
8	720	1729.154420242459	167
8	730	1742.233139331793	168
8	731	1743.809818165445	169
8	734	1746.586958633304	170
8	744	1759.687369214363	171
8	745	1759.720262217421	172
8	746	1760.501870579682	173
8	747	1761.112672863146	174
8	750	1774.226997831167	175
8	753	1785.005741850793	176
8	763	1803.147081304044	177
8	766	1808.967614849395	178
8	767	1810.084870015053	179
8	768	1811.291666133381	180
8	776	1824.36537007683	181
8	777	1826.707911761192	182
8	780	1836.224130080327	183
8	801	1890.500085032655	184
8	809	1902.090179406419	185
8	810	1902.333342404983	186
8	813	1909.495610988577	187
8	816	1913.816128831415	188
8	819	1917.687522560675	189
8	822	1921.067889920487	190
8	825	1929.047955202445	191
8	828	1938.689822548692	192
8	843	1978.542147250041	193
8	844	1979.679868814583	194
8	845	1981.134720581618	195
8	849	1989.013257840562	196
8	852	2003.468253241704	197
8	858	2014.832793152953	198
8	863	2030.04044849442	199
8	864	2030.269554159394	200
8	867	2034.518425295821	201
8	875	2042.980434693632	202
8	878	2045.012115654099	203
8	879	2046.59802499667	204
8	882	2057.959788081835	205
8	888	2070.082809155713	206
8	894	2101.17028738557	207
8	897	2110.747675582642	208
8	900	2115.135915229552	209
8	903	2120.202831008133	210
8	909	2141.942790617948	211
8	912	2145.73457367944	212
8	915	2158.678173479623	213
8	927	2175.107325879758	214
8	930	2179.852590249419	215
8	936	2206.504346402614	216
8	945	2216.36427785886	217
8	958	2241.017646200193	218
8	959	2242.005094891752	219
8	962	2244.204497461841	220
8	963	2244.477750229383	221
8	966	2249.822610056508	222
8	969	2262.253826683085	223
8	978	2279.859113132087	224
8	1000	2310.871458253246	225
8	1001	2311.137327630355	226
8	1004	2311.492718544818	227
8	1007	2311.536385614712	228
8	1010	2318.90903118337	229
8	1011	2320.349013813095	230
8	1014	2322.969626823792	231
8	1026	2341.72387541408	232
8	1032	2353.292146128398	233
8	1038	2397.114204202316	234
8	1041	2409.153942703524	235
8	1044	2417.988792511508	236
8	1049	2419.849530844616	237
8	1050	2420.10817987587	238
8	1053	2433.080941241648	239
8	1061	2442.763109098431	240
8	1062	2445.398948628648	241
8	1068	2462.668468101149	242
8	1073	2465.910877016318	243
8	1074	2466.244748034272	244
9	159	384.335844052635	4.727748739281
9	162	387.142640497371	1.985598463825
9	165	400.54291619982	1.314682550338
9	176	447.158409940455	20.863992187585
9	177	447.200074078157	3.539791347643
9	180	451.700763089531	2.817992739944
9	183	458.183541579203	0.04616415237
9	186	466.028801246487	0.202282307932
9	189	494.866406064181	0.033150484589
9	192	501.256347076393	1.433677329181
9	204	547.087452492347	1.714327407362
9	207	558.196766123673	1.870202404234
9	210	572.362801606067	0.121045002927
9	215	579.340709824684	3.476930580489
9	216	582.607829523215	4.725996554931
9	228	619.518350238423	0.91188792586
9	233	626.592783164873	5.302693527209
9	234	626.767588463381	2.178006818295
9	237	629.811529796429	2.65172117957
9	240	637.124615713617	0.967881517161
9	245	641.014723769442	2.319135136394
9	248	642.558673274883	3.054760897649
9	249	644.524766369235	2.873161256473
9	252	650.153360761667	1.70679573833
9	261	671.878984512894	8.881309236153
9	264	680.598760026667	1.202375451417
9	270	685.736926856603	2.763807335746
9	273	697.997932702371	3.060417735993
9	278	713.217395821428	3.585201552357
9	279	713.865594763217	2.10678182152
9	282	716.113843866376	1.36878058394
9	296	782.20032369947	1.674319764402
9	297	783.386950044277	1.34279713093
9	300	786.363451195898	1.24474887043
9	303	788.924757189544	2.095824729024
9	306	792.313637077758	0.101901674515
9	309	794.811801426362	0.160907680106
9	312	796.70977108783	0.545125368841
9	315	797.968925100041	0.049717811737
9	321	800.859574258031	0.200397701093
9	324	804.240853151616	2.095292083119
9	327	812.699375958352	1.694190979532
9	333	838.28085069798	0.679500552339
9	336	843.787721576218	0.978829163423
9	339	850.950533963597	0.091308225411
9	342	852.318513373578	0.245830884723
9	345	856.740666380897	0.580707934825
9	360	885.581616089511	7.808542501975
9	363	895.429708262142	1.782529096372
9	376	908.772143826436	9.166293807074
9	381	910.267857408239	9.49066413204
9	386	914.011956375848	7.521801553035
9	387	914.122052929954	5.276177996775
9	388	915.776894447576	6.708116966988
9	389	916.630629394367	5.723931198542
9	390	916.682995659936	3.181874856333
9	396	932.176821466284	7.686485712159
9	409	960.523469831376	6.626643161131
9	410	963.055589062363	7.270955955614
9	411	964.972225509955	5.569297135449
9	414	970.51344204409	2.857943913624
9	417	981.328697005916	3.60117003133
9	420	986.7777930264	0.294447606863
9	423	994.206685378857	1.551842941477
9	426	1002.250883726324	1.788697144482
9	429	1008.501719940503	2.324992997306
9	438	1018.578616855142	1.151209798511
9	441	1024.882790158631	1.549604273342
9	446	1037.531638513066	1.956580897165
9	452	1045.402822196823	7.031702891083
9	453	1047.292095908534	5.220788811057
9	456	1053.767933569036	0.455977968149
9	461	1068.939731538543	0.311561492997
9	462	1073.855728902318	5.118476511418
9	465	1077.974187266563	1.415737935808
9	468	1085.384114552531	0.114193973898
9	471	1092.70354294658	2.199726395742
9	476	1109.691991704048	0.935895279121
9	477	1110.052188570169	1.038148418402
9	480	1112.350225503101	0.525108226994
9	485	1123.328791879102	6.140716150859
9	491	1133.53826535469	8.851116359081
9	503	1157.851282612541	23.706554860491
9	504	1159.994184526058	14.049687159592
9	516	1192.293034782725	1.218727865891
9	519	1226.585306656261	2.267435460268
9	525	1240.260395499245	0.845095536886
9	528	1241.717853180536	0.398626702252
9	531	1246.806892646892	0.108544263836
9	534	1249.351408718908	0.2761686633
9	540	1264.27996106658	2.051278938227
9	582	1345.579416191202	64.122829858906
9	590	1361.078421099533	73.082511028249
9	591	1363.471436973061	73.366422531
9	592	1369.858771261894	72.794656236415
9	593	1371.966785724377	62.715782392189
9	594	1374.135055391201	51.164673916815
9	595	1375.143300478198	48.089007582029
9	596	1375.621336975203	38.194963493921
9	597	1377.89876377224	38.328110946567
9	598	1378.07391017469	30.559837527917
9	599	1378.576493230156	25.002612057316
9	600	1379.38251649508	24.865931402496
9	609	1422.026509554211	0.181190017008
9	612	1434.474041494535	1.396585629953
9	615	1435.110847215776	0.540280281263
9	618	1438.327703241318	1.626829931387
9	621	1444.574594465866	0.275423373445
9	627	1459.181166092701	7.597506201976
9	630	1463.033581010996	0.892910241597
9	633	1486.786912019329	0.23579272176
9	636	1497.085959643752	0.862052202231
9	639	1526.414720060353	2.729895861593
9	642	1536.211401814556	0.381317886242
9	648	1557.215918590399	5.060638439669
9	651	1569.372378109389	0.258766291346
9	656	1580.280020001771	5.682897398541
9	657	1582.819028175166	5.035405760469
9	668	1597.402827630587	9.401847629483
9	669	1599.000370208246	6.404217852444
9	686	1641.229481471562	4.670293289472
9	687	1642.057523118959	1.416426879701
9	690	1651.080403206202	0.161984153246
9	699	1665.95401500023	2.168310185146
9	702	1670.801217741476	3.79691359088
9	707	1677.603441438006	2.958444519527
9	708	1679.453434620329	4.046566431718
9	711	1686.027331259726	2.405956053791
9	714	1691.937164993567	0.066406047968
9	717	1721.748941737929	1.427307793832
9	720	1729.154420242459	0.912373120848
9	730	1742.233139331793	8.155898802987
9	731	1743.809818165445	7.686627632287
9	734	1746.586958633304	9.677195202056
9	744	1759.687369214363	11.123140133226
9	745	1759.720262217421	10.450601171389
9	746	1760.501870579682	11.063887985254
9	747	1761.112672863146	7.76826135317
9	750	1774.226997831167	5.811004609603
9	753	1785.005741850793	0.796731586061
9	763	1803.147081304044	2.968403926803
9	766	1808.967614849395	8.009278683405
9	767	1810.084870015053	7.121297105925
9	768	1811.291666133381	2.616808839643
9	776	1824.36537007683	1.295018266682
9	777	1826.707911761192	2.791895769113
9	780	1836.224130080327	1.98120644751
9	801	1890.500085032655	5.825873606872
9	809	1902.090179406419	4.155236099644
9	810	1902.333342404983	3.311933026552
9	813	1909.495610988577	1.223904981498
9	816	1913.816128831415	1.920699476383
9	819	1917.687522560675	2.963133746614
9	822	1921.067889920487	1.5768986977
9	825	1929.047955202445	5.806192784038
9	828	1938.689822548692	1.765439960372
9	843	1978.542147250041	17.040624323994
9	844	1979.679868814583	14.463207268849
9	845	1981.134720581618	4.991460898727
9	849	1989.013257840562	5.644848592722
9	852	2003.468253241704	1.419086555069
9	858	2014.832793152953	0.007988178854
9	863	2030.04044849442	3.604616591532
9	864	2030.269554159394	3.522934881147
9	867	2034.518425295821	0.241637275521
9	875	2042.980434693632	2.14830038518
9	878	2045.012115654099	3.280613680322
9	879	2046.59802499667	2.203849432918
9	882	2057.959788081835	0.419716667682
9	888	2070.082809155713	5.40415972666
9	894	2101.17028738557	0.526847294809
9	897	2110.747675582642	1.012286478871
9	900	2115.135915229552	0.580728672762
9	903	2120.202831008133	0.502742635473
9	909	2141.942790617948	0.690436659399
9	912	2145.73457367944	0.519606568104
9	915	2158.678173479623	2.452353923947
9	927	2175.107325879758	12.305489688044
9	930	2179.852590249419	3.453022452824
9	936	2206.504346402614	0.104128247941
9	945	2216.36427785886	3.089939885615
9	958	2241.017646200193	17.195122261206
9	959	2242.005094891752	12.486712148098
9	962	2244.204497461841	6.847970576518
9	963	2244.477750229383	2.308352892153
9	966	2249.822610056508	0.01077987586
9	969	2262.253826683085	1.576679122404
9	978	2279.859113132087	3.477755783065
9	1000	2310.871458253246	11.277800436304
9	1001	2311.137327630355	5.219767720887
9	1004	2311.492718544818	3.442745983631
9	1007	2311.536385614712	0.236176947303
9	1010	2318.90903118337	7.391717855383
9	1011	2320.349013813095	3.245024939858
9	1014	2322.969626823792	1.717097345894
9	1026	2341.72387541408	2.307065373395
9	1032	2353.292146128398	8.133435686532
9	1038	2397.114204202316	3.629687346466
9	1041	2409.153942703524	0.12693007253
9	1044	2417.988792511508	3.454445871107
9	1049	2419.849530844616	0.946838802077
9	1050	2420.10817987587	0.614762944433
9	1053	2433.080941241648	0.915255931543
9	1061	2442.763109098431	5.37656122175
9	1062	2445.398948628648	6.083760981912
9	1068	2462.668468101149	1.458390146495
9	1073	2465.910877016318	2.310132565686
9	1074	2466.244748034272	1.358132905875
10	202	545.373125084985	5
10	259	662.997675276741	6
10	372	900.777193276199	7
10	394	924.490335754125	8
10	448	1038.37111930574	9
10	487	1124.687148995609	10
10	493	1134.14472775205	11
10	584	1347.514072646773	12
10	724	1734.077240528806	13
10	740	1749.437982594428	14
10	847	1983.36840924784	15
10	943	2213.274337973245	16
10	1018	2328.895385620355	17
10	1021	2339.416810040685	18
11	1075	2500	0.0976
12	1075	2500	0.0456

