version 2
run experiments_easy_game_mode1-1547-20230308-12:07:33-26524
attr configname experiments_easy_game_mode1
attr datetime 20230308-12:07:33
attr experiment experiments_easy_game_mode1
attr inifile omnetpp.ini
attr iterationvars "$0=7, $1=1.5, $2=100"
attr iterationvarsf 7,1.5,100-
attr measurement "$0=7, $1=1.5, $2=100"
attr network Network
attr processid 26524
attr repetition 17
attr replication #17
attr resultdir results
attr runnumber 1547
attr seedset 17
param *.boss.arrival_mean 20
param *.boss.service_mean 7
param *.minion.arrival_mean 10
param *.minion.service_mean 1.5
param *.player.recover_rate_x 100
param **.minion.arrival_distribution 0
param **.minion.service_distribution 0
param **.boss.arrival_distribution 0
param **.boss.service_distribution 0

vector 0 Network.player boss_jobs_number_stat:vector ETV
attr source signal_boss_jobs_number
vector 1 Network.player boss_jobs_queue_number_stat:vector ETV
attr source signal_boss_jobs_queue_number
vector 2 Network.player boss_defeated_stat:vector ETV
attr source signal_boss_defeated
vector 3 Network.player boss_response_time_stat:vector ETV
attr source signal_boss_response_time
vector 4 Network.player boss_waiting_time_stat:vector ETV
attr source signal_boss_waiting_time
vector 5 Network.player minion_jobs_number_stat:vector ETV
attr source signal_minion_jobs_number
vector 6 Network.player minion_jobs_queue_number_stat:vector ETV
attr source signal_minion_jobs_queue_number
vector 7 Network.player minion_waiting_time_stat:vector ETV
attr source signal_minion_waiting_time
vector 8 Network.player minion_defeated_stat:vector ETV
attr source signal_minion_defeated
vector 9 Network.player minion_response_time_stat:vector ETV
attr source signal_minion_response_time
vector 10 Network.player minion_recovered_stat:vector ETV
attr source signal_minion_recovered
vector 11 Network.player minion_throughput:vector ETV
attr source signal_minion_throughput
vector 12 Network.player boss_throughput:vector ETV
attr source signal_boss_throughput
0	154	350.171511211393	5
0	159	359.177002320821	3
0	163	365.26094743687	4
0	165	368.098189762035	5
0	178	385.995055935859	3
0	199	401.159380145501	1
0	211	408.580972013092	1
0	213	411.98303390355	2
0	215	412.876803304027	3
0	220	422.146072715288	3
0	225	446.775027194891	1
0	233	468.45014409572	1
0	236	472.544172029421	1
0	242	487.076176212721	1
0	245	491.308263830936	1
0	254	514.420445053881	1
0	263	540.977110483324	1
0	265	551.819681983572	2
0	268	554.511948886503	2
0	275	575.952425612315	1
0	278	583.288797401775	1
0	281	588.718100361583	1
0	303	643.125925376857	1
0	305	645.586996621865	2
0	335	730.571370209296	1
0	337	734.350173070654	2
0	371	810.658340050417	1
0	385	884.907727247863	1
0	387	887.721201712711	2
0	389	888.414522886148	3
0	391	888.512631947575	4
0	393	890.614748597704	5
0	408	921.637319564409	3
0	412	933.050810641064	4
0	434	955.511706174683	1
0	455	994.890497857697	1
0	457	1003.331701847225	2
0	467	1024.71278138575	1
0	469	1033.063840915732	2
0	473	1051.810539160986	1
0	481	1065.212657206365	1
0	483	1065.754729663329	2
0	488	1080.816328212444	2
0	501	1093.090213003979	2
0	554	1190.157796246335	1
0	558	1195.018006867426	2
0	566	1254.157083332267	1
0	581	1280.882010518192	1
0	584	1313.151903889802	1
0	592	1321.444395591257	2
0	594	1325.585896946281	3
0	600	1335.422098015786	2
0	604	1338.793171785704	1
0	610	1343.945698054676	1
0	612	1344.605648280557	2
0	614	1348.23718360817	3
0	620	1354.444723385226	1
0	625	1363.78207600242	1
0	629	1372.897775342055	1
0	632	1380.740144125913	1
0	653	1449.877692855951	1
0	656	1463.860393903988	1
0	662	1472.968465229854	1
0	668	1519.198196621634	1
0	672	1532.42682870514	2
0	683	1550.165412899953	1
0	687	1554.583269324379	2
0	698	1573.502541172078	1
0	719	1622.789686438765	1
0	721	1626.079452015312	2
0	725	1630.884862694327	3
0	727	1635.526245392597	4
0	734	1672.708889509399	1
0	746	1683.53909461402	1
0	749	1684.610946595907	1
0	753	1685.324302382972	2
0	756	1690.607090687069	2
0	758	1690.716656719464	3
0	773	1722.801084257979	1
0	782	1752.565669775121	1
0	785	1757.548582860074	1
0	806	1795.945836784854	1
0	811	1803.075119845715	1
0	836	1863.031907122048	1
0	839	1873.807397067592	1
0	842	1876.768904317585	1
0	855	1890.39997952919	1
0	859	1891.62937734553	1
0	864	1895.714537944116	1
0	870	1904.656803873486	2
0	874	1907.741361857288	3
0	876	1907.770545241994	4
0	880	1910.078089205621	3
0	892	1928.628792155236	1
0	905	1940.266183214219	1
0	923	1969.677378120698	1
0	941	2005.109057834261	1
0	956	2037.716048677079	1
0	974	2096.363142973599	1
0	976	2103.40630497504	2
0	982	2118.70735399252	3
0	989	2130.419533422778	3
0	1004	2149.699629152779	1
0	1016	2180.406746134353	1
0	1025	2189.056782590741	1
0	1034	2208.817946604845	1
0	1040	2249.007462530087	1
0	1049	2267.540485069693	1
0	1058	2284.914111308136	1
0	1073	2303.01610025261	1
0	1097	2370.815889430469	1
0	1099	2386.415765345996	2
0	1127	2426.057704019991	1
0	1129	2426.901955418237	2
0	1133	2436.157063888962	3
0	1151	2467.123966566147	1
0	1157	2473.867866227238	1
0	1168	2489.726720628059	1
1	154	350.171511211393	4
1	155	352.42918485504	4
1	156	354.852387875355	3
1	157	356.715901566875	2
1	159	359.177002320821	2
1	163	365.26094743687	3
1	165	368.098189762035	4
1	168	373.792816895814	4
1	169	376.517352961397	3
1	172	381.574598105539	2
1	178	385.995055935859	2
1	181	390.402253370071	2
1	182	390.774904657723	1
1	185	391.534492804942	0
1	199	401.159380145501	0
1	200	402.210371515389	0
1	211	408.580972013092	0
1	213	411.98303390355	1
1	215	412.876803304027	2
1	216	414.996594194781	2
1	220	422.146072715288	2
1	221	434.633495691554	2
1	222	435.65891161314	1
1	223	446.519922794743	0
1	225	446.775027194891	0
1	226	462.841088755635	0
1	233	468.45014409572	0
1	234	469.037318171489	0
1	236	472.544172029421	0
1	237	474.520780189093	0
1	242	487.076176212721	0
1	243	490.253641201524	0
1	245	491.308263830936	0
1	250	512.800950206638	0
1	254	514.420445053881	0
1	255	523.040325683151	0
1	263	540.977110483324	0
1	265	551.819681983572	1
1	266	551.844893440903	1
1	268	554.511948886503	1
1	269	559.627597981661	1
1	270	563.61289266128	0
1	275	575.952425612315	0
1	276	578.681675845515	0
1	278	583.288797401775	0
1	279	585.345877422772	0
1	281	588.718100361583	0
1	282	589.340693991845	0
1	303	643.125925376857	0
1	305	645.586996621865	1
1	306	646.378293053179	1
1	309	649.331174104669	0
1	335	730.571370209296	0
1	337	734.350173070654	1
1	338	736.469515278467	1
1	351	770.652245674869	0
1	371	810.658340050417	0
1	372	813.031769987966	0
1	385	884.907727247863	0
1	387	887.721201712711	1
1	389	888.414522886148	2
1	391	888.512631947575	3
1	393	890.614748597704	4
1	394	892.588373542223	4
1	403	906.32278242816	3
1	404	918.996771588755	2
1	408	921.637319564409	2
1	412	933.050810641064	3
1	417	937.281813033594	3
1	418	937.806372729796	2
1	419	938.07393916767	1
1	420	939.749658524771	0
1	434	955.511706174683	0
1	435	958.253493975273	0
1	455	994.890497857697	0
1	457	1003.331701847225	1
1	462	1008.90175335707	1
1	463	1011.787508212368	0
1	467	1024.71278138575	0
1	469	1033.063840915732	1
1	470	1034.180785259319	1
1	471	1041.086062545713	0
1	473	1051.810539160986	0
1	476	1057.448935773852	0
1	481	1065.212657206365	0
1	483	1065.754729663329	1
1	484	1065.762043858283	1
1	488	1080.816328212444	1
1	499	1091.467514160572	1
1	501	1093.090213003979	1
1	502	1093.265523678052	1
1	503	1094.059710948324	0
1	554	1190.157796246335	0
1	558	1195.018006867426	1
1	561	1207.899719487224	1
1	562	1217.087562222307	0
1	566	1254.157083332267	0
1	567	1256.205257832154	0
1	581	1280.882010518192	0
1	582	1283.441683191312	0
1	584	1313.151903889802	0
1	592	1321.444395591257	1
1	594	1325.585896946281	2
1	597	1327.816995605918	2
1	598	1333.774987330173	1
1	600	1335.422098015786	1
1	601	1336.180608013204	1
1	602	1336.805790971205	0
1	604	1338.793171785704	0
1	605	1340.679550337228	0
1	610	1343.945698054676	0
1	612	1344.605648280557	1
1	614	1348.23718360817	2
1	615	1350.773021802074	2
1	616	1352.204266482912	1
1	617	1352.253640468724	0
1	620	1354.444723385226	0
1	621	1355.477866739847	0
1	625	1363.78207600242	0
1	626	1369.826096427796	0
1	629	1372.897775342055	0
1	630	1377.517041950187	0
1	632	1380.740144125913	0
1	637	1395.93037726704	0
1	653	1449.877692855951	0
1	654	1459.061002548659	0
1	656	1463.860393903988	0
1	657	1467.252336754517	0
1	662	1472.968465229854	0
1	663	1483.203606090854	0
1	668	1519.198196621634	0
1	672	1532.42682870514	1
1	675	1535.876091916759	1
1	678	1538.471460697433	0
1	683	1550.165412899953	0
1	687	1554.583269324379	1
1	688	1563.456793222134	1
1	695	1571.768838057235	0
1	698	1573.502541172078	0
1	699	1582.797804624467	0
1	719	1622.789686438765	0
1	721	1626.079452015312	1
1	725	1630.884862694327	2
1	727	1635.526245392597	3
1	728	1643.752730344855	3
1	729	1648.183378776825	2
1	730	1653.465042903798	1
1	731	1657.642073174195	0
1	734	1672.708889509399	0
1	735	1676.514427258874	0
1	746	1683.53909461402	0
1	747	1684.603040568596	0
1	749	1684.610946595907	0
1	753	1685.324302382972	1
1	754	1690.435280404929	1
1	756	1690.607090687069	1
1	758	1690.716656719464	2
1	759	1691.504776816729	2
1	764	1701.8451306096	1
1	765	1703.085413504167	0
1	773	1722.801084257979	0
1	774	1726.800684761132	0
1	782	1752.565669775121	0
1	783	1753.586089076418	0
1	785	1757.548582860074	0
1	786	1766.252141396065	0
1	806	1795.945836784854	0
1	809	1802.251019727868	0
1	811	1803.075119845715	0
1	812	1811.477898710267	0
1	836	1863.031907122048	0
1	837	1863.744751115359	0
1	839	1873.807397067592	0
1	840	1875.022187348812	0
1	842	1876.768904317585	0
1	845	1877.839091821627	0
1	855	1890.39997952919	0
1	856	1890.497084654316	0
1	859	1891.62937734553	0
1	860	1893.229049258121	0
1	864	1895.714537944116	0
1	870	1904.656803873486	1
1	874	1907.741361857288	2
1	876	1907.770545241994	3
1	877	1909.339719533344	3
1	878	1909.835102164456	2
1	880	1910.078089205621	2
1	883	1915.432556254644	2
1	886	1920.63718086206	1
1	887	1921.215373379006	0
1	892	1928.628792155236	0
1	895	1931.498317545448	0
1	905	1940.266183214219	0
1	906	1945.678224774417	0
1	923	1969.677378120698	0
1	926	1976.030923003605	0
1	941	2005.109057834261	0
1	942	2007.152351011106	0
1	956	2037.716048677079	0
1	967	2071.410223150773	0
1	974	2096.363142973599	0
1	976	2103.40630497504	1
1	982	2118.70735399252	2
1	983	2122.354472699264	2
1	989	2130.419533422778	2
1	990	2132.049555872398	2
1	991	2134.220217076936	1
1	992	2137.15094221361	0
1	1004	2149.699629152779	0
1	1007	2156.356388258299	0
1	1016	2180.406746134353	0
1	1021	2184.620196943336	0
1	1025	2189.056782590741	0
1	1026	2190.819028057314	0
1	1034	2208.817946604845	0
1	1035	2211.487650748762	0
1	1040	2249.007462530087	0
1	1041	2250.124072818802	0
1	1049	2267.540485069693	0
1	1052	2268.805706498484	0
1	1058	2284.914111308136	0
1	1059	2289.091535611229	0
1	1073	2303.01610025261	0
1	1074	2305.018943597468	0
1	1097	2370.815889430469	0
1	1099	2386.415765345996	1
1	1104	2395.763015271764	1
1	1105	2395.771309575194	0
1	1127	2426.057704019991	0
1	1129	2426.901955418237	1
1	1133	2436.157063888962	2
1	1138	2449.443689646393	2
1	1139	2452.866677947307	1
1	1140	2453.783341430192	0
1	1151	2467.123966566147	0
1	1154	2468.650933805032	0
1	1157	2473.867866227238	0
1	1158	2477.046395137934	0
1	1168	2489.726720628059	0
1	1169	2493.103311790017	0
2	155	352.42918485504	17
2	156	354.852387875355	18
2	157	356.715901566875	19
2	168	373.792816895814	20
2	169	376.517352961397	21
2	172	381.574598105539	22
2	181	390.402253370071	23
2	182	390.774904657723	24
2	185	391.534492804942	25
2	200	402.210371515389	26
2	216	414.996594194781	27
2	221	434.633495691554	28
2	222	435.65891161314	29
2	223	446.519922794743	30
2	226	462.841088755635	31
2	234	469.037318171489	32
2	237	474.520780189093	33
2	243	490.253641201524	34
2	250	512.800950206638	35
2	255	523.040325683151	36
2	266	551.844893440903	37
2	269	559.627597981661	38
2	270	563.61289266128	39
2	276	578.681675845515	40
2	279	585.345877422772	41
2	282	589.340693991845	42
2	306	646.378293053179	43
2	309	649.331174104669	44
2	338	736.469515278467	45
2	351	770.652245674869	46
2	372	813.031769987966	47
2	394	892.588373542223	48
2	403	906.32278242816	49
2	404	918.996771588755	50
2	417	937.281813033594	51
2	418	937.806372729796	52
2	419	938.07393916767	53
2	420	939.749658524771	54
2	435	958.253493975273	55
2	462	1008.90175335707	56
2	463	1011.787508212368	57
2	470	1034.180785259319	58
2	471	1041.086062545713	59
2	476	1057.448935773852	60
2	484	1065.762043858283	61
2	499	1091.467514160572	62
2	502	1093.265523678052	63
2	503	1094.059710948324	64
2	561	1207.899719487224	65
2	562	1217.087562222307	66
2	567	1256.205257832154	67
2	582	1283.441683191312	68
2	597	1327.816995605918	69
2	598	1333.774987330173	70
2	601	1336.180608013204	71
2	602	1336.805790971205	72
2	605	1340.679550337228	73
2	615	1350.773021802074	74
2	616	1352.204266482912	75
2	617	1352.253640468724	76
2	621	1355.477866739847	77
2	626	1369.826096427796	78
2	630	1377.517041950187	79
2	637	1395.93037726704	80
2	654	1459.061002548659	81
2	657	1467.252336754517	82
2	663	1483.203606090854	83
2	675	1535.876091916759	84
2	678	1538.471460697433	85
2	688	1563.456793222134	86
2	695	1571.768838057235	87
2	699	1582.797804624467	88
2	728	1643.752730344855	89
2	729	1648.183378776825	90
2	730	1653.465042903798	91
2	731	1657.642073174195	92
2	735	1676.514427258874	93
2	747	1684.603040568596	94
2	754	1690.435280404929	95
2	759	1691.504776816729	96
2	764	1701.8451306096	97
2	765	1703.085413504167	98
2	774	1726.800684761132	99
2	783	1753.586089076418	100
2	786	1766.252141396065	101
2	809	1802.251019727868	102
2	812	1811.477898710267	103
2	837	1863.744751115359	104
2	840	1875.022187348812	105
2	845	1877.839091821627	106
2	856	1890.497084654316	107
2	860	1893.229049258121	108
2	877	1909.339719533344	109
2	878	1909.835102164456	110
2	883	1915.432556254644	111
2	886	1920.63718086206	112
2	887	1921.215373379006	113
2	895	1931.498317545448	114
2	906	1945.678224774417	115
2	926	1976.030923003605	116
2	942	2007.152351011106	117
2	967	2071.410223150773	118
2	983	2122.354472699264	119
2	990	2132.049555872398	120
2	991	2134.220217076936	121
2	992	2137.15094221361	122
2	1007	2156.356388258299	123
2	1021	2184.620196943336	124
2	1026	2190.819028057314	125
2	1035	2211.487650748762	126
2	1041	2250.124072818802	127
2	1052	2268.805706498484	128
2	1059	2289.091535611229	129
2	1074	2305.018943597468	130
2	1104	2395.763015271764	131
2	1105	2395.771309575194	132
2	1138	2449.443689646393	133
2	1139	2452.866677947307	134
2	1140	2453.783341430192	135
2	1154	2468.650933805032	136
2	1158	2477.046395137934	137
2	1169	2493.103311790017	138
3	155	352.42918485504	31.013828899473
3	156	354.852387875355	30.719899013275
3	157	356.715901566875	20.533229434843
3	168	373.792816895814	32.645875140359
3	169	376.517352961397	26.345841750004
3	172	381.574598105539	22.397595784718
3	181	390.402253370071	25.141305933201
3	182	390.774904657723	22.676714895688
3	185	391.534492804942	5.539436869083
3	200	402.210371515389	1.050991369888
3	216	414.996594194781	6.415622181689
3	221	434.633495691554	22.650461788004
3	222	435.65891161314	22.782108309113
3	223	446.519922794743	24.373850079455
3	226	462.841088755635	16.066061560744
3	234	469.037318171489	0.587174075769
3	237	474.520780189093	1.976608159672
3	243	490.253641201524	3.177464988803
3	250	512.800950206638	21.492686375702
3	255	523.040325683151	8.61988062927
3	266	551.844893440903	10.867782957579
3	269	559.627597981661	7.807915998089
3	270	563.61289266128	9.100943774777
3	276	578.681675845515	2.7292502332
3	279	585.345877422772	2.057080020997
3	282	589.340693991845	0.622593630262
3	306	646.378293053179	3.252367676322
3	309	649.331174104669	3.744177482804
3	338	736.469515278467	5.898145069171
3	351	770.652245674869	36.302072604215
3	372	813.031769987966	2.373429937549
3	394	892.588373542223	7.68064629436
3	403	906.32278242816	18.601580715449
3	404	918.996771588755	30.582248702607
3	417	937.281813033594	48.769181086019
3	418	937.806372729796	47.191624132092
3	419	938.07393916767	16.436619603261
3	420	939.749658524771	6.698847883707
3	435	958.253493975273	2.74178780059
3	462	1008.90175335707	14.011255499373
3	463	1011.787508212368	8.455806365143
3	470	1034.180785259319	9.468003873569
3	471	1041.086062545713	8.022221629981
3	476	1057.448935773852	5.638396612866
3	484	1065.762043858283	0.549386651918
3	499	1091.467514160572	25.712784497243
3	502	1093.265523678052	12.449195465608
3	503	1094.059710948324	0.969497944345
3	561	1207.899719487224	17.741923240889
3	562	1217.087562222307	22.069555354881
3	567	1256.205257832154	2.048174499887
3	582	1283.441683191312	2.55967267312
3	597	1327.816995605918	14.665091716116
3	598	1333.774987330173	12.330591738916
3	601	1336.180608013204	10.594711066923
3	602	1336.805790971205	1.383692955419
3	605	1340.679550337228	1.886378551524
3	615	1350.773021802074	6.827323747398
3	616	1352.204266482912	7.598618202355
3	617	1352.253640468724	4.016456860554
3	621	1355.477866739847	1.033143354621
3	626	1369.826096427796	6.044020425376
3	630	1377.517041950187	4.619266608132
3	637	1395.93037726704	15.190233141127
3	654	1459.061002548659	9.183309692708
3	657	1467.252336754517	3.391942850529
3	663	1483.203606090854	10.235140861
3	675	1535.876091916759	16.677895295125
3	678	1538.471460697433	6.044631992293
3	688	1563.456793222134	13.291380322181
3	695	1571.768838057235	17.185568732856
3	699	1582.797804624467	9.295263452389
3	728	1643.752730344855	20.96304390609
3	729	1648.183378776825	22.103926761513
3	730	1653.465042903798	22.580180209471
3	731	1657.642073174195	22.115827781598
3	735	1676.514427258874	3.805537749475
3	747	1684.603040568596	1.063945954576
3	754	1690.435280404929	5.824333809022
3	759	1691.504776816729	6.180474433757
3	764	1701.8451306096	11.238039922531
3	765	1703.085413504167	12.368756784703
3	774	1726.800684761132	3.999600503153
3	783	1753.586089076418	1.020419301297
3	786	1766.252141396065	8.703558535991
3	809	1802.251019727868	6.305182943014
3	812	1811.477898710267	8.402778864552
3	837	1863.744751115359	0.712843993311
3	840	1875.022187348812	1.21479028122
3	845	1877.839091821627	1.070187504042
3	856	1890.497084654316	0.097105125126
3	860	1893.229049258121	1.599671912591
3	877	1909.339719533344	13.625181589228
3	878	1909.835102164456	5.17829829097
3	883	1915.432556254644	7.691194397356
3	886	1920.63718086206	12.866635620066
3	887	1921.215373379006	11.137284173385
3	895	1931.498317545448	2.869525390212
3	906	1945.678224774417	5.412041560198
3	926	1976.030923003605	6.353544882907
3	942	2007.152351011106	2.043293176845
3	967	2071.410223150773	33.694174473694
3	983	2122.354472699264	25.991329725665
3	990	2132.049555872398	28.643250897358
3	991	2134.220217076936	15.512863084416
3	992	2137.15094221361	6.731408790832
3	1007	2156.356388258299	6.65675910552
3	1021	2184.620196943336	4.213450808983
3	1026	2190.819028057314	1.762245466573
3	1035	2211.487650748762	2.669704143917
3	1041	2250.124072818802	1.116610288715
3	1052	2268.805706498484	1.265221428791
3	1059	2289.091535611229	4.177424303093
3	1074	2305.018943597468	2.002843344858
3	1104	2395.763015271764	24.947125841295
3	1105	2395.771309575194	9.355544229198
3	1138	2449.443689646393	23.385985626402
3	1139	2452.866677947307	25.96472252907
3	1140	2453.783341430192	17.62627754123
3	1154	2468.650933805032	1.526967238885
3	1158	2477.046395137934	3.178528910696
3	1169	2493.103311790017	3.376591161958
4	155	352.42918485504	28.29669599296
4	156	354.852387875355	18.669715743323
4	157	356.715901566875	15.56895981142
4	168	373.792816895814	23.621305684421
4	169	376.517352961397	17.340350640576
4	172	381.574598105539	16.313650668669
4	181	390.402253370071	22.304063608036
4	182	390.774904657723	4.779848721864
4	199	401.159380145501	0
4	211	408.580972013092	0
4	216	414.996594194781	3.013560291231
4	221	434.633495691554	21.756692387527
4	222	435.65891161314	13.512838897852
4	225	446.775027194891	0
4	233	468.45014409572	0
4	236	472.544172029421	0
4	242	487.076176212721	0
4	245	491.308263830936	0
4	254	514.420445053881	0
4	263	540.977110483324	0
4	266	551.844893440903	0.025211457331
4	269	559.627597981661	5.115649095158
4	275	575.952425612315	0
4	278	583.288797401775	0
4	281	588.718100361583	0
4	303	643.125925376857	0
4	306	646.378293053179	0.791296431314
4	335	730.571370209296	0
4	338	736.469515278467	2.119342207813
4	371	810.658340050417	0
4	385	884.907727247863	0
4	394	892.588373542223	4.867171829512
4	403	906.32278242816	17.908259542012
4	404	918.996771588755	30.48413964118
4	417	937.281813033594	46.66706443589
4	418	937.806372729796	16.169053165387
4	419	938.07393916767	5.023128526606
4	434	955.511706174683	0
4	455	994.890497857697	0
4	462	1008.90175335707	5.570051509845
4	467	1024.71278138575	0
4	470	1034.180785259319	1.116944343587
4	473	1051.810539160986	0
4	481	1065.212657206365	0
4	484	1065.762043858283	0.007314194954
4	499	1091.467514160572	10.651185948128
4	502	1093.265523678052	0.175310674073
4	554	1190.157796246335	0
4	561	1207.899719487224	12.881712619798
4	566	1254.157083332267	0
4	581	1280.882010518192	0
4	584	1313.151903889802	0
4	597	1327.816995605918	6.372600014661
4	598	1333.774987330173	8.189090383892
4	601	1336.180608013204	0.758509997418
4	604	1338.793171785704	0
4	610	1343.945698054676	0
4	615	1350.773021802074	6.167373521517
4	616	1352.204266482912	3.967082874742
4	620	1354.444723385226	0
4	625	1363.78207600242	0
4	629	1372.897775342055	0
4	632	1380.740144125913	0
4	653	1449.877692855951	0
4	656	1463.860393903988	0
4	662	1472.968465229854	0
4	668	1519.198196621634	0
4	675	1535.876091916759	3.449263211619
4	683	1550.165412899953	0
4	688	1563.456793222134	8.873523897755
4	698	1573.502541172078	0
4	719	1622.789686438765	0
4	728	1643.752730344855	17.673278329543
4	729	1648.183378776825	17.298516082498
4	730	1653.465042903798	17.938797511201
4	734	1672.708889509399	0
4	746	1683.53909461402	0
4	749	1684.610946595907	0
4	754	1690.435280404929	5.110978021957
4	759	1691.504776816729	0.89768612966
4	764	1701.8451306096	11.128473890136
4	773	1722.801084257979	0
4	782	1752.565669775121	0
4	785	1757.548582860074	0
4	806	1795.945836784854	0
4	811	1803.075119845715	0
4	836	1863.031907122048	0
4	839	1873.807397067592	0
4	842	1876.768904317585	0
4	855	1890.39997952919	0
4	859	1891.62937734553	0
4	864	1895.714537944116	0
4	877	1909.339719533344	4.682915659858
4	878	1909.835102164456	2.093740307168
4	883	1915.432556254644	7.66201101265
4	886	1920.63718086206	10.559091656439
4	892	1928.628792155236	0
4	905	1940.266183214219	0
4	923	1969.677378120698	0
4	941	2005.109057834261	0
4	956	2037.716048677079	0
4	974	2096.363142973599	0
4	983	2122.354472699264	18.948167724224
4	990	2132.049555872398	13.342201879878
4	991	2134.220217076936	3.800683654158
4	1004	2149.699629152779	0
4	1016	2180.406746134353	0
4	1025	2189.056782590741	0
4	1034	2208.817946604845	0
4	1040	2249.007462530087	0
4	1049	2267.540485069693	0
4	1058	2284.914111308136	0
4	1073	2303.01610025261	0
4	1097	2370.815889430469	0
4	1104	2395.763015271764	9.347249925768
4	1127	2426.057704019991	0
4	1138	2449.443689646393	22.541734228156
4	1139	2452.866677947307	16.709614058345
4	1151	2467.123966566147	0
4	1157	2473.867866227238	0
4	1168	2489.726720628059	0
5	161	361.587814466951	4
5	167	370.517362617564	5
5	171	381.15031939228	6
5	174	383.000106765623	7
5	176	385.205731859589	8
5	180	387.231673826958	9
5	184	391.467645020652	10
5	187	391.790327657756	11
5	196	400.240274676465	5
5	202	402.849031992676	5
5	209	408.277538686361	1
5	218	415.825879056699	2
5	230	468.003348668458	1
5	239	479.777162500302	1
5	247	497.643032871097	1
5	249	501.06747342256	2
5	257	529.720340730688	1
5	260	530.664543745399	1
5	272	564.630861679177	1
5	284	607.060157196228	1
5	287	608.817100002223	1
5	290	623.652681534036	1
5	293	626.268215411257	1
5	296	634.226339513972	1
5	299	641.269760757948	1
5	301	642.992641513097	2
5	308	649.251260264539	3
5	314	663.131940718352	1
5	317	670.373604627643	1
5	320	677.811581296454	1
5	323	681.325147848155	1
5	326	697.713954861291	1
5	329	705.670589228675	1
5	332	718.278332535994	1
5	340	739.370792297982	1
5	342	739.531013032072	2
5	344	741.885813294221	3
5	346	749.08452382733	4
5	348	755.707301090235	5
5	350	766.887371715564	6
5	355	771.70993267628	5
5	362	783.247208959	1
5	365	793.563616539954	1
5	368	800.22497064418	1
5	374	814.985995901723	1
5	377	876.737061601873	1
5	380	880.263351200228	1
5	383	884.715060646702	1
5	396	893.057995720692	2
5	398	897.621565833426	3
5	400	904.687267680435	4
5	402	906.148189442126	5
5	406	919.461424773194	6
5	410	923.468924505841	7
5	414	933.372035396762	8
5	416	935.239130551037	9
5	429	947.361177466021	3
5	437	965.713394902006	1
5	440	969.144301495477	1
5	443	978.446267412114	1
5	446	979.290949837497	1
5	449	985.367248631966	1
5	452	991.916379502635	1
5	459	1004.036309392494	1
5	461	1007.313294854891	2
5	475	1055.253222836611	1
5	479	1064.332896723178	1
5	486	1074.458734162069	2
5	490	1084.73509076389	3
5	492	1084.920010614221	4
5	494	1085.344176726577	5
5	496	1086.847302578806	6
5	498	1090.993272535036	7
5	510	1101.359118887311	3
5	512	1102.726871690193	4
5	514	1102.773859650864	5
5	516	1102.808703067666	6
5	518	1103.558692577001	7
5	521	1105.49852764354	7
5	529	1113.898576141939	2
5	533	1118.218172902397	1
5	536	1129.286243436009	1
5	539	1149.330667512377	1
5	542	1168.132939327389	1
5	545	1177.257572825815	1
5	548	1180.200759868871	1
5	550	1180.363532954243	2
5	556	1193.696432415785	1
5	560	1198.036362909496	2
5	569	1256.80320130424	1
5	572	1262.57149398774	1
5	574	1262.817832895913	2
5	578	1264.443793757312	1
5	586	1316.827869198588	1
5	588	1316.836966825172	2
5	590	1317.891645213725	3
5	596	1325.964751757203	4
5	607	1341.896319704022	5
5	634	1390.713665924599	1
5	636	1391.491145976173	2
5	641	1432.109599366781	1
5	644	1435.424498503776	1
5	646	1435.451453764455	2
5	650	1436.34740156385	1
5	659	1470.537153083715	1
5	665	1494.538245268396	1
5	670	1520.42257571502	1
5	674	1533.240568147096	2
5	677	1537.392676850934	3
5	685	1552.745797621676	1
5	690	1564.909420616986	2
5	692	1566.697454731817	3
5	694	1571.139574914787	4
5	704	1591.272968515485	1
5	707	1595.182544280602	1
5	709	1596.777140918567	2
5	713	1617.910615571711	1
5	716	1622.429547964932	1
5	723	1629.439667213029	1
5	737	1676.568257126997	1
5	740	1680.26691701325	1
5	743	1681.635368076538	1
5	751	1685.2420606866	1
5	761	1693.214085867151	2
5	763	1693.850338585547	3
5	769	1705.365906575477	2
5	776	1727.738594423032	1
5	779	1737.523578243873	1
5	788	1776.48107159176	1
5	791	1781.898375840307	1
5	794	1783.251380516264	1
5	796	1783.408564707176	2
5	800	1787.876282173172	1
5	803	1792.56691716898	1
5	808	1802.089588050119	1
5	815	1812.408404696471	1
5	818	1820.014028729581	1
5	820	1820.596842822519	2
5	824	1824.037007746774	1
5	827	1843.87114111351	1
5	830	1853.396838359014	1
5	833	1858.475513299252	1
5	844	1876.886942893869	1
5	848	1886.063619410735	1
5	851	1888.644437598973	1
5	853	1888.850596083817	2
5	862	1893.65186083956	2
5	866	1902.201910201055	3
5	868	1904.594850998163	4
5	872	1907.186420434709	5
5	882	1911.280504890157	6
5	885	1918.455621373657	7
5	890	1922.630736722385	7
5	894	1931.007132665202	8
5	898	1932.733605221341	8
5	902	1939.881984605495	7
5	914	1954.337475071124	1
5	917	1961.404136305048	1
5	920	1967.826872257726	1
5	925	1973.977769645519	1
5	929	1980.79880086202	1
5	932	1988.646059310834	1
5	934	1990.289519978881	2
5	938	1998.882624034751	1
5	944	2010.24701442697	1
5	946	2010.606594549351	2
5	950	2028.407657464782	1
5	953	2030.619084909051	1
5	958	2046.884535755182	1
5	960	2049.934755867752	2
5	962	2053.073870204826	3
5	964	2063.536240371679	4
5	966	2068.179391804684	5
5	978	2106.24467890276	1
5	980	2111.67201245948	2
5	985	2124.276576918475	3
5	987	2126.00628669928	4
5	994	2137.727488543402	5
5	1001	2145.095894681443	1
5	1006	2151.587321290818	1
5	1010	2157.587890184407	1
5	1013	2167.761515143486	1
5	1018	2181.83866788825	1
5	1020	2182.998930779226	2
5	1028	2191.379152475978	1
5	1031	2207.518507673308	1
5	1037	2218.373340417633	1
5	1043	2262.688833919648	1
5	1046	2266.771277960554	1
5	1051	2268.14123197056	1
5	1055	2274.229981918126	1
5	1061	2295.928009914854	1
5	1064	2299.367600235415	1
5	1067	2300.503154335507	1
5	1069	2301.724759587071	2
5	1071	2301.953157066354	3
5	1079	2314.502394381873	1
5	1082	2315.683588688348	1
5	1085	2339.842619891371	1
5	1088	2342.657497307074	1
5	1091	2344.823868400702	1
5	1094	2364.105097919066	1
5	1101	2391.771816139766	1
5	1103	2391.87833102605	2
5	1107	2397.644739807356	3
5	1109	2398.975566228828	4
5	1111	2399.368096068654	5
5	1114	2402.805214477881	5
5	1117	2409.673769388734	5
5	1124	2417.435661793298	1
5	1131	2436.107939185418	1
5	1135	2437.320281692505	2
5	1137	2440.299984748182	3
5	1142	2455.702516081559	4
5	1148	2465.779298357275	1
5	1153	2468.035048194316	1
5	1160	2480.2962639258	1
5	1163	2486.133993132066	1
5	1166	2488.977018924844	1
6	161	361.587814466951	3
6	167	370.517362617564	4
6	171	381.15031939228	5
6	174	383.000106765623	6
6	176	385.205731859589	7
6	180	387.231673826958	8
6	184	391.467645020652	9
6	187	391.790327657756	10
6	188	392.131841814749	10
6	189	392.291527273681	9
6	190	393.24425648857	8
6	191	395.778818627393	7
6	192	396.078482417316	6
6	193	397.481687537569	5
6	194	398.067931532953	4
6	196	400.240274676465	4
6	197	400.549714623326	4
6	202	402.849031992676	4
6	203	404.052271936771	4
6	204	405.183627075031	3
6	205	406.128687573221	2
6	206	406.630518672626	1
6	207	407.15067040238	0
6	209	408.277538686361	0
6	218	415.825879056699	1
6	227	463.327556293925	1
6	228	464.123219065918	0
6	230	468.003348668458	0
6	231	468.09766554779	0
6	239	479.777162500302	0
6	240	481.477681334068	0
6	247	497.643032871097	0
6	249	501.06747342256	1
6	251	514.021207019708	1
6	252	514.420007073038	0
6	257	529.720340730688	0
6	258	530.430449664054	0
6	260	530.664543745399	0
6	261	532.36088460698	0
6	272	564.630861679177	0
6	273	564.632653433177	0
6	284	607.060157196228	0
6	285	607.909486317025	0
6	287	608.817100002223	0
6	288	610.062217850583	0
6	290	623.652681534036	0
6	291	624.388398331959	0
6	293	626.268215411257	0
6	294	626.3147911698	0
6	296	634.226339513972	0
6	297	634.839298683546	0
6	299	641.269760757948	0
6	301	642.992641513097	1
6	308	649.251260264539	2
6	310	650.411095151768	2
6	311	650.529072991757	1
6	312	651.523104831474	0
6	314	663.131940718352	0
6	315	669.728092095086	0
6	317	670.373604627643	0
6	318	670.985900009014	0
6	320	677.811581296454	0
6	321	678.947036213504	0
6	323	681.325147848155	0
6	324	683.017090275767	0
6	326	697.713954861291	0
6	327	699.42515218371	0
6	329	705.670589228675	0
6	330	705.875215469473	0
6	332	718.278332535994	0
6	333	719.022569943399	0
6	340	739.370792297982	0
6	342	739.531013032072	1
6	344	741.885813294221	2
6	346	749.08452382733	3
6	348	755.707301090235	4
6	350	766.887371715564	5
6	352	771.059085332541	5
6	353	771.244976727567	4
6	355	771.70993267628	4
6	356	773.253249796417	4
6	357	775.09577985244	3
6	358	775.386974946978	2
6	359	776.187645800661	1
6	360	777.157248064572	0
6	362	783.247208959	0
6	363	784.160509100894	0
6	365	793.563616539954	0
6	366	794.483199441135	0
6	368	800.22497064418	0
6	369	800.830064731599	0
6	374	814.985995901723	0
6	375	815.246044699902	0
6	377	876.737061601873	0
6	378	876.884664189988	0
6	380	880.263351200228	0
6	381	880.319711675293	0
6	383	884.715060646702	0
6	396	893.057995720692	1
6	398	897.621565833426	2
6	400	904.687267680435	3
6	402	906.148189442126	4
6	406	919.461424773194	5
6	410	923.468924505841	6
6	414	933.372035396762	7
6	416	935.239130551037	8
6	421	940.627170223657	8
6	422	940.644189324943	7
6	423	943.10243464966	6
6	424	943.985329333372	5
6	425	944.307923528055	4
6	426	946.253415848393	3
6	427	947.191728519151	2
6	429	947.361177466021	2
6	430	948.456707854209	2
6	431	948.774489475505	1
6	432	954.711540766528	0
6	437	965.713394902006	0
6	438	965.831767617549	0
6	440	969.144301495477	0
6	441	970.685705333127	0
6	443	978.446267412114	0
6	444	978.495033159584	0
6	446	979.290949837497	0
6	447	979.384267994375	0
6	449	985.367248631966	0
6	450	985.615366617616	0
6	452	991.916379502635	0
6	453	992.950852251978	0
6	459	1004.036309392494	0
6	461	1007.313294854891	1
6	464	1012.233282845416	1
6	465	1013.577284660073	0
6	475	1055.253222836611	0
6	477	1057.556782101497	0
6	479	1064.332896723178	0
6	486	1074.458734162069	1
6	490	1084.73509076389	2
6	492	1084.920010614221	3
6	494	1085.344176726577	4
6	496	1086.847302578806	5
6	498	1090.993272535036	6
6	504	1094.26790869944	6
6	505	1098.197750209624	5
6	506	1098.548413099695	4
6	507	1099.734969666725	3
6	508	1099.832032239693	2
6	510	1101.359118887311	2
6	512	1102.726871690193	3
6	514	1102.773859650864	4
6	516	1102.808703067666	5
6	518	1103.558692577001	6
6	519	1104.962420640896	6
6	521	1105.49852764354	6
6	522	1105.678545955649	6
6	523	1109.092585243231	5
6	524	1109.427627203477	4
6	525	1110.171656409174	3
6	526	1112.435210173818	2
6	527	1113.149290357414	1
6	529	1113.898576141939	1
6	530	1114.782384388676	1
6	531	1116.36388022568	0
6	533	1118.218172902397	0
6	534	1119.631230152487	0
6	536	1129.286243436009	0
6	537	1132.196058805598	0
6	539	1149.330667512377	0
6	540	1150.371506572743	0
6	542	1168.132939327389	0
6	543	1169.010862876147	0
6	545	1177.257572825815	0
6	546	1177.85832223159	0
6	548	1180.200759868871	0
6	550	1180.363532954243	1
6	551	1181.342263405003	1
6	552	1182.263503720655	0
6	556	1193.696432415785	0
6	560	1198.036362909496	1
6	563	1217.354311637438	1
6	564	1220.576661356053	0
6	569	1256.80320130424	0
6	570	1258.018257398575	0
6	572	1262.57149398774	0
6	574	1262.817832895913	1
6	575	1263.264088602735	1
6	576	1263.467449071245	0
6	578	1264.443793757312	0
6	579	1265.318621193083	0
6	586	1316.827869198588	0
6	588	1316.836966825172	1
6	590	1317.891645213725	2
6	596	1325.964751757203	3
6	607	1341.896319704022	4
6	608	1342.339993709351	4
6	618	1353.656717730261	3
6	622	1356.015981201201	2
6	623	1361.669775327316	1
6	627	1371.757205726835	0
6	634	1390.713665924599	0
6	636	1391.491145976173	1
6	638	1397.480734166712	1
6	639	1399.682808162971	0
6	641	1432.109599366781	0
6	642	1432.810754078782	0
6	644	1435.424498503776	0
6	646	1435.451453764455	1
6	647	1435.985339210478	1
6	648	1436.029001845895	0
6	650	1436.34740156385	0
6	651	1442.084485058471	0
6	659	1470.537153083715	0
6	660	1472.515945956013	0
6	665	1494.538245268396	0
6	666	1495.033666544603	0
6	670	1520.42257571502	0
6	674	1533.240568147096	1
6	677	1537.392676850934	2
6	679	1541.55289903253	2
6	680	1543.233313461845	1
6	681	1545.889790980763	0
6	685	1552.745797621676	0
6	690	1564.909420616986	1
6	692	1566.697454731817	2
6	694	1571.139574914787	3
6	696	1572.620127220555	3
6	700	1583.575784934661	2
6	701	1584.026395219157	1
6	702	1584.485297578161	0
6	704	1591.272968515485	0
6	705	1592.577861246418	0
6	707	1595.182544280602	0
6	709	1596.777140918567	1
6	710	1597.489504989408	1
6	711	1598.832697983871	0
6	713	1617.910615571711	0
6	714	1619.070164335509	0
6	716	1622.429547964932	0
6	717	1622.519464738132	0
6	723	1629.439667213029	0
6	732	1657.77472517081	0
6	737	1676.568257126997	0
6	738	1677.387521244313	0
6	740	1680.26691701325	0
6	741	1680.782899737075	0
6	743	1681.635368076538	0
6	744	1683.415102895469	0
6	751	1685.2420606866	0
6	761	1693.214085867151	1
6	763	1693.850338585547	2
6	766	1704.996800552174	2
6	767	1705.029712040239	1
6	769	1705.365906575477	1
6	770	1707.367813639414	1
6	771	1709.145225637565	0
6	776	1727.738594423032	0
6	777	1728.298143005263	0
6	779	1737.523578243873	0
6	780	1737.974192298541	0
6	788	1776.48107159176	0
6	789	1777.389537346913	0
6	791	1781.898375840307	0
6	792	1782.995075665002	0
6	794	1783.251380516264	0
6	796	1783.408564707176	1
6	797	1785.737863345737	1
6	798	1786.927367337226	0
6	800	1787.876282173172	0
6	801	1788.107621288957	0
6	803	1792.56691716898	0
6	804	1793.245494823171	0
6	808	1802.089588050119	0
6	813	1811.879635336187	0
6	815	1812.408404696471	0
6	816	1813.180710626792	0
6	818	1820.014028729581	0
6	820	1820.596842822519	1
6	821	1821.054796035196	1
6	822	1821.158104860949	0
6	824	1824.037007746774	0
6	825	1824.085181622821	0
6	827	1843.87114111351	0
6	828	1844.261453171856	0
6	830	1853.396838359014	0
6	831	1857.082444194944	0
6	833	1858.475513299252	0
6	834	1858.477025967759	0
6	844	1876.886942893869	0
6	846	1881.27217915663	0
6	848	1886.063619410735	0
6	849	1886.389124239319	0
6	851	1888.644437598973	0
6	853	1888.850596083817	1
6	857	1890.67854627178	1
6	862	1893.65186083956	1
6	866	1902.201910201055	2
6	868	1904.594850998163	3
6	872	1907.186420434709	4
6	882	1911.280504890157	5
6	885	1918.455621373657	6
6	888	1921.445389314723	6
6	890	1922.630736722385	6
6	894	1931.007132665202	7
6	896	1932.334201927632	7
6	898	1932.733605221341	7
6	899	1936.049016657542	7
6	900	1938.1921804265	6
6	902	1939.881984605495	6
6	903	1940.083213219401	6
6	907	1945.689371430066	5
6	908	1946.344551894287	4
6	909	1947.786651573329	3
6	910	1948.198468695311	2
6	911	1948.661171643417	1
6	912	1950.546781348528	0
6	914	1954.337475071124	0
6	915	1954.89513696259	0
6	917	1961.404136305048	0
6	918	1963.089054301125	0
6	920	1967.826872257726	0
6	921	1969.425880302187	0
6	925	1973.977769645519	0
6	927	1976.34559854605	0
6	929	1980.79880086202	0
6	930	1981.015515683374	0
6	932	1988.646059310834	0
6	934	1990.289519978881	1
6	935	1990.578504858295	1
6	936	1993.726043102156	0
6	938	1998.882624034751	0
6	939	2000.324120689107	0
6	944	2010.24701442697	0
6	946	2010.606594549351	1
6	947	2012.932975018621	1
6	948	2014.32925846108	0
6	950	2028.407657464782	0
6	951	2028.499783646513	0
6	953	2030.619084909051	0
6	954	2032.380027177338	0
6	958	2046.884535755182	0
6	960	2049.934755867752	1
6	962	2053.073870204826	2
6	964	2063.536240371679	3
6	966	2068.179391804684	4
6	968	2072.420653277727	4
6	969	2073.586592839834	3
6	970	2074.353807691795	2
6	971	2075.670532509801	1
6	972	2078.963438881496	0
6	978	2106.24467890276	0
6	980	2111.67201245948	1
6	985	2124.276576918475	2
6	987	2126.00628669928	3
6	994	2137.727488543402	4
6	995	2138.541081659949	4
6	996	2139.186194190982	3
6	997	2139.735877259782	2
6	998	2141.848200344858	1
6	999	2144.792165088856	0
6	1001	2145.095894681443	0
6	1002	2145.52969592024	0
6	1006	2151.587321290818	0
6	1008	2156.460647555215	0
6	1010	2157.587890184407	0
6	1011	2159.290101254822	0
6	1013	2167.761515143486	0
6	1014	2170.564576881031	0
6	1018	2181.83866788825	0
6	1020	2182.998930779226	1
6	1022	2184.659327071202	1
6	1023	2185.910647199158	0
6	1028	2191.379152475978	0
6	1029	2192.151759314003	0
6	1031	2207.518507673308	0
6	1032	2207.907072371187	0
6	1037	2218.373340417633	0
6	1038	2222.347190652835	0
6	1043	2262.688833919648	0
6	1044	2266.006859408042	0
6	1046	2266.771277960554	0
6	1047	2266.980098282677	0
6	1051	2268.14123197056	0
6	1053	2270.101862407625	0
6	1055	2274.229981918126	0
6	1056	2275.750349088385	0
6	1061	2295.928009914854	0
6	1062	2296.033292907751	0
6	1064	2299.367600235415	0
6	1065	2299.465228952608	0
6	1067	2300.503154335507	0
6	1069	2301.724759587071	1
6	1071	2301.953157066354	2
6	1075	2305.735664883144	2
6	1076	2309.146552093391	1
6	1077	2309.392570160434	0
6	1079	2314.502394381873	0
6	1080	2314.841423665741	0
6	1082	2315.683588688348	0
6	1083	2316.501113297413	0
6	1085	2339.842619891371	0
6	1086	2342.195162866373	0
6	1088	2342.657497307074	0
6	1089	2343.862237797618	0
6	1091	2344.823868400702	0
6	1092	2346.035776724368	0
6	1094	2364.105097919066	0
6	1095	2365.561915187206	0
6	1101	2391.771816139766	0
6	1103	2391.87833102605	1
6	1107	2397.644739807356	2
6	1109	2398.975566228828	3
6	1111	2399.368096068654	4
6	1112	2402.441322750726	4
6	1114	2402.805214477881	4
6	1115	2407.622638546289	4
6	1117	2409.673769388734	4
6	1118	2410.816573833931	4
6	1119	2412.459704265654	3
6	1120	2413.393706365733	2
6	1121	2414.281940401093	1
6	1122	2415.62094914427	0
6	1124	2417.435661793298	0
6	1125	2417.816941800668	0
6	1131	2436.107939185418	0
6	1135	2437.320281692505	1
6	1137	2440.299984748182	2
6	1142	2455.702516081559	3
6	1143	2455.961931496541	3
6	1144	2459.215039801984	2
6	1145	2460.132675157952	1
6	1146	2460.588464110553	0
6	1148	2465.779298357275	0
6	1149	2465.828907631019	0
6	1153	2468.035048194316	0
6	1155	2468.79322229495	0
6	1160	2480.2962639258	0
6	1161	2481.06658700513	0
6	1163	2486.133993132066	0
6	1164	2487.814618627267	0
6	1166	2488.977018924844	0
6	1170	2496.338140840308	0
7	185	391.534492804942	70.090984978148
7	188	392.131841814749	67.271591983286
7	189	392.291527273681	52.483713098867
7	190	393.24425648857	31.656442021619
7	191	395.778818627393	25.261456009829
7	192	396.078482417316	14.928163025036
7	193	397.481687537569	14.481580771946
7	194	398.067931532953	12.862199673364
7	197	400.549714623326	13.318040796368
7	200	402.210371515389	10.742726494737
7	203	404.052271936771	12.261944279015
7	204	405.183627075031	4.943352398566
7	205	406.128687573221	4.96930742772
7	206	406.630518672626	3.78148667995
7	209	408.277538686361	0
7	223	446.519922794743	37.938950781651
7	226	462.841088755635	47.015209698936
7	227	463.327556293925	16.552529099034
7	230	468.003348668458	0
7	239	479.777162500302	0
7	250	512.800950206638	15.157917335541
7	251	514.021207019708	12.953733597148
7	257	529.720340730688	0
7	260	530.664543745399	0
7	272	564.630861679177	0
7	284	607.060157196228	0
7	287	608.817100002223	0
7	290	623.652681534036	0
7	293	626.268215411257	0
7	296	634.226339513972	0
7	299	641.269760757948	0
7	309	649.331174104669	6.338532591572
7	310	650.411095151768	7.285169774911
7	311	650.529072991757	1.277812727218
7	314	663.131940718352	0
7	317	670.373604627643	0
7	320	677.811581296454	0
7	323	681.325147848155	0
7	326	697.713954861291	0
7	329	705.670589228675	0
7	332	718.278332535994	0
7	351	770.652245674869	31.281453376887
7	352	771.059085332541	31.528072300469
7	353	771.244976727567	29.359163433346
7	356	773.253249796417	24.168725969087
7	357	775.09577985244	19.388478762205
7	358	775.386974946978	8.499603231414
7	359	776.187645800661	4.477713124381
7	362	783.247208959	0
7	365	793.563616539954	0
7	368	800.22497064418	0
7	374	814.985995901723	0
7	377	876.737061601873	0
7	380	880.263351200228	0
7	383	884.715060646702	0
7	420	939.749658524771	54.841931276908
7	421	940.627170223657	47.569174502965
7	422	940.644189324943	43.022623491517
7	423	943.10243464966	38.415166969225
7	424	943.985329333372	37.837139891246
7	425	944.307923528055	24.846498754861
7	426	946.253415848393	22.784491342552
7	427	947.191728519151	13.819693122389
7	430	948.456707854209	13.217577303172
7	431	948.774489475505	1.413312009484
7	437	965.713394902006	0
7	440	969.144301495477	0
7	443	978.446267412114	0
7	446	979.290949837497	0
7	449	985.367248631966	0
7	452	991.916379502635	0
7	463	1011.787508212368	7.751198819874
7	464	1012.233282845416	4.919987990525
7	476	1057.448935773852	2.195712937241
7	479	1064.332896723178	0
7	503	1094.059710948324	28.847053741959
7	504	1094.26790869944	19.809174537371
7	505	1098.197750209624	13.462659445734
7	506	1098.548413099695	13.628402485474
7	507	1099.734969666725	14.390792940148
7	508	1099.832032239693	12.984729660887
7	519	1104.962420640896	13.96914810586
7	522	1105.678545955649	4.319427068338
7	523	1109.092585243231	6.365713553038
7	524	1109.427627203477	6.653767552613
7	525	1110.171656409174	7.362953341508
7	526	1112.435210173818	8.876517596817
7	527	1113.149290357414	7.650762713874
7	530	1114.782384388676	0.883808246737
7	533	1118.218172902397	0
7	536	1129.286243436009	0
7	539	1149.330667512377	0
7	542	1168.132939327389	0
7	545	1177.257572825815	0
7	548	1180.200759868871	0
7	551	1181.342263405003	0.97873045076
7	562	1217.087562222307	23.391129806522
7	563	1217.354311637438	19.317948727942
7	569	1256.80320130424	0
7	572	1262.57149398774	0
7	575	1263.264088602735	0.446255706822
7	578	1264.443793757312	0
7	602	1336.805790971205	19.977921772617
7	605	1340.679550337228	23.842583512056
7	608	1342.339993709351	24.448348495626
7	617	1352.253640468724	26.288888711521
7	618	1353.656717730261	14.863545944557
7	621	1355.477866739847	13.581547035825
7	622	1356.015981201201	12.070283146525
7	623	1361.669775327316	7.22505194209
7	626	1369.826096427796	6.044020425376
7	637	1395.93037726704	5.216711342441
7	638	1397.480734166712	5.989588190539
7	641	1432.109599366781	0
7	644	1435.424498503776	0
7	647	1435.985339210478	0.533885446023
7	650	1436.34740156385	0
7	659	1470.537153083715	0
7	665	1494.538245268396	0
7	678	1538.471460697433	18.048884982413
7	679	1541.55289903253	8.312330885434
7	680	1543.233313461845	5.840636610911
7	695	1571.768838057235	19.023040435559
7	696	1572.620127220555	7.710706603569
7	699	1582.797804624467	16.10034989265
7	700	1583.575784934661	12.436210019874
7	701	1584.026395219157	10.523854047079
7	704	1591.272968515485	0
7	707	1595.182544280602	0
7	710	1597.489504989408	0.712364070841
7	713	1617.910615571711	0
7	716	1622.429547964932	0
7	731	1657.642073174195	28.202405961166
7	737	1676.568257126997	0
7	740	1680.26691701325	0
7	743	1681.635368076538	0
7	765	1703.085413504167	17.843352817567
7	766	1704.996800552174	11.782714685023
7	767	1705.029712040239	11.179373454692
7	770	1707.367813639414	2.001907063937
7	776	1727.738594423032	0
7	779	1737.523578243873	0
7	788	1776.48107159176	0
7	791	1781.898375840307	0
7	794	1783.251380516264	0
7	797	1785.737863345737	2.329298638561
7	800	1787.876282173172	0
7	803	1792.56691716898	0
7	809	1802.251019727868	0.161431677749
7	812	1811.477898710267	8.402778864552
7	815	1812.408404696471	0
7	818	1820.014028729581	0
7	821	1821.054796035196	0.457953212677
7	824	1824.037007746774	0
7	827	1843.87114111351	0
7	830	1853.396838359014	0
7	833	1858.475513299252	0
7	845	1877.839091821627	0.952148927758
7	848	1886.063619410735	0
7	851	1888.644437598973	0
7	856	1890.497084654316	1.646488570499
7	857	1890.67854627178	0.27856674259
7	860	1893.229049258121	1.599671912591
7	887	1921.215373379006	27.563512539446
7	888	1921.445389314723	25.730851370607
7	895	1931.498317545448	29.296407344393
7	896	1932.334201927632	27.739350929469
7	899	1936.049016657542	28.862596222833
7	900	1938.1921804265	26.911675536343
7	903	1940.083213219401	21.627591845744
7	906	1945.678224774417	23.047488052032
7	907	1945.689371430066	17.06057927483
7	908	1946.344551894287	15.337419229085
7	909	1947.786651573329	15.053046351988
7	910	1948.198468695311	8.316484089816
7	911	1948.661171643417	8.394988429198
7	914	1954.337475071124	0
7	917	1961.404136305048	0
7	920	1967.826872257726	0
7	926	1976.030923003605	2.053153358086
7	929	1980.79880086202	0
7	932	1988.646059310834	0
7	935	1990.578504858295	0.288984879414
7	938	1998.882624034751	0
7	944	2010.24701442697	0
7	947	2012.932975018621	2.32638046927
7	950	2028.407657464782	0
7	953	2030.619084909051	0
7	967	2071.410223150773	24.525687395591
7	968	2072.420653277727	22.485897409975
7	969	2073.586592839834	20.512722635008
7	970	2074.353807691795	10.817567320116
7	971	2075.670532509801	7.491140705117
7	992	2137.15094221361	30.90626331085
7	995	2138.541081659949	26.869069200469
7	996	2139.186194190982	14.909617272507
7	997	2139.735877259782	13.729590560502
7	998	2141.848200344858	4.120711801456
7	1001	2145.095894681443	0
7	1007	2156.356388258299	4.769066967481
7	1010	2157.587890184407	0
7	1013	2167.761515143486	0
7	1021	2184.620196943336	2.781529055086
7	1022	2184.659327071202	1.660396291976
7	1028	2191.379152475978	0
7	1031	2207.518507673308	0
7	1037	2218.373340417633	0
7	1043	2262.688833919648	0
7	1046	2266.771277960554	0
7	1052	2268.805706498484	0.664474527924
7	1055	2274.229981918126	0
7	1061	2295.928009914854	0
7	1064	2299.367600235415	0
7	1067	2300.503154335507	0
7	1074	2305.018943597468	3.294184010397
7	1075	2305.735664883144	3.78250781679
7	1076	2309.146552093391	6.130451840781
7	1079	2314.502394381873	0
7	1082	2315.683588688348	0
7	1085	2339.842619891371	0
7	1088	2342.657497307074	0
7	1091	2344.823868400702	0
7	1094	2364.105097919066	0
7	1105	2395.771309575194	3.999493435428
7	1112	2402.441322750726	10.562991724676
7	1115	2407.622638546289	9.977898738933
7	1118	2410.816573833931	11.841007605103
7	1119	2412.459704265654	13.091608197
7	1120	2413.393706365733	10.588491887852
7	1121	2414.281940401093	4.608171012359
7	1124	2417.435661793298	0
7	1140	2453.783341430192	17.675402244774
7	1143	2455.961931496541	18.641649804036
7	1144	2459.215039801984	18.915055053802
7	1145	2460.132675157952	4.430159076393
7	1148	2465.779298357275	0
7	1154	2468.650933805032	0.615885610716
7	1160	2480.2962639258	0
7	1163	2486.133993132066	0
7	1166	2488.977018924844	0
7	1169	2493.103311790017	3.376591161958
8	188	392.131841814749	31
8	189	392.291527273681	32
8	190	393.24425648857	33
8	191	395.778818627393	34
8	192	396.078482417316	35
8	193	397.481687537569	36
8	194	398.067931532953	37
8	197	400.549714623326	38
8	203	404.052271936771	39
8	204	405.183627075031	40
8	205	406.128687573221	41
8	206	406.630518672626	42
8	207	407.15067040238	43
8	227	463.327556293925	44
8	228	464.123219065918	45
8	231	468.09766554779	46
8	240	481.477681334068	47
8	251	514.021207019708	48
8	252	514.420007073038	49
8	258	530.430449664054	50
8	261	532.36088460698	51
8	273	564.632653433177	52
8	285	607.909486317025	53
8	288	610.062217850583	54
8	291	624.388398331959	55
8	294	626.3147911698	56
8	297	634.839298683546	57
8	310	650.411095151768	58
8	311	650.529072991757	59
8	312	651.523104831474	60
8	315	669.728092095086	61
8	318	670.985900009014	62
8	321	678.947036213504	63
8	324	683.017090275767	64
8	327	699.42515218371	65
8	330	705.875215469473	66
8	333	719.022569943399	67
8	352	771.059085332541	68
8	353	771.244976727567	69
8	356	773.253249796417	70
8	357	775.09577985244	71
8	358	775.386974946978	72
8	359	776.187645800661	73
8	360	777.157248064572	74
8	363	784.160509100894	75
8	366	794.483199441135	76
8	369	800.830064731599	77
8	375	815.246044699902	78
8	378	876.884664189988	79
8	381	880.319711675293	80
8	421	940.627170223657	81
8	422	940.644189324943	82
8	423	943.10243464966	83
8	424	943.985329333372	84
8	425	944.307923528055	85
8	426	946.253415848393	86
8	427	947.191728519151	87
8	430	948.456707854209	88
8	431	948.774489475505	89
8	432	954.711540766528	90
8	438	965.831767617549	91
8	441	970.685705333127	92
8	444	978.495033159584	93
8	447	979.384267994375	94
8	450	985.615366617616	95
8	453	992.950852251978	96
8	464	1012.233282845416	97
8	465	1013.577284660073	98
8	477	1057.556782101497	99
8	504	1094.26790869944	100
8	505	1098.197750209624	101
8	506	1098.548413099695	102
8	507	1099.734969666725	103
8	508	1099.832032239693	104
8	519	1104.962420640896	105
8	522	1105.678545955649	106
8	523	1109.092585243231	107
8	524	1109.427627203477	108
8	525	1110.171656409174	109
8	526	1112.435210173818	110
8	527	1113.149290357414	111
8	530	1114.782384388676	112
8	531	1116.36388022568	113
8	534	1119.631230152487	114
8	537	1132.196058805598	115
8	540	1150.371506572743	116
8	543	1169.010862876147	117
8	546	1177.85832223159	118
8	551	1181.342263405003	119
8	552	1182.263503720655	120
8	563	1217.354311637438	121
8	564	1220.576661356053	122
8	570	1258.018257398575	123
8	575	1263.264088602735	124
8	576	1263.467449071245	125
8	579	1265.318621193083	126
8	608	1342.339993709351	127
8	618	1353.656717730261	128
8	622	1356.015981201201	129
8	623	1361.669775327316	130
8	627	1371.757205726835	131
8	638	1397.480734166712	132
8	639	1399.682808162971	133
8	642	1432.810754078782	134
8	647	1435.985339210478	135
8	648	1436.029001845895	136
8	651	1442.084485058471	137
8	660	1472.515945956013	138
8	666	1495.033666544603	139
8	679	1541.55289903253	140
8	680	1543.233313461845	141
8	681	1545.889790980763	142
8	696	1572.620127220555	143
8	700	1583.575784934661	144
8	701	1584.026395219157	145
8	702	1584.485297578161	146
8	705	1592.577861246418	147
8	710	1597.489504989408	148
8	711	1598.832697983871	149
8	714	1619.070164335509	150
8	717	1622.519464738132	151
8	732	1657.77472517081	152
8	738	1677.387521244313	153
8	741	1680.782899737075	154
8	744	1683.415102895469	155
8	766	1704.996800552174	156
8	767	1705.029712040239	157
8	770	1707.367813639414	158
8	771	1709.145225637565	159
8	777	1728.298143005263	160
8	780	1737.974192298541	161
8	789	1777.389537346913	162
8	792	1782.995075665002	163
8	797	1785.737863345737	164
8	798	1786.927367337226	165
8	801	1788.107621288957	166
8	804	1793.245494823171	167
8	813	1811.879635336187	168
8	816	1813.180710626792	169
8	821	1821.054796035196	170
8	822	1821.158104860949	171
8	825	1824.085181622821	172
8	828	1844.261453171856	173
8	831	1857.082444194944	174
8	834	1858.477025967759	175
8	846	1881.27217915663	176
8	849	1886.389124239319	177
8	857	1890.67854627178	178
8	888	1921.445389314723	179
8	896	1932.334201927632	180
8	899	1936.049016657542	181
8	900	1938.1921804265	182
8	903	1940.083213219401	183
8	907	1945.689371430066	184
8	908	1946.344551894287	185
8	909	1947.786651573329	186
8	910	1948.198468695311	187
8	911	1948.661171643417	188
8	912	1950.546781348528	189
8	915	1954.89513696259	190
8	918	1963.089054301125	191
8	921	1969.425880302187	192
8	927	1976.34559854605	193
8	930	1981.015515683374	194
8	935	1990.578504858295	195
8	936	1993.726043102156	196
8	939	2000.324120689107	197
8	947	2012.932975018621	198
8	948	2014.32925846108	199
8	951	2028.499783646513	200
8	954	2032.380027177338	201
8	968	2072.420653277727	202
8	969	2073.586592839834	203
8	970	2074.353807691795	204
8	971	2075.670532509801	205
8	972	2078.963438881496	206
8	995	2138.541081659949	207
8	996	2139.186194190982	208
8	997	2139.735877259782	209
8	998	2141.848200344858	210
8	999	2144.792165088856	211
8	1002	2145.52969592024	212
8	1008	2156.460647555215	213
8	1011	2159.290101254822	214
8	1014	2170.564576881031	215
8	1022	2184.659327071202	216
8	1023	2185.910647199158	217
8	1029	2192.151759314003	218
8	1032	2207.907072371187	219
8	1038	2222.347190652835	220
8	1044	2266.006859408042	221
8	1047	2266.980098282677	222
8	1053	2270.101862407625	223
8	1056	2275.750349088385	224
8	1062	2296.033292907751	225
8	1065	2299.465228952608	226
8	1075	2305.735664883144	227
8	1076	2309.146552093391	228
8	1077	2309.392570160434	229
8	1080	2314.841423665741	230
8	1083	2316.501113297413	231
8	1086	2342.195162866373	232
8	1089	2343.862237797618	233
8	1092	2346.035776724368	234
8	1095	2365.561915187206	235
8	1112	2402.441322750726	236
8	1115	2407.622638546289	237
8	1118	2410.816573833931	238
8	1119	2412.459704265654	239
8	1120	2413.393706365733	240
8	1121	2414.281940401093	241
8	1122	2415.62094914427	242
8	1125	2417.816941800668	243
8	1143	2455.961931496541	244
8	1144	2459.215039801984	245
8	1145	2460.132675157952	246
8	1146	2460.588464110553	247
8	1149	2465.828907631019	248
8	1155	2468.79322229495	249
8	1161	2481.06658700513	250
8	1164	2487.814618627267	251
8	1170	2496.338140840308	252
9	188	392.131841814749	70.688333987955
9	189	392.291527273681	67.431277442218
9	190	393.24425648857	53.436442313756
9	191	395.778818627393	34.191004160442
9	192	396.078482417316	25.561119799752
9	193	397.481687537569	16.331368145289
9	194	398.067931532953	15.06782476733
9	197	400.549714623326	15.343982763737
9	203	404.052271936771	12.584626916119
9	204	405.183627075031	13.393299417275
9	205	406.128687573221	5.888412896756
9	206	406.630518672626	5.471138527125
9	207	407.15067040238	4.301638409704
9	227	463.327556293925	47.501677237226
9	228	464.123219065918	17.348191871027
9	231	468.09766554779	0.094316879332
9	240	481.477681334068	1.700518833766
9	251	514.021207019708	16.378174148611
9	252	514.420007073038	13.352533650478
9	258	530.430449664054	0.710108933366
9	261	532.36088460698	1.696340861581
9	273	564.632653433177	0.001791754
9	285	607.909486317025	0.849329120797
9	288	610.062217850583	1.24511784836
9	291	624.388398331959	0.735716797923
9	294	626.3147911698	0.046575758543
9	297	634.839298683546	0.612959169574
9	310	650.411095151768	7.418453638671
9	311	650.529072991757	7.4031476149
9	312	651.523104831474	2.271844566935
9	315	669.728092095086	6.596151376734
9	318	670.985900009014	0.612295381371
9	321	678.947036213504	1.13545491705
9	324	683.017090275767	1.691942427612
9	327	699.42515218371	1.711197322419
9	330	705.875215469473	0.204626240798
9	333	719.022569943399	0.744237407405
9	352	771.059085332541	31.688293034559
9	353	771.244976727567	31.713963695495
9	356	773.253249796417	31.367436502196
9	357	775.09577985244	26.01125602511
9	358	775.386974946978	19.679673856743
9	359	776.187645800661	9.300274085097
9	360	777.157248064572	5.447315388292
9	363	784.160509100894	0.913300141894
9	366	794.483199441135	0.919582901181
9	369	800.830064731599	0.605094087419
9	375	815.246044699902	0.260048798179
9	378	876.884664189988	0.147602588115
9	381	880.319711675293	0.056360475065
9	421	940.627170223657	55.719442975794
9	422	940.644189324943	47.586193604251
9	423	943.10243464966	45.480868816234
9	424	943.985329333372	39.298061652937
9	425	944.307923528055	38.159734085929
9	426	946.253415848393	26.791991075199
9	427	947.191728519151	23.72280401331
9	430	948.456707854209	15.084672457447
9	431	948.774489475505	13.535358924468
9	432	954.711540766528	7.350363300507
9	438	965.831767617549	0.118372715543
9	441	970.685705333127	1.54140383765
9	444	978.495033159584	0.04876574747
9	447	979.384267994375	0.093318156878
9	450	985.615366617616	0.24811798565
9	453	992.950852251978	1.034472749343
9	464	1012.233282845416	8.196973452922
9	465	1013.577284660073	6.263989805182
9	477	1057.556782101497	2.303559264886
9	504	1094.26790869944	29.055251493075
9	505	1098.197750209624	23.739016047555
9	506	1098.548413099695	13.813322335805
9	507	1099.734969666725	14.814959052504
9	508	1099.832032239693	14.487855513116
9	519	1104.962420640896	18.11511806209
9	522	1105.678545955649	14.685273420613
9	523	1109.092585243231	7.73346635592
9	524	1109.427627203477	6.700755513284
9	525	1110.171656409174	7.39779675831
9	526	1112.435210173818	9.626507106152
9	527	1113.149290357414	9.590597780413
9	530	1114.782384388676	9.283856745136
9	531	1116.36388022568	2.465304083741
9	534	1119.631230152487	1.41305725009
9	537	1132.196058805598	2.909815369589
9	540	1150.371506572743	1.040839060366
9	543	1169.010862876147	0.877923548758
9	546	1177.85832223159	0.600749405775
9	551	1181.342263405003	1.141503536132
9	552	1182.263503720655	1.899970766412
9	563	1217.354311637438	23.657879221653
9	564	1220.576661356053	22.540298446557
9	570	1258.018257398575	1.215056094335
9	575	1263.264088602735	0.692594614995
9	576	1263.467449071245	0.649616175332
9	579	1265.318621193083	0.874827435771
9	608	1342.339993709351	25.503026884179
9	618	1353.656717730261	27.691965973058
9	622	1356.015981201201	14.119661497179
9	623	1361.669775327316	17.72407727264
9	627	1371.757205726835	7.975129724415
9	638	1397.480734166712	6.767068242113
9	639	1399.682808162971	8.191662186798
9	642	1432.810754078782	0.701154712001
9	647	1435.985339210478	0.560840706702
9	648	1436.029001845895	0.57754808144
9	651	1442.084485058471	5.737083494621
9	660	1472.515945956013	1.978792872298
9	666	1495.033666544603	0.495421276207
9	679	1541.55289903253	21.13032331751
9	680	1543.233313461845	9.992745314749
9	681	1545.889790980763	8.497114129829
9	696	1572.620127220555	19.874329598879
9	700	1583.575784934661	16.878330202844
9	701	1584.026395219157	12.88682030437
9	702	1584.485297578161	10.982756406083
9	705	1592.577861246418	1.304892730933
9	710	1597.489504989408	2.306960708806
9	711	1598.832697983871	2.055557065304
9	714	1619.070164335509	1.159548763798
9	717	1622.519464738132	0.0899167732
9	732	1657.77472517081	28.335057957781
9	738	1677.387521244313	0.819264117316
9	741	1680.782899737075	0.515982723825
9	744	1683.415102895469	1.779734818931
9	766	1704.996800552174	19.754739865574
9	767	1705.029712040239	11.815626173088
9	770	1707.367813639414	13.517475053867
9	771	1709.145225637565	3.779319062088
9	777	1728.298143005263	0.559548582231
9	780	1737.974192298541	0.450614054668
9	789	1777.389537346913	0.908465755153
9	792	1782.995075665002	1.096699824695
9	797	1785.737863345737	2.486482829473
9	798	1786.927367337226	3.51880263005
9	801	1788.107621288957	0.231339115785
9	804	1793.245494823171	0.678577654191
9	813	1811.879635336187	8.804515490472
9	816	1813.180710626792	0.772305930321
9	821	1821.054796035196	1.040767305615
9	822	1821.158104860949	0.56126203843
9	825	1824.085181622821	0.048173876047
9	828	1844.261453171856	0.390312058346
9	831	1857.082444194944	3.68560583593
9	834	1858.477025967759	0.001512668507
9	846	1881.27217915663	4.385236262761
9	849	1886.389124239319	0.325504828584
9	857	1890.67854627178	1.827950187963
9	888	1921.445389314723	27.793528475163
9	896	1932.334201927632	30.132291726577
9	899	1936.049016657542	31.454165659379
9	900	1938.1921804265	31.005759991791
9	903	1940.083213219401	28.802708329244
9	907	1945.689371430066	23.058634707681
9	908	1946.344551894287	17.715759739051
9	909	1947.786651573329	16.779518908127
9	910	1948.198468695311	15.46486347397
9	911	1948.661171643417	8.779187037922
9	912	1950.546781348528	10.280598134309
9	915	1954.89513696259	0.557661891466
9	918	1963.089054301125	1.684917996077
9	921	1969.425880302187	1.599008044461
9	927	1976.34559854605	2.367828900531
9	930	1981.015515683374	0.216714821354
9	935	1990.578504858295	1.932445547461
9	936	1993.726043102156	3.436523123275
9	939	2000.324120689107	1.441496654356
9	947	2012.932975018621	2.685960591651
9	948	2014.32925846108	3.722663911729
9	951	2028.499783646513	0.092126181731
9	954	2032.380027177338	1.760942268287
9	968	2072.420653277727	25.536117522545
9	969	2073.586592839834	23.651836972082
9	970	2074.353807691795	21.279937486969
9	971	2075.670532509801	12.134292138122
9	972	2078.963438881496	10.784047076812
9	995	2138.541081659949	32.296402757189
9	996	2139.186194190982	27.514181731502
9	997	2139.735877259782	15.459300341307
9	998	2141.848200344858	15.841913645578
9	999	2144.792165088856	7.064676545454
9	1002	2145.52969592024	0.433801238797
9	1008	2156.460647555215	4.873326264397
9	1011	2159.290101254822	1.702211070415
9	1014	2170.564576881031	2.803061737545
9	1022	2184.659327071202	2.820659182952
9	1023	2185.910647199158	2.911716419932
9	1029	2192.151759314003	0.772606838025
9	1032	2207.907072371187	0.388564697879
9	1038	2222.347190652835	3.973850235202
9	1044	2266.006859408042	3.318025488394
9	1047	2266.980098282677	0.208820322123
9	1053	2270.101862407625	1.960630437065
9	1056	2275.750349088385	1.520367170259
9	1062	2296.033292907751	0.105282992897
9	1065	2299.465228952608	0.097628717193
9	1075	2305.735664883144	4.010905296073
9	1076	2309.146552093391	7.193395027037
9	1077	2309.392570160434	6.376469907824
9	1080	2314.841423665741	0.339029283868
9	1083	2316.501113297413	0.817524609065
9	1086	2342.195162866373	2.352542975002
9	1089	2343.862237797618	1.204740490544
9	1092	2346.035776724368	1.211908323666
9	1095	2365.561915187206	1.45681726814
9	1112	2402.441322750726	10.66950661096
9	1115	2407.622638546289	15.744307520239
9	1118	2410.816573833931	13.171834026575
9	1119	2412.459704265654	13.484138036826
9	1120	2413.393706365733	14.025610297079
9	1121	2414.281940401093	11.476725923212
9	1122	2415.62094914427	5.947179755536
9	1125	2417.816941800668	0.38128000737
9	1143	2455.961931496541	19.853992311123
9	1144	2459.215039801984	21.894758109479
9	1145	2460.132675157952	19.83269040977
9	1146	2460.588464110553	4.885948028994
9	1149	2465.828907631019	0.049609273744
9	1155	2468.79322229495	0.758174100634
9	1161	2481.06658700513	0.77032307933
9	1164	2487.814618627267	1.680625495201
9	1170	2496.338140840308	6.611420212249
10	199	401.159380145501	3
10	211	408.580972013092	4
10	225	446.775027194891	5
10	303	643.125925376857	6
10	385	884.907727247863	7
10	481	1065.212657206365	8
10	604	1338.793171785704	9
10	610	1343.945698054676	10
10	620	1354.444723385226	11
10	625	1363.78207600242	12
10	698	1573.502541172078	13
10	811	1803.075119845715	14
10	855	1890.39997952919	15
10	859	1891.62937734553	16
10	864	1895.714537944116	17
10	892	1928.628792155236	18
10	905	1940.266183214219	19
10	1073	2303.01610025261	20
10	1168	2489.726720628059	21
11	1171	2500	0.1008
12	1171	2500	0.0552

