file 67141 1678273424                                           
version 2
run experiments_easy_game_mode1-526-20230308-12:03:44-21039
attr configname experiments_easy_game_mode1
attr datetime 20230308-12:03:44
attr experiment experiments_easy_game_mode1
attr inifile omnetpp.ini
attr iterationvars "$0=5.5, $1=2, $2=100"
attr iterationvarsf 5.5,2,100-
attr measurement "$0=5.5, $1=2, $2=100"
attr network Network
attr processid 21039
attr repetition 16
attr replication #16
attr resultdir results
attr runnumber 526
attr seedset 16
param *.boss.arrival_mean 20
param *.boss.service_mean 5.5
param *.minion.arrival_mean 10
param *.minion.service_mean 2
param *.player.recover_rate_x 100
param **.minion.arrival_distribution 0
param **.minion.service_distribution 0
param **.boss.arrival_distribution 0
param **.boss.service_distribution 0

vector 0 Network.player minion_jobs_number_stat:vector ETV
attr source signal_minion_jobs_number
vector 1 Network.player minion_jobs_queue_number_stat:vector ETV
attr source signal_minion_jobs_queue_number
vector 2 Network.player minion_waiting_time_stat:vector ETV
attr source signal_minion_waiting_time
vector 3 Network.player boss_jobs_number_stat:vector ETV
attr source signal_boss_jobs_number
vector 4 Network.player boss_jobs_queue_number_stat:vector ETV
attr source signal_boss_jobs_queue_number
vector 5 Network.player minion_recovered_stat:vector ETV
attr source signal_minion_recovered
vector 6 Network.player boss_waiting_time_stat:vector ETV
attr source signal_boss_waiting_time
vector 7 Network.player boss_defeated_stat:vector ETV
attr source signal_boss_defeated
vector 8 Network.player boss_response_time_stat:vector ETV
attr source signal_boss_response_time
vector 9 Network.player minion_defeated_stat:vector ETV
attr source signal_minion_defeated
vector 10 Network.player minion_response_time_stat:vector ETV
attr source signal_minion_response_time
vector 11 Network.player minion_throughput:vector ETV
attr source signal_minion_throughput
vector 12 Network.player boss_throughput:vector ETV
attr source signal_boss_throughput
0	2021 5893 161 1238 368.8046549948 2480.211963592418 228 1 7 432 1238
1	7914 11789 161 1239 368.8046549948 2488.388945990494 456 0 6 408 1204
2	19703 8399 161 1238 368.8046549948 2480.211963592418 251 0 48.549421764909 1869.4450037304 48858.504591721
3	28102 3387 165 1226 369.138949755894 2458.382625969776 132 1 6 213 457
4	31489 6781 165 1227 369.138949755894 2460.652463919846 264 0 5 162 326
5	38270 612 165 1123 369.138949755894 2310.846390442859 23 3 25 322 5520
6	38882 4083 165 1226 369.138949755894 2458.382625969776 132 0 20.71958832575 396.91450081597 4846.9706448362
7	42965 3581 166 1227 374.067875408627 2460.652463919846 132 23 154 11682 1225510
8	46546 5142 166 1227 374.067875408627 2460.652463919846 132 0.046461171414 32.262132722477 1138.3561582497 17660.759314042
9	51688 6284 167 1239 376.752103432962 2488.388945990494 228 32 259 33174 5814494
10	57972 9128 167 1239 376.752103432962 2488.388945990494 228 0.033997320958 49.597947912359 2124.5625136133 53497.178116605
11	67100 20 1240 1240 2500 2500 1 0.1036 0.1036 0.1036 0.01073296
12	67120 20 1240 1240 2500 2500 1 0.0616 0.0616 0.0616 0.00379456

