version 2
run experiments_easy_game_mode1-2107-20230308-12:09:10-29325
attr configname experiments_easy_game_mode1
attr datetime 20230308-12:09:10
attr experiment experiments_easy_game_mode1
attr inifile omnetpp.ini
attr iterationvars "$0=7.5, $1=3.5, $2=0"
attr iterationvarsf 7.5,3.5,0-
attr measurement "$0=7.5, $1=3.5, $2=0"
attr network Network
attr processid 29325
attr repetition 7
attr replication #7
attr resultdir results
attr runnumber 2107
attr seedset 7
param *.boss.arrival_mean 20
param *.boss.service_mean 7.5
param *.minion.arrival_mean 10
param *.minion.service_mean 3.5
param *.player.recover_rate_x 0
param **.minion.arrival_distribution 0
param **.minion.service_distribution 0
param **.boss.arrival_distribution 0
param **.boss.service_distribution 0

vector 0 Network.player boss_jobs_number_stat:vector ETV
attr source signal_boss_jobs_number
vector 1 Network.player boss_jobs_queue_number_stat:vector ETV
attr source signal_boss_jobs_queue_number
vector 2 Network.player boss_waiting_time_stat:vector ETV
attr source signal_boss_waiting_time
vector 3 Network.player minion_jobs_number_stat:vector ETV
attr source signal_minion_jobs_number
vector 4 Network.player minion_jobs_queue_number_stat:vector ETV
attr source signal_minion_jobs_queue_number
vector 5 Network.player boss_defeated_stat:vector ETV
attr source signal_boss_defeated
vector 6 Network.player boss_response_time_stat:vector ETV
attr source signal_boss_response_time
vector 7 Network.player minion_waiting_time_stat:vector ETV
attr source signal_minion_waiting_time
vector 8 Network.player minion_defeated_stat:vector ETV
attr source signal_minion_defeated
vector 9 Network.player minion_response_time_stat:vector ETV
attr source signal_minion_response_time
vector 10 Network.player minion_recovered_stat:vector ETV
attr source signal_minion_recovered
vector 11 Network.player minion_throughput:vector ETV
attr source signal_minion_throughput
vector 12 Network.player boss_throughput:vector ETV
attr source signal_boss_throughput
0	122	354.444077836132	1
0	134	406.898104172744	1
0	138	412.257206650644	2
0	154	436.114629776888	1
0	162	453.737651697012	2
0	164	454.215286568968	3
0	172	464.656055005741	2
0	175	476.260410756314	2
0	179	479.189485801982	1
0	182	483.085877055807	1
0	190	498.797104969028	1
0	193	504.528118920206	1
0	199	519.131660745384	1
0	227	592.360836225431	1
0	230	621.482739564962	1
0	232	622.989798236534	2
0	251	677.30644856781	1
0	257	692.35140995363	1
0	259	694.23110564586	2
0	261	699.495877799079	3
0	267	703.853308695614	2
0	269	710.741952008659	3
0	304	813.718144071485	1
0	311	827.514843339431	1
0	314	832.877151770902	1
0	316	834.115971989249	2
0	325	839.578052108125	2
0	340	879.643308591697	1
0	346	899.479755191889	1
0	376	976.565614317659	1
0	386	1003.12254496667	1
0	388	1003.62455407805	2
0	392	1026.941684101135	1
0	394	1030.833821058568	2
0	397	1031.466333288233	2
0	402	1039.284372261193	2
0	420	1085.845270508107	1
0	427	1100.918783639256	1
0	431	1107.668427627462	2
0	455	1161.237628372735	1
0	464	1177.458798046421	1
0	485	1243.026575003035	1
0	488	1252.472146928695	1
0	527	1354.658220514177	1
0	529	1355.197924768725	2
0	537	1382.867144682827	1
0	543	1396.497411846483	2
0	548	1406.293757776049	1
0	554	1442.295449873716	1
0	561	1451.72734647732	1
0	569	1460.872643203582	1
0	577	1481.237026826022	1
0	581	1495.724918166403	1
0	583	1499.13631228092	2
0	591	1511.92385810321	1
0	610	1581.533932958997	1
0	614	1591.294094495414	1
0	638	1665.178439283615	1
0	650	1692.44070236867	1
0	652	1693.608171517466	2
0	657	1701.774818324175	2
0	664	1707.872550576227	2
0	681	1725.971570480458	1
0	685	1730.598897677657	1
0	690	1738.198745412658	1
0	698	1744.347793922827	1
0	703	1752.848412235259	1
0	708	1757.78363004108	1
0	712	1763.399925835698	1
0	714	1764.921157897889	2
0	723	1788.864423319195	1
0	729	1799.117948212139	2
0	731	1803.885143658398	3
0	736	1812.247238961048	3
0	739	1818.46743115362	3
0	755	1847.235945382245	1
0	760	1856.600659787436	1
0	779	1884.986909974073	1
0	782	1902.010481329994	1
0	786	1909.821559344625	2
0	810	1959.686324650859	1
0	812	1961.530443557048	2
0	827	1995.712949519735	1
0	830	2010.305708730489	1
0	834	2013.868655704263	2
0	839	2033.511827931655	1
0	843	2034.000853631123	2
0	846	2042.018879043449	2
0	869	2072.729029228804	1
0	871	2074.942192120614	2
0	875	2081.096007312855	1
0	884	2101.959760183306	1
0	887	2110.250898302535	1
0	890	2116.31426357427	1
0	901	2149.994215450844	1
0	909	2162.535855115292	1
0	920	2195.484333627378	1
0	923	2206.573676180957	1
0	932	2220.180729233857	1
0	941	2234.82324390748	1
0	959	2272.150202713364	1
0	973	2294.213482175366	1
0	983	2303.302072368365	2
0	1016	2403.073108456165	1
0	1018	2404.053361099046	2
0	1028	2423.00394114612	1
0	1030	2429.138406406712	2
0	1034	2436.588983293494	1
0	1043	2449.056449732793	1
0	1050	2456.915004370078	1
0	1064	2480.556299264915	1
1	122	354.444077836132	0
1	125	372.369363124178	0
1	134	406.898104172744	0
1	138	412.257206650644	1
1	143	425.662426747013	1
1	144	426.195735248698	0
1	154	436.114629776888	0
1	162	453.737651697012	1
1	164	454.215286568968	2
1	167	456.751853074499	2
1	168	457.339262852971	1
1	172	464.656055005741	1
1	173	470.920579218173	1
1	175	476.260410756314	1
1	176	476.802398608826	1
1	177	477.694733120356	0
1	179	479.189485801982	0
1	180	479.89187011911	0
1	182	483.085877055807	0
1	187	496.594868477596	0
1	190	498.797104969028	0
1	191	502.411380293356	0
1	193	504.528118920206	0
1	194	510.855766124832	0
1	199	519.131660745384	0
1	200	527.41398435214	0
1	227	592.360836225431	0
1	228	594.465447452213	0
1	230	621.482739564962	0
1	232	622.989798236534	1
1	233	625.687705538416	1
1	234	626.786082902557	0
1	251	677.30644856781	0
1	252	677.643586049412	0
1	257	692.35140995363	0
1	259	694.23110564586	1
1	261	699.495877799079	2
1	262	701.954964917661	2
1	265	703.575163097475	1
1	267	703.853308695614	1
1	269	710.741952008659	2
1	276	739.907636839787	2
1	277	744.345999688329	1
1	278	745.377353520166	0
1	304	813.718144071485	0
1	305	814.202769220197	0
1	311	827.514843339431	0
1	312	829.38180443348	0
1	314	832.877151770902	0
1	316	834.115971989249	1
1	319	835.526194220298	1
1	325	839.578052108125	1
1	326	841.018648103172	1
1	331	862.587404175491	0
1	340	879.643308591697	0
1	341	884.230398052662	0
1	346	899.479755191889	0
1	349	901.972875117317	0
1	376	976.565614317659	0
1	377	976.88656233702	0
1	386	1003.12254496667	0
1	388	1003.62455407805	1
1	389	1005.459216446171	1
1	390	1012.688219058447	0
1	392	1026.941684101135	0
1	394	1030.833821058568	1
1	395	1030.863661088054	1
1	397	1031.466333288233	1
1	398	1036.579822009831	1
1	402	1039.284372261193	1
1	403	1049.694658279011	1
1	404	1051.69543867092	0
1	420	1085.845270508107	0
1	421	1091.145063853015	0
1	427	1100.918783639256	0
1	431	1107.668427627462	1
1	432	1112.614386576728	1
1	433	1114.969329188439	0
1	455	1161.237628372735	0
1	456	1165.01795442507	0
1	464	1177.458798046421	0
1	465	1180.577303811295	0
1	485	1243.026575003035	0
1	486	1243.252043969502	0
1	488	1252.472146928695	0
1	495	1279.981947352771	0
1	527	1354.658220514177	0
1	529	1355.197924768725	1
1	532	1372.46793782754	1
1	533	1373.995794691111	0
1	537	1382.867144682827	0
1	543	1396.497411846483	1
1	544	1398.14180180156	1
1	545	1400.222534471929	0
1	548	1406.293757776049	0
1	549	1412.578684166738	0
1	554	1442.295449873716	0
1	559	1451.090442973937	0
1	561	1451.72734647732	0
1	564	1455.089244521599	0
1	569	1460.872643203582	0
1	570	1464.505667551885	0
1	577	1481.237026826022	0
1	578	1486.426111169696	0
1	581	1495.724918166403	0
1	583	1499.13631228092	1
1	584	1500.366375020006	1
1	589	1507.832501929599	0
1	591	1511.92385810321	0
1	594	1520.358527662751	0
1	610	1581.533932958997	0
1	611	1589.40651515404	0
1	614	1591.294094495414	0
1	615	1591.966319518217	0
1	638	1665.178439283615	0
1	643	1680.431454978199	0
1	650	1692.44070236867	0
1	652	1693.608171517466	1
1	653	1694.440163635645	1
1	657	1701.774818324175	1
1	658	1703.799081485665	1
1	664	1707.872550576227	1
1	665	1709.342369001952	1
1	670	1716.377936003007	0
1	681	1725.971570480458	0
1	682	1726.508730478783	0
1	685	1730.598897677657	0
1	686	1731.881176091579	0
1	690	1738.198745412658	0
1	693	1738.90802655323	0
1	698	1744.347793922827	0
1	699	1751.733843426504	0
1	703	1752.848412235259	0
1	704	1753.506190965773	0
1	708	1757.78363004108	0
1	709	1758.772696723912	0
1	712	1763.399925835698	0
1	714	1764.921157897889	1
1	715	1766.323346674922	1
1	718	1777.696754089464	0
1	723	1788.864423319195	0
1	729	1799.117948212139	1
1	731	1803.885143658398	2
1	732	1806.999679087755	2
1	736	1812.247238961048	2
1	737	1817.604766615966	2
1	739	1818.46743115362	2
1	748	1830.982755637668	2
1	749	1833.265373579353	1
1	750	1843.664989683425	0
1	755	1847.235945382245	0
1	758	1854.404240514167	0
1	760	1856.600659787436	0
1	761	1861.351694956389	0
1	779	1884.986909974073	0
1	780	1900.328499170286	0
1	782	1902.010481329994	0
1	786	1909.821559344625	1
1	789	1917.159341565209	1
1	790	1921.473445839426	0
1	810	1959.686324650859	0
1	812	1961.530443557048	1
1	813	1962.142691167089	1
1	814	1962.331291213885	0
1	827	1995.712949519735	0
1	828	1996.351661225356	0
1	830	2010.305708730489	0
1	834	2013.868655704263	1
1	835	2015.517754625538	1
1	836	2016.729692258056	0
1	839	2033.511827931655	0
1	843	2034.000853631123	1
1	844	2037.663575252422	1
1	846	2042.018879043449	1
1	849	2042.784100093719	1
1	854	2053.051491844128	0
1	869	2072.729029228804	0
1	871	2074.942192120614	1
1	872	2075.443967836505	1
1	873	2078.678368760866	0
1	875	2081.096007312855	0
1	876	2083.790024140087	0
1	884	2101.959760183306	0
1	885	2102.677361382052	0
1	887	2110.250898302535	0
1	888	2110.306505810963	0
1	890	2116.31426357427	0
1	897	2138.451999822754	0
1	901	2149.994215450844	0
1	904	2156.490893020548	0
1	909	2162.535855115292	0
1	910	2168.492625227426	0
1	920	2195.484333627378	0
1	921	2204.986659073481	0
1	923	2206.573676180957	0
1	926	2212.224858287717	0
1	932	2220.180729233857	0
1	935	2224.10326903611	0
1	941	2234.82324390748	0
1	942	2236.915828279824	0
1	959	2272.150202713364	0
1	962	2273.484365988256	0
1	973	2294.213482175366	0
1	983	2303.302072368365	1
1	984	2303.448305217228	1
1	985	2305.219134814552	0
1	1016	2403.073108456165	0
1	1018	2404.053361099046	1
1	1019	2409.773973529073	1
1	1024	2420.481191820249	0
1	1028	2423.00394114612	0
1	1030	2429.138406406712	1
1	1031	2429.174646709481	1
1	1032	2432.495924513495	0
1	1034	2436.588983293494	0
1	1039	2441.900648631244	0
1	1043	2449.056449732793	0
1	1044	2452.727503024539	0
1	1050	2456.915004370078	0
1	1051	2458.166175665666	0
1	1064	2480.556299264915	0
1	1065	2491.072147248292	0
2	122	354.444077836132	0
2	134	406.898104172744	0
2	143	425.662426747013	13.405220096369
2	154	436.114629776888	0
2	167	456.751853074499	3.014201377487
2	168	457.339262852971	3.123976284003
2	173	470.920579218173	6.264524212432
2	176	476.802398608826	0.541987852512
2	179	479.189485801982	0
2	182	483.085877055807	0
2	190	498.797104969028	0
2	193	504.528118920206	0
2	199	519.131660745384	0
2	227	592.360836225431	0
2	230	621.482739564962	0
2	233	625.687705538416	2.697907301882
2	251	677.30644856781	0
2	257	692.35140995363	0
2	262	701.954964917661	7.723859271801
2	265	703.575163097475	4.079285298396
2	276	739.907636839787	36.054328144173
2	277	744.345999688329	33.60404767967
2	304	813.718144071485	0
2	311	827.514843339431	0
2	314	832.877151770902	0
2	319	835.526194220298	1.410222231049
2	326	841.018648103172	1.440595995047
2	340	879.643308591697	0
2	346	899.479755191889	0
2	376	976.565614317659	0
2	386	1003.12254496667	0
2	389	1005.459216446171	1.834662368121
2	392	1026.941684101135	0
2	395	1030.863661088054	0.029840029486
2	398	1036.579822009831	5.113488721598
2	403	1049.694658279011	10.410286017818
2	420	1085.845270508107	0
2	427	1100.918783639256	0
2	432	1112.614386576728	4.945958949266
2	455	1161.237628372735	0
2	464	1177.458798046421	0
2	485	1243.026575003035	0
2	488	1252.472146928695	0
2	527	1354.658220514177	0
2	532	1372.46793782754	17.270013058815
2	537	1382.867144682827	0
2	544	1398.14180180156	1.644389955077
2	548	1406.293757776049	0
2	554	1442.295449873716	0
2	561	1451.72734647732	0
2	569	1460.872643203582	0
2	577	1481.237026826022	0
2	581	1495.724918166403	0
2	584	1500.366375020006	1.230062739086
2	591	1511.92385810321	0
2	610	1581.533932958997	0
2	614	1591.294094495414	0
2	638	1665.178439283615	0
2	650	1692.44070236867	0
2	653	1694.440163635645	0.831992118179
2	658	1703.799081485665	2.02426316149
2	665	1709.342369001952	1.469818425725
2	681	1725.971570480458	0
2	685	1730.598897677657	0
2	690	1738.198745412658	0
2	698	1744.347793922827	0
2	703	1752.848412235259	0
2	708	1757.78363004108	0
2	712	1763.399925835698	0
2	715	1766.323346674922	1.402188777033
2	723	1788.864423319195	0
2	732	1806.999679087755	7.881730875616
2	737	1817.604766615966	13.719622957568
2	748	1830.982755637668	18.73551667662
2	749	1833.265373579353	14.797942425733
2	755	1847.235945382245	0
2	760	1856.600659787436	0
2	779	1884.986909974073	0
2	782	1902.010481329994	0
2	789	1917.159341565209	7.337782220584
2	810	1959.686324650859	0
2	813	1962.142691167089	0.612247610041
2	827	1995.712949519735	0
2	830	2010.305708730489	0
2	835	2015.517754625538	1.649098921275
2	839	2033.511827931655	0
2	844	2037.663575252422	3.662721621299
2	849	2042.784100093719	0.76522105027
2	869	2072.729029228804	0
2	872	2075.443967836505	0.501775715891
2	875	2081.096007312855	0
2	884	2101.959760183306	0
2	887	2110.250898302535	0
2	890	2116.31426357427	0
2	901	2149.994215450844	0
2	909	2162.535855115292	0
2	920	2195.484333627378	0
2	923	2206.573676180957	0
2	932	2220.180729233857	0
2	941	2234.82324390748	0
2	959	2272.150202713364	0
2	973	2294.213482175366	0
2	984	2303.448305217228	0.146232848863
2	1016	2403.073108456165	0
2	1019	2409.773973529073	5.720612430027
2	1028	2423.00394114612	0
2	1031	2429.174646709481	0.036240302769
2	1034	2436.588983293494	0
2	1043	2449.056449732793	0
2	1050	2456.915004370078	0
2	1064	2480.556299264915	0
3	124	362.779012560417	1
3	128	378.94232276728	1
3	131	404.417573523671	1
3	136	410.945070117655	1
3	140	414.426127238478	2
3	142	424.720149536488	3
3	147	426.538650611217	3
3	152	434.202318365371	1
3	156	439.234578117422	2
3	158	440.99737043903	3
3	160	448.144546700357	4
3	166	456.290829722043	5
3	170	459.9730609396	6
3	184	489.431553173651	7
3	186	495.045180807425	8
3	197	515.019738422812	7
3	204	532.743390214778	6
3	207	545.080840038026	6
3	212	553.345193350048	4
3	215	558.53515728906	4
3	219	576.30711615312	3
3	222	578.772894273072	3
3	236	636.631361304735	1
3	239	642.183143198286	1
3	242	646.226482758435	1
3	245	655.747145422117	1
3	247	656.701336655666	2
3	254	687.32047340833	1
3	264	702.185225875771	1
3	271	712.640532632296	2
3	273	714.2584742481	3
3	275	738.109972685136	4
3	280	751.032734217623	5
3	284	752.077991711549	4
3	290	783.121513972541	1
3	293	786.99886226362	1
3	295	787.757912559629	2
3	299	804.658261068389	1
3	302	810.585177372074	1
3	308	817.045913734827	1
3	318	835.441852948545	1
3	321	835.817226806073	2
3	323	837.390078834879	3
3	328	844.859932121541	4
3	330	859.353191058201	5
3	338	879.526058134851	1
3	344	894.748798914436	1
3	348	901.429111008363	2
3	353	912.670828928672	1
3	356	921.083001103788	1
3	359	922.495206296778	1
3	362	924.426246535187	1
3	364	924.827210553039	2
3	368	941.643193032314	1
3	371	952.314999984398	1
3	374	976.309122619328	1
3	379	979.201723983299	2
3	383	993.234354209163	1
3	400	1037.817714041834	1
3	406	1054.86377306729	2
3	408	1062.486238876957	3
3	411	1067.586314668505	3
3	413	1068.196298550826	4
3	418	1081.781918852097	2
3	424	1093.780243235995	2
3	429	1105.299906099446	2
3	435	1115.166361282277	3
3	438	1117.585575416514	3
3	441	1140.197947428563	3
3	443	1143.245327056085	4
3	446	1145.011799952512	4
3	450	1150.608804235597	3
3	453	1160.034678423633	3
3	459	1171.021977446639	3
3	462	1174.834363420373	3
3	470	1184.835546820342	1
3	473	1199.243714448613	1
3	475	1200.03451206652	2
3	478	1201.733882664147	2
3	482	1226.655835093917	1
3	490	1253.232387214677	1
3	492	1263.300329930188	2
3	494	1270.188107608062	3
3	500	1301.695075724682	1
3	503	1319.606710615869	1
3	506	1323.221393193487	1
3	508	1325.834643875292	2
3	510	1326.375745945546	3
3	512	1327.505305647438	4
3	514	1327.930719510784	5
3	518	1339.130112043044	4
3	521	1345.566230223337	4
3	525	1354.217056812716	3
3	531	1364.753652170588	4
3	539	1385.61624942652	3
3	541	1385.873721217589	4
3	556	1444.399947274309	1
3	558	1451.077245172219	2
3	563	1454.297307664281	3
3	572	1466.369209094997	1
3	575	1479.941857648679	1
3	586	1502.106389304741	1
3	588	1505.457368391863	2
3	593	1519.645900163428	3
3	598	1532.601251588089	2
3	601	1539.939842688134	2
3	604	1546.694297322603	2
3	608	1579.360818638479	1
3	617	1599.611571199337	1
3	620	1615.238231094837	1
3	623	1617.008726374054	1
3	626	1618.803667111087	1
3	629	1654.320999339294	1
3	631	1654.530132778208	2
3	633	1655.031343022317	3
3	640	1668.119471991487	1
3	642	1680.17741353523	2
3	646	1685.45785398811	2
3	655	1696.0117990378	1
3	660	1704.068347513425	2
3	662	1704.544076971741	3
3	667	1711.975374516738	4
3	669	1714.173127754168	5
3	672	1718.559366824822	6
3	675	1722.573206414053	6
3	677	1724.64832324279	7
3	692	1738.617628260856	3
3	701	1752.532885940149	1
3	706	1757.074418285213	2
3	717	1775.650069026053	2
3	721	1783.216712739424	2
3	725	1791.646316524924	3
3	727	1796.018681398212	4
3	734	1811.394057054295	5
3	741	1818.623402905251	6
3	743	1820.470659874128	7
3	745	1823.504701725267	8
3	747	1824.776611398249	9
3	753	1843.864454562918	9
3	757	1853.020426018164	10
3	763	1862.781928549067	11
3	765	1862.910194214946	12
3	768	1866.541002019037	12
3	770	1868.111340479915	13
3	775	1883.049181367715	11
3	777	1884.18179652135	12
3	784	1906.77245399804	13
3	788	1913.148113594738	14
3	793	1926.519640148576	14
3	796	1930.890122130338	14
3	807	1950.238507299322	6
3	817	1965.645265703979	5
3	824	1982.800215019916	1
3	832	2013.535855516251	1
3	841	2033.577040077019	1
3	848	2042.019035780318	2
3	851	2046.833801616255	3
3	853	2048.471088520238	4
3	857	2057.923317528761	4
3	860	2063.518800961812	4
3	866	2068.888887785074	1
3	878	2093.375820763635	1
3	881	2096.148318178671	1
3	892	2126.611538650229	1
3	894	2127.243610642487	2
3	896	2131.285105288694	3
3	899	2148.296038955969	4
3	903	2155.411754794041	5
3	906	2160.25086735818	6
3	913	2171.715046139006	5
3	925	2210.271698978259	1
3	929	2215.909237306194	1
3	934	2220.719843061578	1
3	937	2224.656285819337	2
3	939	2234.602854882523	3
3	946	2256.889795796327	2
3	950	2262.748014258532	1
3	952	2264.790023649927	2
3	954	2265.048559352724	3
3	957	2269.762694224587	3
3	961	2272.418185729447	4
3	965	2276.902444097247	4
3	971	2292.009618507136	1
3	975	2294.720392956889	2
3	977	2296.583318064366	3
3	979	2297.701144502198	4
3	981	2303.055250043694	5
3	987	2305.874375309216	6
3	994	2314.908121836742	2
3	998	2340.920934181234	1
3	1001	2365.097535760258	1
3	1004	2369.544204619743	1
3	1007	2376.604331874898	1
3	1010	2393.123895236844	1
3	1013	2398.897702729902	1
3	1021	2411.913131361185	1
3	1023	2412.241381802257	2
3	1036	2437.405041906015	1
3	1038	2439.998051360079	2
3	1046	2452.886610574733	1
3	1048	2454.890705118865	2
3	1055	2466.209201325361	1
3	1058	2468.987260939911	1
3	1061	2476.660273799729	1
3	1067	2493.238974334309	1
4	124	362.779012560417	0
4	126	375.671031451189	0
4	128	378.94232276728	0
4	129	379.510187729873	0
4	131	404.417573523671	0
4	132	405.452172973005	0
4	136	410.945070117655	0
4	140	414.426127238478	1
4	142	424.720149536488	2
4	145	426.284712484053	2
4	147	426.538650611217	2
4	148	427.462157760852	2
4	149	427.711075558681	1
4	150	431.748261442601	0
4	152	434.202318365371	0
4	156	439.234578117422	1
4	158	440.99737043903	2
4	160	448.144546700357	3
4	166	456.290829722043	4
4	170	459.9730609396	5
4	184	489.431553173651	6
4	186	495.045180807425	7
4	188	497.915030235732	7
4	195	510.855988371764	6
4	197	515.019738422812	6
4	201	530.654189762707	6
4	202	531.688831232165	5
4	204	532.743390214778	5
4	205	540.690497734838	5
4	207	545.080840038026	5
4	208	545.605421943686	5
4	209	547.156684335688	4
4	210	549.388315348434	3
4	212	553.345193350048	3
4	213	556.408105210183	3
4	215	558.53515728906	3
4	216	562.165201276553	3
4	217	567.348222944243	2
4	219	576.30711615312	2
4	220	578.281689620143	2
4	222	578.772894273072	2
4	223	580.045756763694	2
4	224	582.366474767039	1
4	225	586.839077578442	0
4	236	636.631361304735	0
4	237	640.433792993439	0
4	239	642.183143198286	0
4	240	643.92103685381	0
4	242	646.226482758435	0
4	243	650.858846111598	0
4	245	655.747145422117	0
4	247	656.701336655666	1
4	248	657.381006420047	1
4	249	659.577499449439	0
4	254	687.32047340833	0
4	255	691.276335647727	0
4	264	702.185225875771	0
4	271	712.640532632296	1
4	273	714.2584742481	2
4	275	738.109972685136	3
4	280	751.032734217623	4
4	281	751.107052392777	4
4	282	752.069807437066	3
4	284	752.077991711549	3
4	285	754.086616810906	3
4	286	754.145503777353	2
4	287	754.629060145244	1
4	288	760.13617662769	0
4	290	783.121513972541	0
4	291	786.718264358711	0
4	293	786.99886226362	0
4	295	787.757912559629	1
4	296	793.420547341967	1
4	297	795.700172967282	0
4	299	804.658261068389	0
4	300	806.139846308422	0
4	302	810.585177372074	0
4	306	814.826344595683	0
4	308	817.045913734827	0
4	309	822.245288931347	0
4	318	835.441852948545	0
4	321	835.817226806073	1
4	323	837.390078834879	2
4	328	844.859932121541	3
4	330	859.353191058201	4
4	332	862.892018833281	4
4	333	863.106609028182	3
4	334	866.920980632986	2
4	335	870.526416211737	1
4	336	872.889579624686	0
4	338	879.526058134851	0
4	342	889.800317608826	0
4	344	894.748798914436	0
4	348	901.429111008363	1
4	350	902.169154933174	1
4	351	906.254227072181	0
4	353	912.670828928672	0
4	354	914.625208952347	0
4	356	921.083001103788	0
4	357	921.107778581437	0
4	359	922.495206296778	0
4	360	923.895888504696	0
4	362	924.426246535187	0
4	364	924.827210553039	1
4	365	928.135165540697	1
4	366	930.408461689281	0
4	368	941.643193032314	0
4	369	941.921774174195	0
4	371	952.314999984398	0
4	372	961.134846805892	0
4	374	976.309122619328	0
4	379	979.201723983299	1
4	380	984.839701080225	1
4	381	986.125954957064	0
4	383	993.234354209163	0
4	384	994.488642418391	0
4	400	1037.817714041834	0
4	406	1054.86377306729	1
4	408	1062.486238876957	2
4	409	1066.375626499217	2
4	411	1067.586314668505	2
4	413	1068.196298550826	3
4	414	1068.90543233999	3
4	415	1069.328044295371	2
4	416	1077.541233799328	1
4	418	1081.781918852097	1
4	422	1091.664295151893	1
4	424	1093.780243235995	1
4	425	1095.693838186654	1
4	429	1105.299906099446	1
4	435	1115.166361282277	2
4	436	1116.976853576432	2
4	438	1117.585575416514	2
4	439	1134.657002560461	2
4	441	1140.197947428563	2
4	443	1143.245327056085	3
4	444	1144.955471794467	3
4	446	1145.011799952512	3
4	447	1147.802288530588	3
4	448	1148.74705548037	2
4	450	1150.608804235597	2
4	451	1158.264209713931	2
4	453	1160.034678423633	2
4	457	1168.915049252424	2
4	459	1171.021977446639	2
4	460	1174.610426187929	2
4	462	1174.834363420373	2
4	466	1180.939834983699	2
4	467	1181.562614251	1
4	468	1182.561154812864	0
4	470	1184.835546820342	0
4	471	1185.086074567891	0
4	473	1199.243714448613	0
4	475	1200.03451206652	1
4	476	1200.47226323423	1
4	478	1201.733882664147	1
4	479	1213.445232737803	1
4	480	1216.375547475982	0
4	482	1226.655835093917	0
4	483	1229.442006201545	0
4	490	1253.232387214677	0
4	492	1263.300329930188	1
4	494	1270.188107608062	2
4	496	1287.355439013295	2
4	497	1287.509296639104	1
4	498	1287.644538865062	0
4	500	1301.695075724682	0
4	501	1304.03127238562	0
4	503	1319.606710615869	0
4	504	1321.166647873498	0
4	506	1323.221393193487	0
4	508	1325.834643875292	1
4	510	1326.375745945546	2
4	512	1327.505305647438	3
4	514	1327.930719510784	4
4	515	1332.716418860087	4
4	516	1336.426972379664	3
4	518	1339.130112043044	3
4	519	1342.181721436252	3
4	521	1345.566230223337	3
4	522	1346.943761483995	3
4	523	1352.44628378508	2
4	525	1354.217056812716	2
4	531	1364.753652170588	3
4	534	1375.241133378625	3
4	535	1375.703934177032	2
4	539	1385.61624942652	2
4	541	1385.873721217589	3
4	546	1404.912172760897	3
4	550	1414.366084962259	2
4	551	1420.310459611373	1
4	552	1420.956352944528	0
4	556	1444.399947274309	0
4	558	1451.077245172219	1
4	563	1454.297307664281	2
4	565	1455.264009669391	2
4	566	1457.448174688093	1
4	567	1459.70922034328	0
4	572	1466.369209094997	0
4	573	1468.352096488574	0
4	575	1479.941857648679	0
4	579	1487.579335315961	0
4	586	1502.106389304741	0
4	588	1505.457368391863	1
4	593	1519.645900163428	2
4	595	1522.097509313485	2
4	596	1526.708711361043	1
4	598	1532.601251588089	1
4	599	1533.495927896027	1
4	601	1539.939842688134	1
4	602	1546.54426824885	1
4	604	1546.694297322603	1
4	605	1550.742684745202	1
4	606	1550.875066354375	0
4	608	1579.360818638479	0
4	612	1590.419944770691	0
4	617	1599.611571199337	0
4	618	1600.282415835252	0
4	620	1615.238231094837	0
4	621	1616.465353686786	0
4	623	1617.008726374054	0
4	624	1618.705106966198	0
4	626	1618.803667111087	0
4	627	1621.703522449385	0
4	629	1654.320999339294	0
4	631	1654.530132778208	1
4	633	1655.031343022317	2
4	634	1656.780072335643	2
4	635	1658.646581521553	1
4	636	1660.267272849624	0
4	640	1668.119471991487	0
4	642	1680.17741353523	1
4	644	1680.578722113433	1
4	646	1685.45785398811	1
4	647	1685.904932004018	1
4	648	1688.916226801642	0
4	655	1696.0117990378	0
4	660	1704.068347513425	1
4	662	1704.544076971741	2
4	667	1711.975374516738	3
4	669	1714.173127754168	4
4	672	1718.559366824822	5
4	673	1721.117900629224	5
4	675	1722.573206414053	5
4	677	1724.64832324279	6
4	678	1725.495290641052	6
4	679	1725.512270854986	5
4	683	1730.084956740652	4
4	687	1733.814900550071	3
4	688	1735.389446861585	2
4	692	1738.617628260856	2
4	694	1740.509195880822	2
4	695	1741.162458990713	1
4	696	1742.231467618213	0
4	701	1752.532885940149	0
4	706	1757.074418285213	1
4	710	1759.870443981443	1
4	717	1775.650069026053	1
4	719	1781.020036788336	1
4	721	1783.216712739424	1
4	725	1791.646316524924	2
4	727	1796.018681398212	3
4	734	1811.394057054295	4
4	741	1818.623402905251	5
4	743	1820.470659874128	6
4	745	1823.504701725267	7
4	747	1824.776611398249	8
4	751	1843.676208931515	8
4	753	1843.864454562918	8
4	757	1853.020426018164	9
4	763	1862.781928549067	10
4	765	1862.910194214946	11
4	766	1863.596187997256	11
4	768	1866.541002019037	11
4	770	1868.111340479915	12
4	771	1872.41027336167	12
4	772	1875.130212216141	11
4	773	1880.727024484257	10
4	775	1883.049181367715	10
4	777	1884.18179652135	11
4	784	1906.77245399804	12
4	788	1913.148113594738	13
4	791	1923.116508326339	13
4	793	1926.519640148576	13
4	794	1929.563296923827	13
4	796	1930.890122130338	13
4	797	1931.245807021968	13
4	798	1932.942337395411	12
4	799	1940.725031413355	11
4	800	1941.116520541976	10
4	801	1943.523226644405	9
4	802	1943.531977249236	8
4	803	1945.134405485882	7
4	804	1947.113132243299	6
4	805	1948.647911839183	5
4	807	1950.238507299322	5
4	808	1958.378577361765	5
4	815	1964.531135836514	4
4	817	1965.645265703979	4
4	818	1966.300263087312	4
4	819	1969.775268283379	3
4	820	1970.307572632507	2
4	821	1981.955021600641	1
4	822	1982.713427503777	0
4	824	1982.800215019916	0
4	825	1989.913037888016	0
4	832	2013.535855516251	0
4	837	2019.960898688118	0
4	841	2033.577040077019	0
4	848	2042.019035780318	1
4	851	2046.833801616255	2
4	853	2048.471088520238	3
4	855	2056.857666398846	3
4	857	2057.923317528761	3
4	858	2059.497485858777	3
4	860	2063.518800961812	3
4	861	2066.012720476147	3
4	862	2066.081248599475	2
4	863	2066.199767631405	1
4	864	2066.991788680648	0
4	866	2068.888887785074	0
4	867	2070.533013639101	0
4	878	2093.375820763635	0
4	879	2096.015241301501	0
4	881	2096.148318178671	0
4	882	2096.79129228047	0
4	892	2126.611538650229	0
4	894	2127.243610642487	1
4	896	2131.285105288694	2
4	899	2148.296038955969	3
4	903	2155.411754794041	4
4	906	2160.25086735818	5
4	907	2160.33477679872	5
4	911	2169.636150979344	4
4	913	2171.715046139006	4
4	914	2175.529440296554	4
4	915	2181.986909073012	3
4	916	2182.285621617665	2
4	917	2183.251228175054	1
4	918	2185.443845446258	0
4	925	2210.271698978259	0
4	927	2215.907591083074	0
4	929	2215.909237306194	0
4	930	2216.581723361805	0
4	934	2220.719843061578	0
4	937	2224.656285819337	1
4	939	2234.602854882523	2
4	943	2239.248104605476	2
4	944	2243.876626642707	1
4	946	2256.889795796327	1
4	947	2257.74321950167	1
4	948	2258.067701454772	0
4	950	2262.748014258532	0
4	952	2264.790023649927	1
4	954	2265.048559352724	2
4	955	2267.671756253024	2
4	957	2269.762694224587	2
4	961	2272.418185729447	3
4	963	2276.307047080815	3
4	965	2276.902444097247	3
4	966	2278.16112790368	3
4	967	2284.60319196055	2
4	968	2287.629273816065	1
4	969	2289.546605237896	0
4	971	2292.009618507136	0
4	975	2294.720392956889	1
4	977	2296.583318064366	2
4	979	2297.701144502198	3
4	981	2303.055250043694	4
4	987	2305.874375309216	5
4	988	2307.969995131248	5
4	989	2307.986457824615	4
4	990	2310.42064517136	3
4	991	2311.449243485086	2
4	992	2313.718169172839	1
4	994	2314.908121836742	1
4	995	2317.863335696382	1
4	996	2326.707790307336	0
4	998	2340.920934181234	0
4	999	2341.248208342143	0
4	1001	2365.097535760258	0
4	1002	2367.392213299866	0
4	1004	2369.544204619743	0
4	1005	2373.074808156833	0
4	1007	2376.604331874898	0
4	1008	2377.416286665927	0
4	1010	2393.123895236844	0
4	1011	2395.436113232829	0
4	1013	2398.897702729902	0
4	1014	2400.552758373087	0
4	1021	2411.913131361185	0
4	1023	2412.241381802257	1
4	1025	2420.816212743093	1
4	1026	2421.345631788247	0
4	1036	2437.405041906015	0
4	1038	2439.998051360079	1
4	1040	2444.747329818833	1
4	1041	2447.764235148258	0
4	1046	2452.886610574733	0
4	1048	2454.890705118865	1
4	1052	2458.27499009955	1
4	1053	2461.973544469921	0
4	1055	2466.209201325361	0
4	1056	2468.539796600336	0
4	1058	2468.987260939911	0
4	1059	2476.190759170717	0
4	1061	2476.660273799729	0
4	1062	2478.339553250458	0
4	1067	2493.238974334309	0
5	125	372.369363124178	13
5	143	425.662426747013	14
5	144	426.195735248698	15
5	167	456.751853074499	16
5	168	457.339262852971	17
5	173	470.920579218173	18
5	176	476.802398608826	19
5	177	477.694733120356	20
5	180	479.89187011911	21
5	187	496.594868477596	22
5	191	502.411380293356	23
5	194	510.855766124832	24
5	200	527.41398435214	25
5	228	594.465447452213	26
5	233	625.687705538416	27
5	234	626.786082902557	28
5	252	677.643586049412	29
5	262	701.954964917661	30
5	265	703.575163097475	31
5	276	739.907636839787	32
5	277	744.345999688329	33
5	278	745.377353520166	34
5	305	814.202769220197	35
5	312	829.38180443348	36
5	319	835.526194220298	37
5	326	841.018648103172	38
5	331	862.587404175491	39
5	341	884.230398052662	40
5	349	901.972875117317	41
5	377	976.88656233702	42
5	389	1005.459216446171	43
5	390	1012.688219058447	44
5	395	1030.863661088054	45
5	398	1036.579822009831	46
5	403	1049.694658279011	47
5	404	1051.69543867092	48
5	421	1091.145063853015	49
5	432	1112.614386576728	50
5	433	1114.969329188439	51
5	456	1165.01795442507	52
5	465	1180.577303811295	53
5	486	1243.252043969502	54
5	495	1279.981947352771	55
5	532	1372.46793782754	56
5	533	1373.995794691111	57
5	544	1398.14180180156	58
5	545	1400.222534471929	59
5	549	1412.578684166738	60
5	559	1451.090442973937	61
5	564	1455.089244521599	62
5	570	1464.505667551885	63
5	578	1486.426111169696	64
5	584	1500.366375020006	65
5	589	1507.832501929599	66
5	594	1520.358527662751	67
5	611	1589.40651515404	68
5	615	1591.966319518217	69
5	643	1680.431454978199	70
5	653	1694.440163635645	71
5	658	1703.799081485665	72
5	665	1709.342369001952	73
5	670	1716.377936003007	74
5	682	1726.508730478783	75
5	686	1731.881176091579	76
5	693	1738.90802655323	77
5	699	1751.733843426504	78
5	704	1753.506190965773	79
5	709	1758.772696723912	80
5	715	1766.323346674922	81
5	718	1777.696754089464	82
5	732	1806.999679087755	83
5	737	1817.604766615966	84
5	748	1830.982755637668	85
5	749	1833.265373579353	86
5	750	1843.664989683425	87
5	758	1854.404240514167	88
5	761	1861.351694956389	89
5	780	1900.328499170286	90
5	789	1917.159341565209	91
5	790	1921.473445839426	92
5	813	1962.142691167089	93
5	814	1962.331291213885	94
5	828	1996.351661225356	95
5	835	2015.517754625538	96
5	836	2016.729692258056	97
5	844	2037.663575252422	98
5	849	2042.784100093719	99
5	854	2053.051491844128	100
5	872	2075.443967836505	101
5	873	2078.678368760866	102
5	876	2083.790024140087	103
5	885	2102.677361382052	104
5	888	2110.306505810963	105
5	897	2138.451999822754	106
5	904	2156.490893020548	107
5	910	2168.492625227426	108
5	921	2204.986659073481	109
5	926	2212.224858287717	110
5	935	2224.10326903611	111
5	942	2236.915828279824	112
5	962	2273.484365988256	113
5	984	2303.448305217228	114
5	985	2305.219134814552	115
5	1019	2409.773973529073	116
5	1024	2420.481191820249	117
5	1031	2429.174646709481	118
5	1032	2432.495924513495	119
5	1039	2441.900648631244	120
5	1044	2452.727503024539	121
5	1051	2458.166175665666	122
5	1065	2491.072147248292	123
6	125	372.369363124178	17.925285288046
6	143	425.662426747013	18.764322574269
6	144	426.195735248698	13.938528598054
6	167	456.751853074499	20.637223297611
6	168	457.339262852971	3.601611155959
6	173	470.920579218173	16.705292649205
6	176	476.802398608826	12.146343603085
6	177	477.694733120356	1.434322364042
6	180	479.89187011911	0.702384317128
6	187	496.594868477596	13.508991421789
6	191	502.411380293356	3.614275324328
6	194	510.855766124832	6.327647204626
6	200	527.41398435214	8.282323606756
6	228	594.465447452213	2.104611226782
6	233	625.687705538416	4.204965973454
6	234	626.786082902557	3.796284666023
6	252	677.643586049412	0.337137481602
6	262	701.954964917661	9.603554964031
6	265	703.575163097475	9.344057451615
6	276	739.907636839787	40.411759040708
6	277	744.345999688329	40.492690992715
6	278	745.377353520166	34.635401511507
6	305	814.202769220197	0.484625148712
6	312	829.38180443348	1.866961094049
6	319	835.526194220298	2.649042449396
6	326	841.018648103172	6.902676113923
6	331	862.587404175491	23.009352067366
6	341	884.230398052662	4.587089460965
6	349	901.972875117317	2.493119925428
6	377	976.88656233702	0.320948019361
6	389	1005.459216446171	2.336671479501
6	390	1012.688219058447	9.063664980397
6	395	1030.863661088054	3.921976986919
6	398	1036.579822009831	5.746000951263
6	403	1049.694658279011	18.228324990778
6	404	1051.69543867092	12.411066409727
6	421	1091.145063853015	5.299793344908
6	432	1112.614386576728	11.695602937472
6	433	1114.969329188439	7.300901560977
6	456	1165.01795442507	3.780326052335
6	465	1180.577303811295	3.118505764874
6	486	1243.252043969502	0.225468966467
6	495	1279.981947352771	27.509800424076
6	532	1372.46793782754	17.809717313363
6	533	1373.995794691111	18.797869922386
6	544	1398.14180180156	15.274657118733
6	545	1400.222534471929	3.725122625446
6	549	1412.578684166738	6.284926390689
6	559	1451.090442973937	8.794993100221
6	564	1455.089244521599	3.361898044279
6	570	1464.505667551885	3.633024348303
6	578	1486.426111169696	5.189084343674
6	584	1500.366375020006	4.641456853603
6	589	1507.832501929599	8.696189648679
6	594	1520.358527662751	8.434669559541
6	611	1589.40651515404	7.872582195043
6	615	1591.966319518217	0.672225022803
6	643	1680.431454978199	15.253015694584
6	653	1694.440163635645	1.999461266975
6	658	1703.799081485665	10.190909968199
6	665	1709.342369001952	7.567550677777
6	670	1716.377936003007	8.50538542678
6	682	1726.508730478783	0.537159998325
6	686	1731.881176091579	1.282278413922
6	693	1738.90802655323	0.709281140572
6	699	1751.733843426504	7.386049503677
6	704	1753.506190965773	0.657778730514
6	709	1758.772696723912	0.989066682832
6	715	1766.323346674922	2.923420839224
6	718	1777.696754089464	12.775596191575
6	732	1806.999679087755	18.13525576856
6	737	1817.604766615966	18.486818403827
6	748	1830.982755637668	27.09761197927
6	749	1833.265373579353	21.018134618305
6	750	1843.664989683425	25.197558529805
6	758	1854.404240514167	7.168295131922
6	761	1861.351694956389	4.751035168953
6	780	1900.328499170286	15.341589196213
6	789	1917.159341565209	15.148860235215
6	790	1921.473445839426	11.651886494801
6	813	1962.142691167089	2.45636651623
6	814	1962.331291213885	0.800847656837
6	828	1996.351661225356	0.638711705621
6	835	2015.517754625538	5.212045895049
6	836	2016.729692258056	2.861036553793
6	844	2037.663575252422	4.151747320767
6	849	2042.784100093719	8.783246462596
6	854	2053.051491844128	11.032612800679
6	872	2075.443967836505	2.714938607701
6	873	2078.678368760866	3.736176640252
6	876	2083.790024140087	2.694016827232
6	885	2102.677361382052	0.717601198746
6	888	2110.306505810963	0.055607508428
6	897	2138.451999822754	22.137736248484
6	904	2156.490893020548	6.496677569704
6	910	2168.492625227426	5.956770112134
6	921	2204.986659073481	9.502325446103
6	926	2212.224858287717	5.65118210676
6	935	2224.10326903611	3.922539802253
6	942	2236.915828279824	2.092584372344
6	962	2273.484365988256	1.334163274892
6	984	2303.448305217228	9.234823041862
6	985	2305.219134814552	1.917062446187
6	1019	2409.773973529073	6.700865072908
6	1024	2420.481191820249	16.427830721203
6	1031	2429.174646709481	6.170705563361
6	1032	2432.495924513495	3.357518106783
6	1039	2441.900648631244	5.31166533775
6	1044	2452.727503024539	3.671053291746
6	1051	2458.166175665666	1.251171295588
6	1065	2491.072147248292	10.515847983377
7	125	372.369363124178	9.590350563761
7	128	378.94232276728	0
7	131	404.417573523671	0
7	144	426.195735248698	15.250665131043
7	145	426.284712484053	11.858585245575
7	148	427.462157760852	2.742008224364
7	149	427.711075558681	1.172424947464
7	152	434.202318365371	0
7	177	477.694733120356	41.580103343468
7	180	479.89187011911	40.657292001688
7	187	496.594868477596	55.597498038566
7	188	497.915030235732	49.770483535375
7	191	502.411380293356	46.120550571313
7	194	510.855766124832	50.882705185232
7	195	510.855988371764	31.666502569782
7	200	527.41398435214	44.328107296333
7	201	530.654189762707	41.222636589056
7	202	531.688831232165	36.64365042474
7	205	540.690497734838	41.89339276581
7	208	545.605421943686	41.07730302348
7	209	547.156684335688	32.136945912876
7	210	549.388315348434	30.25665460305
7	213	556.408105210183	23.664714995405
7	216	562.165201276553	17.084361238527
7	217	567.348222944243	14.003029594195
7	220	578.281689620143	19.746532331083
7	223	580.045756763694	3.738640610574
7	224	582.366474767039	3.593580493967
7	236	636.631361304735	0
7	239	642.183143198286	0
7	242	646.226482758435	0
7	245	655.747145422117	0
7	248	657.381006420047	0.679669764381
7	254	687.32047340833	0
7	278	745.377353520166	43.192127644395
7	281	751.107052392777	38.466519760481
7	282	752.069807437066	37.811333188966
7	285	754.086616810906	15.97664412577
7	286	754.145503777353	3.11276955973
7	287	754.629060145244	2.551068433695
7	290	783.121513972541	0
7	293	786.99886226362	0
7	296	793.420547341967	5.662634782338
7	299	804.658261068389	0
7	302	810.585177372074	0
7	305	814.202769220197	0.484625148712
7	308	817.045913734827	0
7	331	862.587404175491	27.145551226946
7	332	862.892018833281	27.074792027208
7	333	863.106609028182	25.716530193303
7	334	866.920980632986	22.061048511445
7	335	870.526416211737	11.173225153536
7	338	879.526058134851	0
7	341	884.230398052662	4.587089460965
7	344	894.748798914436	0
7	349	901.972875117317	2.493119925428
7	350	902.169154933174	0.740043924811
7	353	912.670828928672	0
7	356	921.083001103788	0
7	359	922.495206296778	0
7	362	924.426246535187	0
7	365	928.135165540697	3.307954987658
7	368	941.643193032314	0
7	371	952.314999984398	0
7	374	976.309122619328	0
7	377	976.88656233702	0.320948019361
7	380	984.839701080225	5.637977096926
7	383	993.234354209163	0
7	404	1051.69543867092	13.877724629086
7	409	1066.375626499217	11.511853431927
7	414	1068.90543233999	6.419193463033
7	415	1069.328044295371	1.741729626866
7	416	1077.541233799328	9.344935248502
7	421	1091.145063853015	9.363145000918
7	422	1091.664295151893	5.819024643786
7	425	1095.693838186654	1.913594950659
7	433	1114.969329188439	14.050545549183
7	436	1116.976853576432	11.676947476986
7	439	1134.657002560461	19.490641278184
7	444	1144.955471794467	27.369896377953
7	447	1147.802288530588	7.604341102025
7	448	1148.74705548037	5.501728424285
7	451	1158.264209713931	13.252409761419
7	456	1165.01795442507	14.409150189473
7	457	1168.915049252424	8.880370828791
7	460	1174.610426187929	13.372797815194
7	465	1180.577303811295	9.555326364656
7	466	1180.939834983699	6.105471563326
7	467	1181.562614251	4.103816204579
7	470	1184.835546820342	0
7	473	1199.243714448613	0
7	476	1200.47226323423	0.43775116771
7	479	1213.445232737803	11.711350073656
7	482	1226.655835093917	0
7	495	1279.981947352771	26.749560138094
7	496	1287.355439013295	24.055109083107
7	497	1287.509296639104	17.321189031042
7	500	1301.695075724682	0
7	503	1319.606710615869	0
7	506	1323.221393193487	0
7	515	1332.716418860087	6.881774984795
7	516	1336.426972379664	10.051226434118
7	519	1342.181721436252	14.676415788814
7	522	1346.943761483995	19.013041973211
7	523	1352.44628378508	13.316171742036
7	533	1373.995794691111	28.429564467774
7	534	1375.241133378625	21.024076565909
7	535	1375.703934177032	21.045713662855
7	545	1400.222534471929	35.468882301341
7	546	1404.912172760897	22.04502807807
7	549	1412.578684166738	26.962434740218
7	550	1414.366084962259	28.49236374467
7	551	1420.310459611373	14.016701835324
7	559	1451.090442973937	6.690495699628
7	564	1455.089244521599	4.01199934938
7	565	1455.264009669391	3.536663192071
7	566	1457.448174688093	3.150867023812
7	572	1466.369209094997	0
7	575	1479.941857648679	0
7	578	1486.426111169696	5.189084343674
7	589	1507.832501929599	5.726112624858
7	594	1520.358527662751	14.901159270888
7	595	1522.097509313485	10.173651210275
7	596	1526.708711361043	7.062811197615
7	599	1533.495927896027	0.894676307938
7	602	1546.54426824885	6.604425560716
7	605	1550.742684745202	4.048387422599
7	608	1579.360818638479	0
7	611	1589.40651515404	7.872582195043
7	617	1599.611571199337	0
7	620	1615.238231094837	0
7	623	1617.008726374054	0
7	626	1618.803667111087	0
7	629	1654.320999339294	0
7	634	1656.780072335643	2.249939557435
7	635	1658.646581521553	3.615238499236
7	643	1680.431454978199	12.311982986712
7	644	1680.578722113433	0.401308578203
7	647	1685.904932004018	0.447078015908
7	670	1716.377936003007	20.366136965207
7	673	1721.117900629224	17.049553115799
7	678	1725.495290641052	20.951213669311
7	679	1725.512270854986	13.536896338248
7	682	1726.508730478783	12.335602724615
7	683	1730.084956740652	11.52558991583
7	686	1731.881176091579	9.307969677526
7	687	1733.814900550071	9.166577307281
7	688	1735.389446861585	9.417876381127
7	693	1738.90802655323	8.309128875573
7	694	1740.509195880822	2.310450468164
7	695	1741.162458990713	2.544830729857
7	701	1752.532885940149	0
7	704	1753.506190965773	0.657778730514
7	709	1758.772696723912	1.698278438699
7	710	1759.870443981443	2.086813940363
7	718	1777.696754089464	14.296828253766
7	719	1781.020036788336	5.369967762283
7	750	1843.664989683425	60.448276944001
7	751	1843.676208931515	54.81178561232
7	758	1854.404240514167	62.757923989243
7	761	1861.351694956389	65.333013558177
7	766	1863.596187997256	52.202130942961
7	771	1872.41027336167	53.786870456419
7	772	1875.130212216141	54.659552342013
7	773	1880.727024484257	57.22232275899
7	780	1900.328499170286	75.551887772037
7	790	1921.473445839426	77.608991276508
7	791	1923.116508326339	75.880562944094
7	794	1929.563296923827	76.542870905663
7	797	1931.245807021968	74.645147234532
7	798	1932.942337395411	70.160408846344
7	799	1940.725031413355	77.814837198409
7	800	1941.116520541976	74.575518522939
7	801	1943.523226644405	75.41188616449
7	802	1943.531977249236	60.482795881521
7	803	1945.134405485882	60.952608964532
7	804	1947.113132243299	62.126222269226
7	805	1948.647911839183	46.637430509189
7	808	1958.378577361765	51.606123363725
7	814	1962.331291213885	49.183177619147
7	815	1964.531135836514	38.011495687938
7	818	1966.300263087312	35.410140956974
7	819	1969.775268283379	19.536760984057
7	820	1970.307572632507	10.621247981648
7	821	1981.955021600641	16.309755896662
7	824	1982.800215019916	0
7	836	2016.729692258056	3.193836741805
7	854	2053.051491844128	19.474451767109
7	855	2056.857666398846	14.838630618528
7	858	2059.497485858777	12.663684242522
7	861	2066.012720476147	17.541631955909
7	862	2066.081248599475	8.157931070714
7	863	2066.199767631405	2.680966669593
7	866	2068.888887785074	0
7	878	2093.375820763635	0
7	881	2096.148318178671	0
7	897	2138.451999822754	11.840461172525
7	904	2156.490893020548	29.247282378061
7	907	2160.33477679872	29.049671510026
7	910	2168.492625227426	20.196586271457
7	911	2169.636150979344	19.6419355285
7	914	2175.529440296554	20.117685502513
7	915	2181.986909073012	21.736041714832
7	916	2182.285621617665	19.749766502373
7	917	2183.251228175054	11.536182036048
7	926	2212.224858287717	1.953159309458
7	929	2215.909237306194	0
7	935	2224.10326903611	3.383425974532
7	942	2236.915828279824	12.259542460487
7	943	2239.248104605476	4.645249722953
7	944	2243.876626642707	9.053382735227
7	947	2257.74321950167	0.853423705343
7	950	2262.748014258532	0
7	955	2267.671756253024	2.881732603097
7	962	2273.484365988256	8.435806635532
7	963	2276.307047080815	6.544352856228
7	966	2278.16112790368	6.010925190316
7	967	2284.60319196055	12.185006231103
7	968	2287.629273816065	10.726829718818
7	971	2292.009618507136	0
7	985	2305.219134814552	11.005652639186
7	988	2307.969995131248	13.249602174359
7	989	2307.986457824615	11.403139760249
7	990	2310.42064517136	12.719500669162
7	991	2311.449243485086	8.393993441392
7	992	2313.718169172839	7.843793863623
7	995	2317.863335696382	2.95521385964
7	998	2340.920934181234	0
7	1001	2365.097535760258	0
7	1004	2369.544204619743	0
7	1007	2376.604331874898	0
7	1010	2393.123895236844	0
7	1013	2398.897702729902	0
7	1024	2420.481191820249	8.568060459064
7	1025	2420.816212743093	8.574830940836
7	1039	2441.900648631244	4.495606725229
7	1040	2444.747329818833	4.749278458754
7	1046	2452.886610574733	0
7	1051	2458.166175665666	3.275470546801
7	1052	2458.27499009955	1.359985729472
7	1055	2466.209201325361	0
7	1058	2468.987260939911	0
7	1061	2476.660273799729	0
7	1067	2493.238974334309	0
8	126	375.671031451189	29
8	129	379.510187729873	30
8	132	405.452172973005	31
8	145	426.284712484053	32
8	148	427.462157760852	33
8	149	427.711075558681	34
8	150	431.748261442601	35
8	188	497.915030235732	36
8	195	510.855988371764	37
8	201	530.654189762707	38
8	202	531.688831232165	39
8	205	540.690497734838	40
8	208	545.605421943686	41
8	209	547.156684335688	42
8	210	549.388315348434	43
8	213	556.408105210183	44
8	216	562.165201276553	45
8	217	567.348222944243	46
8	220	578.281689620143	47
8	223	580.045756763694	48
8	224	582.366474767039	49
8	225	586.839077578442	50
8	237	640.433792993439	51
8	240	643.92103685381	52
8	243	650.858846111598	53
8	248	657.381006420047	54
8	249	659.577499449439	55
8	255	691.276335647727	56
8	281	751.107052392777	57
8	282	752.069807437066	58
8	285	754.086616810906	59
8	286	754.145503777353	60
8	287	754.629060145244	61
8	288	760.13617662769	62
8	291	786.718264358711	63
8	296	793.420547341967	64
8	297	795.700172967282	65
8	300	806.139846308422	66
8	306	814.826344595683	67
8	309	822.245288931347	68
8	332	862.892018833281	69
8	333	863.106609028182	70
8	334	866.920980632986	71
8	335	870.526416211737	72
8	336	872.889579624686	73
8	342	889.800317608826	74
8	350	902.169154933174	75
8	351	906.254227072181	76
8	354	914.625208952347	77
8	357	921.107778581437	78
8	360	923.895888504696	79
8	365	928.135165540697	80
8	366	930.408461689281	81
8	369	941.921774174195	82
8	372	961.134846805892	83
8	380	984.839701080225	84
8	381	986.125954957064	85
8	384	994.488642418391	86
8	409	1066.375626499217	87
8	414	1068.90543233999	88
8	415	1069.328044295371	89
8	416	1077.541233799328	90
8	422	1091.664295151893	91
8	425	1095.693838186654	92
8	436	1116.976853576432	93
8	439	1134.657002560461	94
8	444	1144.955471794467	95
8	447	1147.802288530588	96
8	448	1148.74705548037	97
8	451	1158.264209713931	98
8	457	1168.915049252424	99
8	460	1174.610426187929	100
8	466	1180.939834983699	101
8	467	1181.562614251	102
8	468	1182.561154812864	103
8	471	1185.086074567891	104
8	476	1200.47226323423	105
8	479	1213.445232737803	106
8	480	1216.375547475982	107
8	483	1229.442006201545	108
8	496	1287.355439013295	109
8	497	1287.509296639104	110
8	498	1287.644538865062	111
8	501	1304.03127238562	112
8	504	1321.166647873498	113
8	515	1332.716418860087	114
8	516	1336.426972379664	115
8	519	1342.181721436252	116
8	522	1346.943761483995	117
8	523	1352.44628378508	118
8	534	1375.241133378625	119
8	535	1375.703934177032	120
8	546	1404.912172760897	121
8	550	1414.366084962259	122
8	551	1420.310459611373	123
8	552	1420.956352944528	124
8	565	1455.264009669391	125
8	566	1457.448174688093	126
8	567	1459.70922034328	127
8	573	1468.352096488574	128
8	579	1487.579335315961	129
8	595	1522.097509313485	130
8	596	1526.708711361043	131
8	599	1533.495927896027	132
8	602	1546.54426824885	133
8	605	1550.742684745202	134
8	606	1550.875066354375	135
8	612	1590.419944770691	136
8	618	1600.282415835252	137
8	621	1616.465353686786	138
8	624	1618.705106966198	139
8	627	1621.703522449385	140
8	634	1656.780072335643	141
8	635	1658.646581521553	142
8	636	1660.267272849624	143
8	644	1680.578722113433	144
8	647	1685.904932004018	145
8	648	1688.916226801642	146
8	673	1721.117900629224	147
8	678	1725.495290641052	148
8	679	1725.512270854986	149
8	683	1730.084956740652	150
8	687	1733.814900550071	151
8	688	1735.389446861585	152
8	694	1740.509195880822	153
8	695	1741.162458990713	154
8	696	1742.231467618213	155
8	710	1759.870443981443	156
8	719	1781.020036788336	157
8	751	1843.676208931515	158
8	766	1863.596187997256	159
8	771	1872.41027336167	160
8	772	1875.130212216141	161
8	773	1880.727024484257	162
8	791	1923.116508326339	163
8	794	1929.563296923827	164
8	797	1931.245807021968	165
8	798	1932.942337395411	166
8	799	1940.725031413355	167
8	800	1941.116520541976	168
8	801	1943.523226644405	169
8	802	1943.531977249236	170
8	803	1945.134405485882	171
8	804	1947.113132243299	172
8	805	1948.647911839183	173
8	808	1958.378577361765	174
8	815	1964.531135836514	175
8	818	1966.300263087312	176
8	819	1969.775268283379	177
8	820	1970.307572632507	178
8	821	1981.955021600641	179
8	822	1982.713427503777	180
8	825	1989.913037888016	181
8	837	2019.960898688118	182
8	855	2056.857666398846	183
8	858	2059.497485858777	184
8	861	2066.012720476147	185
8	862	2066.081248599475	186
8	863	2066.199767631405	187
8	864	2066.991788680648	188
8	867	2070.533013639101	189
8	879	2096.015241301501	190
8	882	2096.79129228047	191
8	907	2160.33477679872	192
8	911	2169.636150979344	193
8	914	2175.529440296554	194
8	915	2181.986909073012	195
8	916	2182.285621617665	196
8	917	2183.251228175054	197
8	918	2185.443845446258	198
8	927	2215.907591083074	199
8	930	2216.581723361805	200
8	943	2239.248104605476	201
8	944	2243.876626642707	202
8	947	2257.74321950167	203
8	948	2258.067701454772	204
8	955	2267.671756253024	205
8	963	2276.307047080815	206
8	966	2278.16112790368	207
8	967	2284.60319196055	208
8	968	2287.629273816065	209
8	969	2289.546605237896	210
8	988	2307.969995131248	211
8	989	2307.986457824615	212
8	990	2310.42064517136	213
8	991	2311.449243485086	214
8	992	2313.718169172839	215
8	995	2317.863335696382	216
8	996	2326.707790307336	217
8	999	2341.248208342143	218
8	1002	2367.392213299866	219
8	1005	2373.074808156833	220
8	1008	2377.416286665927	221
8	1011	2395.436113232829	222
8	1014	2400.552758373087	223
8	1025	2420.816212743093	224
8	1026	2421.345631788247	225
8	1040	2444.747329818833	226
8	1041	2447.764235148258	227
8	1052	2458.27499009955	228
8	1053	2461.973544469921	229
8	1056	2468.539796600336	230
8	1059	2476.190759170717	231
8	1062	2478.339553250458	232
9	126	375.671031451189	12.892018890772
9	129	379.510187729873	0.567864962593
9	132	405.452172973005	1.034599449334
9	145	426.284712484053	15.339642366398
9	148	427.462157760852	13.036030522374
9	149	427.711075558681	2.990926022193
9	150	431.748261442601	5.209610831384
9	188	497.915030235732	56.917659796702
9	195	510.855988371764	50.882927432164
9	201	530.654189762707	47.5683127069
9	202	531.688831232165	42.257278058514
9	205	540.690497734838	45.645316927413
9	208	545.605421943686	46.808316974658
9	209	547.156684335688	42.628565415482
9	210	549.388315348434	34.368576925622
9	213	556.408105210183	37.276444464799
9	216	562.165201276553	29.421811061775
9	217	567.348222944243	22.267382906217
9	220	578.281689620143	24.936496270095
9	223	580.045756763694	21.510599474634
9	224	582.366474767039	6.059358613919
9	225	586.839077578442	8.06618330537
9	237	640.433792993439	3.802431688704
9	240	643.92103685381	1.737893655524
9	243	650.858846111598	4.632363353163
9	248	657.381006420047	1.63386099793
9	249	659.577499449439	2.876162793773
9	255	691.276335647727	3.955862239397
9	281	751.107052392777	48.921826517006
9	282	752.069807437066	39.42927480477
9	285	754.086616810906	39.828142562806
9	286	754.145503777353	16.035531092217
9	287	754.629060145244	3.596325927621
9	288	760.13617662769	8.058184916141
9	291	786.718264358711	3.59675038617
9	296	793.420547341967	6.421685078347
9	297	795.700172967282	7.942260407653
9	300	806.139846308422	1.481585240033
9	306	814.826344595683	1.108200524198
9	309	822.245288931347	5.19937519652
9	332	862.892018833281	27.450165884736
9	333	863.106609028182	27.289382222109
9	334	866.920980632986	29.530901798107
9	335	870.526416211737	25.666484090196
9	336	872.889579624686	13.536388566485
9	342	889.800317608826	10.157009017129
9	350	902.169154933174	2.689399741285
9	351	906.254227072181	4.825116063818
9	354	914.625208952347	1.954380023675
9	357	921.107778581437	0.024777477649
9	360	923.895888504696	1.400682207918
9	365	928.135165540697	3.70891900551
9	366	930.408461689281	5.581251136242
9	369	941.921774174195	0.278581141881
9	372	961.134846805892	8.819846821494
9	380	984.839701080225	8.274086762566
9	381	986.125954957064	6.924230973765
9	384	994.488642418391	1.254288209228
9	409	1066.375626499217	28.557912457383
9	414	1068.90543233999	14.0416592727
9	415	1069.328044295371	6.841805418414
9	416	1077.541233799328	9.954919130823
9	422	1091.664295151893	9.882376299796
9	425	1095.693838186654	9.848567678547
9	436	1116.976853576432	16.058069937176
9	439	1134.657002560461	29.357096461015
9	444	1144.955471794467	29.78911051219
9	447	1147.802288530588	30.216713114074
9	448	1148.74705548037	8.549108051807
9	451	1158.264209713931	15.018882657846
9	457	1168.915049252424	18.306245016827
9	460	1174.610426187929	14.575747764296
9	466	1180.939834983699	9.91785753706
9	467	1181.562614251	6.728250830627
9	468	1182.561154812864	5.102356766443
9	471	1185.086074567891	0.250527747549
9	476	1200.47226323423	1.228548785617
9	479	1213.445232737803	13.410720671283
9	480	1216.375547475982	14.641664811835
9	483	1229.442006201545	2.786171107628
9	496	1287.355439013295	34.123051798618
9	497	1287.509296639104	24.208966708916
9	498	1287.644538865062	17.456431257
9	501	1304.03127238562	2.336196660938
9	504	1321.166647873498	1.559937257629
9	515	1332.716418860087	9.4950256666
9	516	1336.426972379664	10.592328504372
9	519	1342.181721436252	15.805975490706
9	522	1346.943761483995	19.438455836557
9	523	1352.44628378508	24.515564274296
9	534	1375.241133378625	29.674903155288
9	535	1375.703934177032	21.486877364316
9	546	1404.912172760897	40.158520590309
9	550	1414.366084962259	28.749835535739
9	551	1420.310459611373	34.436738393784
9	552	1420.956352944528	14.662595168479
9	565	1455.264009669391	4.186764497172
9	566	1457.448174688093	5.720828210773
9	567	1459.70922034328	5.411912678999
9	573	1468.352096488574	1.982887393577
9	579	1487.579335315961	6.342308489939
9	595	1522.097509313485	16.640140921622
9	596	1526.708711361043	14.784853257833
9	599	1533.495927896027	13.850027732599
9	602	1546.54426824885	13.943016660761
9	605	1550.742684745202	10.802842057068
9	606	1550.875066354375	4.180769031772
9	612	1590.419944770691	8.886011811694
9	618	1600.282415835252	0.670844635915
9	621	1616.465353686786	1.227122591949
9	624	1618.705106966198	1.696380592144
9	627	1621.703522449385	2.899855338298
9	634	1656.780072335643	2.459072996349
9	635	1658.646581521553	4.116448743345
9	636	1660.267272849624	5.235929827307
9	644	1680.578722113433	12.459250121946
9	647	1685.904932004018	5.727518468788
9	648	1688.916226801642	3.458372813532
9	673	1721.117900629224	25.106101591424
9	678	1725.495290641052	21.426943127627
9	679	1725.512270854986	20.968193883245
9	683	1730.084956740652	15.911828986484
9	687	1733.814900550071	11.241694136018
9	688	1735.389446861585	10.741123618795
9	694	1740.509195880822	9.910298203165
9	695	1741.162458990713	2.963713578055
9	696	1742.231467618213	3.613839357357
9	710	1759.870443981443	2.79602569623
9	719	1781.020036788336	17.620110952638
9	751	1843.676208931515	60.459496192091
9	766	1863.596187997256	67.577506599044
9	771	1872.41027336167	61.016216307375
9	772	1875.130212216141	56.50680931089
9	773	1880.727024484257	60.256364610129
9	791	1923.116508326339	79.252053763421
9	794	1929.563296923827	82.327351541582
9	797	1931.245807021968	78.225381003804
9	798	1932.942337395411	76.341677607975
9	799	1940.725031413355	77.943102864288
9	800	1941.116520541976	78.20632632703
9	801	1943.523226644405	76.982224625368
9	802	1943.531977249236	75.420636769321
9	803	1945.134405485882	62.085224118167
9	804	1947.113132243299	62.931335721949
9	805	1948.647911839183	63.66100186511
9	808	1958.378577361765	56.368096031771
9	815	1964.531135836514	51.383022241776
9	818	1966.300263087312	39.780622938736
9	819	1969.775268283379	38.885146153041
9	820	1970.307572632507	20.069065333185
9	821	1981.955021600641	22.268696949782
9	822	1982.713427503777	17.068161799798
9	825	1989.913037888016	7.1128228681
9	837	2019.960898688118	6.425043171867
9	855	2056.857666398846	23.280626321827
9	858	2059.497485858777	17.478450078459
9	861	2066.012720476147	19.178918859892
9	862	2066.081248599475	17.610160079237
9	863	2066.199767631405	8.276450102644
9	864	2066.991788680648	3.472987718836
9	867	2070.533013639101	1.644125854027
9	879	2096.015241301501	2.639420537866
9	882	2096.79129228047	0.642974101799
9	907	2160.33477679872	33.091166156233
9	911	2169.636150979344	21.340112023375
9	914	2175.529440296554	25.53522484571
9	915	2181.986909073012	26.575154278971
9	916	2182.285621617665	22.034754259485
9	917	2183.251228175054	20.715373059762
9	918	2185.443845446258	13.728799307252
9	927	2215.907591083074	5.635892104815
9	930	2216.581723361805	0.672486055611
9	943	2239.248104605476	14.591818786139
9	944	2243.876626642707	9.273771760184
9	947	2257.74321950167	22.91997559419
9	948	2258.067701454772	1.177905658445
9	955	2267.671756253024	4.923741994492
9	963	2276.307047080815	11.258487728091
9	966	2278.16112790368	8.398433679093
9	967	2284.60319196055	12.452989247186
9	968	2287.629273816065	15.211088086618
9	969	2289.546605237896	12.644161140649
9	988	2307.969995131248	13.756512955882
9	989	2307.986457824615	13.266064867726
9	990	2310.42064517136	13.837327106994
9	991	2311.449243485086	13.748098982888
9	992	2313.718169172839	10.662919129145
9	995	2317.863335696382	11.988960387166
9	996	2326.707790307336	11.799668470594
9	999	2341.248208342143	0.327274160909
9	1002	2367.392213299866	2.294677539608
9	1005	2373.074808156833	3.53060353709
9	1008	2377.416286665927	0.811954791029
9	1011	2395.436113232829	2.312217995985
9	1014	2400.552758373087	1.655055643185
9	1025	2420.816212743093	8.903081381908
9	1026	2421.345631788247	9.10424998599
9	1040	2444.747329818833	7.342287912818
9	1041	2447.764235148258	7.766183788179
9	1052	2458.27499009955	3.384284980685
9	1053	2461.973544469921	5.058540099843
9	1056	2468.539796600336	2.330595274975
9	1059	2476.190759170717	7.203498230806
9	1062	2478.339553250458	1.679279450729
10	154	436.114629776888	4
10	179	479.189485801982	5
10	182	483.085877055807	6
10	190	498.797104969028	7
10	193	504.528118920206	8
10	199	519.131660745384	9
10	304	813.718144071485	10
10	340	879.643308591697	11
10	346	899.479755191889	12
10	376	976.565614317659	13
10	420	1085.845270508107	14
10	427	1100.918783639256	15
10	455	1161.237628372735	16
10	464	1177.458798046421	17
10	527	1354.658220514177	18
10	537	1382.867144682827	19
10	548	1406.293757776049	20
10	561	1451.72734647732	21
10	577	1481.237026826022	22
10	591	1511.92385810321	23
10	610	1581.533932958997	24
10	681	1725.971570480458	25
10	685	1730.598897677657	26
10	690	1738.198745412658	27
10	703	1752.848412235259	28
10	708	1757.78363004108	29
10	712	1763.399925835698	30
10	723	1788.864423319195	31
10	755	1847.235945382245	32
10	760	1856.600659787436	33
10	779	1884.986909974073	34
10	782	1902.010481329994	35
10	810	1959.686324650859	36
10	901	2149.994215450844	37
10	909	2162.535855115292	38
10	941	2234.82324390748	39
10	959	2272.150202713364	40
10	973	2294.213482175366	41
10	1050	2456.915004370078	42
11	1068	2500	0.0928
12	1068	2500	0.0492

