file 58804 1678273740                                           
version 2
run experiments_easy_game_mode1-2033-20230308-12:09:00-28954
attr configname experiments_easy_game_mode1
attr datetime 20230308-12:09:00
attr experiment experiments_easy_game_mode1
attr inifile omnetpp.ini
attr iterationvars "$0=7.5, $1=2.5, $2=100"
attr iterationvarsf 7.5,2.5,100-
attr measurement "$0=7.5, $1=2.5, $2=100"
attr network Network
attr processid 28954
attr repetition 23
attr replication #23
attr resultdir results
attr runnumber 2033
attr seedset 23
param *.boss.arrival_mean 20
param *.boss.service_mean 7.5
param *.minion.arrival_mean 10
param *.minion.service_mean 2.5
param *.player.recover_rate_x 100
param **.minion.arrival_distribution 0
param **.minion.service_distribution 0
param **.boss.arrival_distribution 0
param **.boss.service_distribution 0

vector 0 Network.player minion_jobs_number_stat:vector ETV
attr source signal_minion_jobs_number
vector 1 Network.player minion_jobs_queue_number_stat:vector ETV
attr source signal_minion_jobs_queue_number
vector 2 Network.player boss_defeated_stat:vector ETV
attr source signal_boss_defeated
vector 3 Network.player boss_jobs_queue_number_stat:vector ETV
attr source signal_boss_jobs_queue_number
vector 4 Network.player boss_response_time_stat:vector ETV
attr source signal_boss_response_time
vector 5 Network.player minion_waiting_time_stat:vector ETV
attr source signal_minion_waiting_time
vector 6 Network.player minion_defeated_stat:vector ETV
attr source signal_minion_defeated
vector 7 Network.player minion_response_time_stat:vector ETV
attr source signal_minion_response_time
vector 8 Network.player boss_jobs_number_stat:vector ETV
attr source signal_boss_jobs_number
vector 9 Network.player boss_waiting_time_stat:vector ETV
attr source signal_boss_waiting_time
vector 10 Network.player minion_recovered_stat:vector ETV
attr source signal_minion_recovered
vector 11 Network.player minion_throughput:vector ETV
attr source signal_minion_throughput
vector 12 Network.player boss_throughput:vector ETV
attr source signal_boss_throughput
0	2031 5565 162 1112 351.409402957577 2495.212845808239 216 1 15 803 5625
1	7596 10748 162 1112 351.409402957577 2495.212845808239 418 0 14 1069 7455
2	18344 2859 163 1108 363.588044244919 2491.847464733178 106 19 124 7579 641141
3	21203 5456 163 1110 363.588044244919 2493.276094709187 212 0 7 218 786
4	26659 4149 163 1108 363.588044244919 2491.847464733178 106 0.135652018029 51.5962748395 1865.092305858 57925.682280717
5	30808 7903 163 1108 363.588044244919 2491.847464733178 223 0 155.87244595142 4270.6017068055 260773.29407128
6	38711 5514 164 1056 363.764837797409 2395.044256794872 202 35 236 27371 4395621
7	44225 7886 164 1056 363.764837797409 2395.044256794872 202 0.033871400115 156.70476617957 4405.0023190929 262242.42225592
8	52111 2728 167 1110 370.280462470171 2493.276094709187 106 1 8 215 717
9	54839 3339 167 1110 370.280462470171 2493.276094709187 106 0 50.372561248558 940.72353878702 28871.577121811
10	58178 585 362 1110 828.587694700615 2493.276094709187 21 8 28 378 7574
11	58763 20 1113 1113 2500 2500 1 0.0944 0.0944 0.0944 0.00891136
12	58783 20 1113 1113 2500 2500 1 0.0496 0.0496 0.0496 0.00246016

