file 63152 1678273492                                           
version 2
run experiments_easy_game_mode1-838-20230308-12:04:52-22958
attr configname experiments_easy_game_mode1
attr datetime 20230308-12:04:52
attr experiment experiments_easy_game_mode1
attr inifile omnetpp.ini
attr iterationvars "$0=6, $1=1.5, $2=100"
attr iterationvarsf 6,1.5,100-
attr measurement "$0=6, $1=1.5, $2=100"
attr network Network
attr processid 22958
attr repetition 28
attr replication #28
attr resultdir results
attr runnumber 838
attr seedset 28
param *.boss.arrival_mean 20
param *.boss.service_mean 6
param *.minion.arrival_mean 10
param *.minion.service_mean 1.5
param *.player.recover_rate_x 100
param **.minion.arrival_distribution 0
param **.minion.service_distribution 0
param **.boss.arrival_distribution 0
param **.boss.service_distribution 0

vector 0 Network.player minion_jobs_number_stat:vector ETV
attr source signal_minion_jobs_number
vector 1 Network.player minion_jobs_queue_number_stat:vector ETV
attr source signal_minion_jobs_queue_number
vector 2 Network.player minion_waiting_time_stat:vector ETV
attr source signal_minion_waiting_time
vector 3 Network.player minion_defeated_stat:vector ETV
attr source signal_minion_defeated
vector 4 Network.player minion_response_time_stat:vector ETV
attr source signal_minion_response_time
vector 5 Network.player boss_jobs_number_stat:vector ETV
attr source signal_boss_jobs_number
vector 6 Network.player boss_jobs_queue_number_stat:vector ETV
attr source signal_boss_jobs_queue_number
vector 7 Network.player boss_waiting_time_stat:vector ETV
attr source signal_boss_waiting_time
vector 8 Network.player boss_defeated_stat:vector ETV
attr source signal_boss_defeated
vector 9 Network.player boss_response_time_stat:vector ETV
attr source signal_boss_response_time
vector 10 Network.player minion_recovered_stat:vector ETV
attr source signal_minion_recovered
vector 11 Network.player minion_throughput:vector ETV
attr source signal_minion_throughput
vector 12 Network.player boss_throughput:vector ETV
attr source signal_boss_throughput
0	2021 6379 170 1195 350.294513694894 2463.460184766505 247 1 7 414 996
1	8400 12752 170 1197 350.294513694894 2466.68508522292 494 0 6 334 830
2	21152 8373 170 1196 350.294513694894 2465.370588031123 258 0 66.679117356077 877.25161989572 17706.75409877
3	29525 6799 171 1197 350.415853922975 2466.68508522292 247 32 278 38285 7189923
4	36324 9591 171 1197 350.415853922975 2466.68508522292 247 0.013427594078 66.937769672959 1159.1888311394 17622.837205655
5	45915 2517 176 1202 378.709152250134 2495.979355742821 98 1 4 134 228
6	48432 5039 176 1203 378.709152250134 2497.783177737648 196 0 3 72 116
7	53471 2878 176 1202 378.709152250134 2495.979355742821 98 0 21.943612188694 185.70631548832 2213.7304003065
8	56349 2644 179 1203 386.041990309551 2497.783177737648 98 26 123 7301 622349
9	58993 3821 179 1203 386.041990309551 2497.783177737648 98 0.002126291389 39.257949189748 773.44862510735 11616.975953508
10	62814 297 208 1174 457.419023234562 2417.712062284441 11 7 17 132 1694
11	63111 20 1204 1204 2500 2500 1 0.1112 0.1112 0.1112 0.01236544
12	63131 20 1204 1204 2500 2500 1 0.0492 0.0492 0.0492 0.00242064

