version 2
run experiments_easy_game_mode1-1981-20230308-12:08:54-28694
attr configname experiments_easy_game_mode1
attr datetime 20230308-12:08:54
attr experiment experiments_easy_game_mode1
attr inifile omnetpp.ini
attr iterationvars "$0=7.5, $1=2.5, $2=0"
attr iterationvarsf 7.5,2.5,0-
attr measurement "$0=7.5, $1=2.5, $2=0"
attr network Network
attr processid 28694
attr repetition 1
attr replication #1
attr resultdir results
attr runnumber 1981
attr seedset 1
param *.boss.arrival_mean 20
param *.boss.service_mean 7.5
param *.minion.arrival_mean 10
param *.minion.service_mean 2.5
param *.player.recover_rate_x 0
param **.minion.arrival_distribution 0
param **.minion.service_distribution 0
param **.boss.arrival_distribution 0
param **.boss.service_distribution 0

vector 0 Network.player boss_defeated_stat:vector ETV
attr source signal_boss_defeated
vector 1 Network.player boss_jobs_queue_number_stat:vector ETV
attr source signal_boss_jobs_queue_number
vector 2 Network.player boss_response_time_stat:vector ETV
attr source signal_boss_response_time
vector 3 Network.player minion_jobs_number_stat:vector ETV
attr source signal_minion_jobs_number
vector 4 Network.player minion_jobs_queue_number_stat:vector ETV
attr source signal_minion_jobs_queue_number
vector 5 Network.player minion_waiting_time_stat:vector ETV
attr source signal_minion_waiting_time
vector 6 Network.player minion_defeated_stat:vector ETV
attr source signal_minion_defeated
vector 7 Network.player minion_response_time_stat:vector ETV
attr source signal_minion_response_time
vector 8 Network.player boss_jobs_number_stat:vector ETV
attr source signal_boss_jobs_number
vector 9 Network.player minion_recovered_stat:vector ETV
attr source signal_minion_recovered
vector 10 Network.player boss_waiting_time_stat:vector ETV
attr source signal_boss_waiting_time
vector 11 Network.player minion_throughput:vector ETV
attr source signal_minion_throughput
vector 12 Network.player boss_throughput:vector ETV
attr source signal_boss_throughput
0	132	350.010818899333	18
0	145	374.572096856386	19
0	161	409.885659788877	20
0	172	424.316407798322	21
0	182	459.152502260628	22
0	194	482.759195715571	23
0	195	485.772177922575	24
0	201	498.626391939106	25
0	204	504.257053352101	26
0	213	518.320880594042	27
0	218	529.606277218733	28
0	222	544.474116354847	29
0	230	576.063746180305	30
0	270	678.278773713992	31
0	281	718.248680496811	32
0	288	745.446974961035	33
0	293	759.643485049969	34
0	305	771.633189036243	35
0	332	809.709858376226	36
0	353	851.68327330589	37
0	364	866.254594339646	38
0	387	898.877288712772	39
0	400	921.364902624727	40
0	407	928.24738246704	41
0	412	936.678801074628	42
0	433	982.321735692656	43
0	436	996.6151457739	44
0	439	998.578332247422	45
0	448	1005.710382177519	46
0	462	1036.906834399104	47
0	479	1061.842421867361	48
0	487	1092.79524899864	49
0	492	1113.605201043371	50
0	493	1114.677039236101	51
0	504	1123.691498029429	52
0	505	1129.249778830669	53
0	506	1132.891503979849	54
0	527	1197.307452978329	55
0	530	1200.625077428883	56
0	539	1210.569467601529	57
0	542	1212.181010430185	58
0	543	1216.910865530826	59
0	558	1247.804609813255	60
0	566	1273.995301751001	61
0	572	1289.551369399355	62
0	614	1392.693754982952	63
0	622	1410.545638659308	64
0	623	1414.039347624436	65
0	644	1462.960146441721	66
0	645	1467.827204945701	67
0	665	1492.702603001385	68
0	672	1511.178739568994	69
0	680	1535.6560857865	70
0	699	1572.145573695894	71
0	709	1594.90701647449	72
0	729	1656.853014036438	73
0	745	1712.358529860584	74
0	748	1715.185054095412	75
0	758	1733.229279004441	76
0	764	1743.971258822437	77
0	768	1746.054420653126	78
0	771	1757.621364611866	79
0	777	1783.211921914619	80
0	789	1814.529226397572	81
0	799	1825.777074685863	82
0	804	1848.851726261426	83
0	810	1861.056690122061	84
0	819	1876.726512660287	85
0	831	1895.945298720578	86
0	865	1987.822623068028	87
0	879	2012.476463351471	88
0	880	2017.085272404028	89
0	898	2062.089289417427	90
0	905	2076.720431353892	91
0	914	2097.610005375647	92
0	920	2122.267869204761	93
0	934	2155.998203327351	94
0	941	2173.765504411188	95
0	944	2185.598958679865	96
0	945	2187.091472560026	97
0	950	2190.245490699283	98
0	957	2200.380888029195	99
0	978	2230.690108208044	100
0	995	2261.069841271359	101
0	1001	2275.7257268473	102
0	1006	2281.31450758657	103
0	1013	2299.677721691161	104
0	1018	2307.223924518598	105
0	1021	2315.248505463691	106
0	1022	2320.798821673414	107
0	1029	2347.49546646419	108
0	1032	2357.419078591596	109
0	1044	2376.32439370784	110
0	1052	2398.979161869137	111
0	1061	2412.954460506201	112
0	1062	2413.680459554476	113
0	1069	2423.310289722791	114
0	1074	2436.279274617715	115
0	1084	2454.849286363453	116
0	1093	2486.19419805096	117
1	132	350.010818899333	0
1	142	369.375255317272	0
1	145	374.572096856386	0
1	158	404.258574086135	0
1	161	409.885659788877	0
1	171	415.788676091801	0
1	172	424.316407798322	0
1	179	443.919676013075	0
1	182	459.152502260628	0
1	185	470.546870107225	0
1	193	480.431995840156	1
1	194	482.759195715571	1
1	195	485.772177922575	0
1	200	495.029730108993	0
1	201	498.626391939106	0
1	203	500.513567475372	0
1	204	504.257053352101	0
1	212	517.809300423735	0
1	213	518.320880594042	0
1	215	521.192237302952	0
1	218	529.606277218733	0
1	221	541.925002229654	0
1	222	544.474116354847	0
1	227	567.695925539455	0
1	230	576.063746180305	0
1	269	660.252978140038	0
1	270	678.278773713992	0
1	278	709.366630100926	0
1	281	718.248680496811	0
1	287	743.646848964604	0
1	288	745.446974961035	0
1	290	756.458935907148	0
1	293	759.643485049969	0
1	298	767.120392425216	0
1	305	771.633189036243	0
1	323	789.815789590426	0
1	332	809.709858376226	0
1	348	831.608480159845	0
1	353	851.68327330589	0
1	363	863.970073409175	0
1	364	866.254594339646	0
1	386	898.688180290939	0
1	387	898.877288712772	0
1	395	910.944778126664	0
1	397	912.065066633432	1
1	400	921.364902624727	1
1	407	928.24738246704	0
1	409	934.472084532428	0
1	412	936.678801074628	0
1	428	959.834294333765	0
1	430	963.034023953894	1
1	433	982.321735692656	1
1	435	995.44102465029	1
1	436	996.6151457739	1
1	439	998.578332247422	0
1	445	1004.276199296497	0
1	448	1005.710382177519	0
1	455	1030.943152599568	0
1	462	1036.906834399104	0
1	476	1050.110245986447	0
1	479	1061.842421867361	0
1	482	1074.807943387107	0
1	486	1086.494175780376	1
1	487	1092.79524899864	1
1	489	1102.06552599861	1
1	492	1113.605201043371	1
1	493	1114.677039236101	0
1	497	1119.223715317434	0
1	501	1121.890324746436	1
1	503	1123.663479696237	2
1	504	1123.691498029429	2
1	505	1129.249778830669	1
1	506	1132.891503979849	0
1	524	1186.897939430832	0
1	526	1191.951539220539	1
1	527	1197.307452978329	1
1	530	1200.625077428883	0
1	532	1202.276890746692	0
1	536	1207.192094069512	1
1	539	1210.569467601529	1
1	541	1212.083298246598	1
1	542	1212.181010430185	1
1	543	1216.910865530826	0
1	557	1247.010455122903	0
1	558	1247.804609813255	0
1	565	1272.276126545475	0
1	566	1273.995301751001	0
1	569	1284.608791838486	0
1	572	1289.551369399355	0
1	613	1387.632399260903	0
1	614	1392.693754982952	0
1	617	1403.412013724196	0
1	621	1409.315926484005	1
1	622	1410.545638659308	1
1	623	1414.039347624436	0
1	637	1440.302525160037	0
1	643	1462.555294735073	1
1	644	1462.960146441721	1
1	645	1467.827204945701	0
1	662	1489.486066902343	0
1	665	1492.702603001385	0
1	671	1507.762238717833	0
1	672	1511.178739568994	0
1	677	1533.228522866138	0
1	680	1535.6560857865	0
1	692	1558.498177338543	0
1	699	1572.145573695894	0
1	708	1590.470735222049	0
1	709	1594.90701647449	0
1	728	1645.874418155944	0
1	729	1656.853014036438	0
1	740	1688.598277283569	0
1	742	1697.269698461538	1
1	745	1712.358529860584	1
1	748	1715.185054095412	0
1	755	1731.744765826945	0
1	758	1733.229279004441	0
1	761	1737.595552176882	0
1	764	1743.971258822437	0
1	767	1744.899527686484	0
1	768	1746.054420653126	0
1	770	1755.198627303625	0
1	771	1757.621364611866	0
1	776	1782.557906561692	0
1	777	1783.211921914619	0
1	784	1810.00658113624	0
1	789	1814.529226397572	0
1	796	1819.834207241802	0
1	799	1825.777074685863	0
1	803	1845.586409673488	0
1	804	1848.851726261426	0
1	809	1858.271437782732	0
1	810	1861.056690122061	0
1	812	1868.692586631094	0
1	819	1876.726512660287	0
1	830	1893.453134115984	0
1	831	1895.945298720578	0
1	864	1984.3531764257	0
1	865	1987.822623068028	0
1	872	1993.439770634155	0
1	878	2005.414674315447	1
1	879	2012.476463351471	1
1	880	2017.085272404028	0
1	893	2057.829292268349	0
1	898	2062.089289417427	0
1	902	2067.19127090892	0
1	905	2076.720431353892	0
1	913	2093.540604683601	0
1	914	2097.610005375647	0
1	917	2118.272495163052	0
1	920	2122.267869204761	0
1	923	2123.862463980623	0
1	925	2125.583614538701	1
1	931	2148.351335550223	2
1	934	2155.998203327351	2
1	936	2158.513685384924	2
1	938	2159.742235841395	3
1	941	2173.765504411188	3
1	944	2185.598958679865	2
1	945	2187.091472560026	1
1	947	2189.21250810744	1
1	950	2190.245490699283	1
1	957	2200.380888029195	0
1	977	2228.011412246586	0
1	978	2230.690108208044	0
1	992	2256.953625658148	0
1	995	2261.069841271359	0
1	998	2270.467559923692	0
1	1001	2275.7257268473	0
1	1003	2277.145134657383	0
1	1006	2281.31450758657	0
1	1010	2292.356304954715	0
1	1012	2296.559424856657	1
1	1013	2299.677721691161	1
1	1015	2299.848805152245	1
1	1018	2307.223924518598	1
1	1020	2312.593632662147	1
1	1021	2315.248505463691	1
1	1022	2320.798821673414	0
1	1028	2345.24593224152	0
1	1029	2347.49546646419	0
1	1031	2353.399464487008	0
1	1032	2357.419078591596	0
1	1043	2372.427930054302	0
1	1044	2376.32439370784	0
1	1051	2398.96845263205	0
1	1052	2398.979161869137	0
1	1056	2404.701489116181	0
1	1058	2408.893875339512	1
1	1061	2412.954460506201	1
1	1062	2413.680459554476	0
1	1066	2418.968326914021	0
1	1069	2423.310289722791	0
1	1073	2427.010862944216	0
1	1074	2436.279274617715	0
1	1083	2443.433928593672	0
1	1084	2454.849286363453	0
1	1092	2480.621220096792	0
1	1093	2486.19419805096	0
1	1097	2496.852317827315	0
2	132	350.010818899333	0.120287157022
2	145	374.572096856386	5.196841539114
2	161	409.885659788877	5.627085702742
2	172	424.316407798322	8.527731706521
2	182	459.152502260628	15.232826247553
2	194	482.759195715571	12.212325608346
2	195	485.772177922575	5.340182082419
2	201	498.626391939106	3.596661830113
2	204	504.257053352101	3.743485876729
2	213	518.320880594042	0.511580170307
2	218	529.606277218733	8.414039915781
2	222	544.474116354847	2.549114125193
2	230	576.063746180305	8.36782064085
2	270	678.278773713992	18.025795573954
2	281	718.248680496811	8.882050395885
2	288	745.446974961035	1.800125996431
2	293	759.643485049969	3.184549142821
2	305	771.633189036243	4.512796611027
2	332	809.709858376226	19.8940687858
2	353	851.68327330589	20.074793146045
2	364	866.254594339646	2.284520930471
2	387	898.877288712772	0.189108421833
2	400	921.364902624727	10.420124498063
2	407	928.24738246704	16.182315833608
2	412	936.678801074628	2.2067165422
2	433	982.321735692656	22.487441358891
2	436	996.6151457739	33.581121820006
2	439	998.578332247422	3.137307597132
2	448	1005.710382177519	1.434182881022
2	462	1036.906834399104	5.963681799536
2	479	1061.842421867361	11.732175880914
2	487	1092.79524899864	17.987305611533
2	492	1113.605201043371	27.111025262995
2	493	1114.677039236101	12.611513237491
2	504	1123.691498029429	4.467782711995
2	505	1129.249778830669	7.359454084233
2	506	1132.891503979849	9.228024283612
2	527	1197.307452978329	10.409513547497
2	530	1200.625077428883	8.673538208344
2	539	1210.569467601529	8.292576854837
2	542	1212.181010430185	4.988916360673
2	543	1216.910865530826	4.827567284228
2	558	1247.804609813255	0.794154690352
2	566	1273.995301751001	1.719175205526
2	572	1289.551369399355	4.942577560869
2	614	1392.693754982952	5.061355722049
2	622	1410.545638659308	7.133624935112
2	623	1414.039347624436	4.723421140431
2	644	1462.960146441721	22.657621281684
2	645	1467.827204945701	5.271910210628
2	665	1492.702603001385	3.216536099042
2	672	1511.178739568994	3.416500851161
2	680	1535.6560857865	2.427562920362
2	699	1572.145573695894	13.647396357351
2	709	1594.90701647449	4.436281252441
2	729	1656.853014036438	10.978595880494
2	745	1712.358529860584	23.760252577015
2	748	1715.185054095412	17.915355633874
2	758	1733.229279004441	1.484513177496
2	764	1743.971258822437	6.375706645555
2	768	1746.054420653126	1.154892966642
2	771	1757.621364611866	2.422737308241
2	777	1783.211921914619	0.654015352927
2	789	1814.529226397572	4.522645261332
2	799	1825.777074685863	5.942867444061
2	804	1848.851726261426	3.265316587938
2	810	1861.056690122061	2.785252339329
2	819	1876.726512660287	8.033926029193
2	831	1895.945298720578	2.492164604594
2	865	1987.822623068028	3.469446642328
2	879	2012.476463351471	19.036692717316
2	880	2017.085272404028	11.670598088581
2	898	2062.089289417427	4.259997149078
2	905	2076.720431353892	9.529160444972
2	914	2097.610005375647	4.069400692046
2	920	2122.267869204761	3.995374041709
2	934	2155.998203327351	32.135739346728
2	941	2173.765504411188	48.181889872487
2	944	2185.598958679865	37.247623129642
2	945	2187.091472560026	28.577787175102
2	950	2190.245490699283	30.503254857888
2	957	2200.380888029195	11.168379921755
2	978	2230.690108208044	2.678695961458
2	995	2261.069841271359	4.116215613211
2	1001	2275.7257268473	5.258166923608
2	1006	2281.31450758657	4.169372929187
2	1013	2299.677721691161	7.321416736446
2	1018	2307.223924518598	10.664499661941
2	1021	2315.248505463691	15.399700311446
2	1022	2320.798821673414	8.205189011267
2	1029	2347.49546646419	2.24953422267
2	1032	2357.419078591596	4.019614104588
2	1044	2376.32439370784	3.896463653538
2	1052	2398.979161869137	0.010709237087
2	1061	2412.954460506201	8.25297139002
2	1062	2413.680459554476	4.786584214964
2	1069	2423.310289722791	4.34196280877
2	1074	2436.279274617715	9.268411673499
2	1084	2454.849286363453	11.415357769781
2	1093	2486.19419805096	5.572977954168
3	134	354.557151855681	1
3	137	363.823894831212	1
3	139	365.613274632813	2
3	144	370.585233872072	2
3	149	379.681710898725	1
3	152	396.392065199602	1
3	154	396.482332329256	2
3	160	405.963380670505	1
3	164	410.850292778012	1
3	167	413.949212177533	1
3	169	414.400860177836	2
3	174	424.726697612854	3
3	181	456.111867721576	1
3	187	472.775236854993	1
3	189	478.504847620427	2
3	191	478.696928021011	3
3	206	508.451775855767	1
3	208	508.857708167273	2
3	217	524.28980936815	1
3	224	553.294729384193	1
3	229	573.415496850299	1
3	233	579.327708019238	1
3	235	581.229214307217	2
3	239	587.051509254189	1
3	241	587.830568865482	2
3	243	588.51024789307	3
3	248	597.69174064835	1
3	251	599.625904239714	1
3	253	601.464798297421	2
3	257	621.555207288251	1
3	260	634.774522045433	1
3	263	653.323311617842	1
3	266	658.573298451177	1
3	272	684.49641219479	1
3	274	692.002243623595	2
3	280	712.428054766382	1
3	284	740.165402144317	1
3	292	758.199070333875	1
3	296	765.574160589746	1
3	300	768.598356354349	2
3	302	769.743416064392	3
3	304	770.107547801784	4
3	307	771.829954097869	5
3	310	774.42754541804	5
3	314	782.306578941402	4
3	318	784.678757195726	3
3	325	792.11062420985	1
3	327	794.103925195273	2
3	329	804.254275049714	3
3	331	808.053947914704	4
3	336	813.187159306011	3
3	339	815.945202965973	3
3	343	826.437857566554	2
3	346	831.143790537557	2
3	350	836.200513181557	3
3	352	846.215295774186	4
3	356	855.994726423543	4
3	359	858.518294259223	4
3	368	873.102858222541	1
3	370	874.596576772936	2
3	372	876.56858066659	3
3	377	885.172340007252	1
3	380	889.881592834636	1
3	383	894.21520461275	1
3	389	901.197466405341	1
3	392	907.503892790405	1
3	399	919.108782958971	1
3	402	923.552397120488	2
3	404	926.478400633381	3
3	406	927.346722870158	4
3	411	935.437711264658	5
3	416	938.35340222437	4
3	422	948.159850924412	1
3	424	948.645510515757	2
3	432	971.23130375891	1
3	438	997.739497752726	2
3	441	1002.247055797812	3
3	447	1004.940780636881	2
3	452	1015.089663101238	1
3	457	1031.744717209477	1
3	459	1033.869800367338	2
3	461	1035.218628114189	3
3	464	1042.10607936867	4
3	466	1042.89333419035	5
3	471	1044.907710098221	3
3	478	1056.478227078671	1
3	484	1081.535408919244	1
3	491	1110.924019657824	2
3	495	1116.577226252923	3
3	499	1120.370427437659	4
3	510	1138.101066537554	3
3	515	1158.997769375823	1
3	517	1164.389614103138	2
3	521	1176.368381827385	1
3	529	1199.872236254162	1
3	534	1204.278596782078	2
3	538	1209.467598345595	3
3	548	1232.961859612421	1
3	551	1236.984180589291	1
3	553	1241.706954241873	2
3	560	1250.196517913514	1
3	563	1268.951555771959	1
3	571	1287.623521008735	1
3	575	1300.845123160787	1
3	578	1320.578965987141	1
3	581	1332.584785782388	1
3	584	1341.640472899657	1
3	587	1352.712257866263	1
3	589	1353.596872460635	2
3	593	1354.430462899995	1
3	596	1363.525267817574	1
3	598	1363.98202022208	2
3	602	1366.79840673552	1
3	604	1367.798799028257	2
3	608	1380.988650301259	1
3	611	1383.440373029984	1
3	619	1405.945167179226	1
3	626	1422.396675441742	1
3	629	1429.627255756317	1
3	631	1430.685088772856	2
3	635	1439.937483048556	1
3	639	1440.601567088654	2
3	641	1441.274379830186	3
3	649	1470.089611214683	2
3	653	1477.856523929648	1
3	656	1479.634303538207	1
3	659	1481.017581247421	1
3	664	1489.97936585555	1
3	667	1499.513136980461	2
3	674	1529.541644465283	1
3	679	1534.061715485615	1
3	683	1538.630925993558	1
3	686	1553.230681240834	1
3	688	1553.449239273142	2
3	690	1553.946754001386	3
3	694	1561.300505661371	4
3	696	1562.463800429604	5
3	698	1566.131236080638	6
3	701	1577.652101419888	7
3	711	1595.558615324041	3
3	715	1602.787541439405	2
3	719	1629.290346216222	1
3	722	1637.768291493497	1
3	725	1639.148682106153	1
3	731	1657.708909622613	1
3	734	1675.495492245268	1
3	737	1682.1846757928	1
3	744	1697.637724245331	1
3	747	1714.252640392117	2
3	752	1725.952996459446	1
3	757	1733.091468649534	1
3	763	1743.602300963212	1
3	773	1769.737070293725	1
3	779	1797.429649869354	1
3	782	1808.423608925901	1
3	786	1811.117469180127	2
3	788	1812.727691339913	3
3	794	1819.29507133408	1
3	798	1823.829339928366	2
3	806	1850.05842958545	1
3	814	1870.140801328938	1
3	816	1872.093750590139	2
3	818	1876.405968623866	3
3	821	1878.066848027262	4
3	823	1880.162037838015	5
3	833	1914.482613606068	1
3	835	1920.880977758516	2
3	838	1924.746660298332	2
3	842	1929.7353207484	1
3	845	1951.433106009163	1
3	848	1961.080825932835	1
3	851	1968.963691792235	1
3	854	1974.704298001108	1
3	857	1979.34222648922	1
3	860	1982.36574677823	1
3	862	1983.838293113229	2
3	867	1989.156610482477	3
3	869	1990.350194517302	4
3	874	1995.780825651345	4
3	876	1996.531113902884	5
3	882	2019.802131646665	6
3	885	2021.949410744452	6
3	895	2060.879589853667	1
3	897	2060.908898717302	2
3	904	2070.679099586889	1
3	908	2091.617982071237	1
3	910	2092.486468161446	2
3	919	2120.154046587702	1
3	927	2133.359064701743	1
3	929	2140.34363870594	2
3	933	2151.696984518615	3
3	940	2165.460219418262	4
3	943	2182.948533678196	5
3	949	2189.646182425831	6
3	952	2193.914878067786	7
3	954	2193.954164107906	8
3	956	2194.561011312908	9
3	959	2200.766102351387	10
3	964	2210.22901050779	8
3	966	2211.800957408794	9
3	968	2213.125016198576	10
3	971	2216.818198176185	10
3	980	2231.069777978458	7
3	987	2245.062037414236	3
3	994	2260.881398963393	1
3	1000	2274.961049532209	1
3	1005	2280.214129127697	2
3	1017	2305.165130442435	1
3	1025	2333.953071763477	1
3	1034	2360.789919575655	1
3	1037	2362.698859064813	1
3	1039	2363.643523370556	2
3	1046	2392.218169230268	1
3	1048	2394.39108518217	2
3	1054	2400.655127529596	2
3	1060	2408.898363050178	3
3	1068	2423.295046423066	2
3	1071	2423.399860528197	3
3	1076	2437.376253249859	4
3	1079	2439.988562019943	4
3	1088	2479.732826589049	1
3	1090	2480.108407740282	2
4	134	354.557151855681	0
4	135	354.988010212333	0
4	137	363.823894831212	0
4	139	365.613274632813	1
4	140	367.437653693906	1
4	144	370.585233872072	1
4	146	377.933842623133	1
4	147	378.227708688552	0
4	149	379.681710898725	0
4	150	380.48252182178	0
4	152	396.392065199602	0
4	154	396.482332329256	1
4	155	396.962941503147	1
4	156	398.300033093933	0
4	160	405.963380670505	0
4	162	410.202674536204	0
4	164	410.850292778012	0
4	165	411.728018954802	0
4	167	413.949212177533	0
4	169	414.400860177836	1
4	174	424.726697612854	2
4	175	426.793862050005	2
4	176	430.211748288569	1
4	177	432.065887009648	0
4	181	456.111867721576	0
4	183	461.32028844136	0
4	187	472.775236854993	0
4	189	478.504847620427	1
4	191	478.696928021011	2
4	196	487.46603186348	2
4	197	489.756316220806	1
4	198	493.047034816817	0
4	206	508.451775855767	0
4	208	508.857708167273	1
4	209	509.224275486798	1
4	210	509.260995722956	0
4	217	524.28980936815	0
4	219	530.443860991797	0
4	224	553.294729384193	0
4	225	553.539762304426	0
4	229	573.415496850299	0
4	231	576.794940733807	0
4	233	579.327708019238	0
4	235	581.229214307217	1
4	236	583.707434073908	1
4	237	584.699554704639	0
4	239	587.051509254189	0
4	241	587.830568865482	1
4	243	588.51024789307	2
4	244	591.533300242239	2
4	245	591.922492378734	1
4	246	597.496084991993	0
4	248	597.69174064835	0
4	249	598.14438510257	0
4	251	599.625904239714	0
4	253	601.464798297421	1
4	254	607.55192205565	1
4	255	615.857693202351	0
4	257	621.555207288251	0
4	258	623.615267506405	0
4	260	634.774522045433	0
4	261	642.835922032726	0
4	263	653.323311617842	0
4	264	653.560596173901	0
4	266	658.573298451177	0
4	267	659.095212753318	0
4	272	684.49641219479	0
4	274	692.002243623595	1
4	275	698.293145496156	1
4	276	698.354662597259	0
4	280	712.428054766382	0
4	282	719.871036053628	0
4	284	740.165402144317	0
4	285	740.73753779065	0
4	292	758.199070333875	0
4	294	762.530771949577	0
4	296	765.574160589746	0
4	300	768.598356354349	1
4	302	769.743416064392	2
4	304	770.107547801784	3
4	307	771.829954097869	4
4	308	773.095586316163	4
4	310	774.42754541804	4
4	311	777.730342679099	4
4	312	781.510151980347	3
4	314	782.306578941402	3
4	315	783.903746637259	3
4	316	783.961747000227	2
4	318	784.678757195726	2
4	319	786.032375125216	2
4	320	788.187253574135	1
4	321	789.335059980078	0
4	325	792.11062420985	0
4	327	794.103925195273	1
4	329	804.254275049714	2
4	331	808.053947914704	3
4	333	809.713967176148	3
4	334	812.6494455774	2
4	336	813.187159306011	2
4	337	814.460898851313	2
4	339	815.945202965973	2
4	340	818.69522697444	2
4	341	821.247933063524	1
4	343	826.437857566554	1
4	344	827.745143079204	1
4	346	831.143790537557	1
4	350	836.200513181557	2
4	352	846.215295774186	3
4	354	851.697652229663	3
4	356	855.994726423543	3
4	357	858.439873135826	3
4	359	858.518294259223	3
4	360	859.189589057253	3
4	361	862.377004437793	2
4	365	869.004070279493	1
4	366	871.46600364053	0
4	368	873.102858222541	0
4	370	874.596576772936	1
4	372	876.56858066659	2
4	373	878.21271781633	2
4	374	878.769843689547	1
4	375	885.171601988687	0
4	377	885.172340007252	0
4	378	888.154633140129	0
4	380	889.881592834636	0
4	381	889.887134510209	0
4	383	894.21520461275	0
4	384	896.356804644753	0
4	389	901.197466405341	0
4	390	902.782249917931	0
4	392	907.503892790405	0
4	393	909.670986416698	0
4	399	919.108782958971	0
4	402	923.552397120488	1
4	404	926.478400633381	2
4	406	927.346722870158	3
4	411	935.437711264658	4
4	413	936.84550483982	4
4	414	938.118176119444	3
4	416	938.35340222437	3
4	417	938.605921579753	3
4	418	942.351960017143	2
4	419	946.553388363809	1
4	420	947.597968079295	0
4	422	948.159850924412	0
4	424	948.645510515757	1
4	425	950.136511138446	1
4	426	952.482229521585	0
4	432	971.23130375891	0
4	438	997.739497752726	1
4	441	1002.247055797812	2
4	442	1002.26182305319	2
4	443	1002.805581009443	1
4	447	1004.940780636881	1
4	449	1005.898400291681	1
4	450	1006.222386654851	0
4	452	1015.089663101238	0
4	453	1015.163522370448	0
4	457	1031.744717209477	0
4	459	1033.869800367338	1
4	461	1035.218628114189	2
4	464	1042.10607936867	3
4	466	1042.89333419035	4
4	467	1043.727958380253	4
4	468	1043.954208434951	3
4	469	1044.885420598312	2
4	471	1044.907710098221	2
4	472	1045.180842218532	2
4	473	1046.788482439499	1
4	474	1047.511841451202	0
4	478	1056.478227078671	0
4	480	1062.002999099883	0
4	484	1081.535408919244	0
4	491	1110.924019657824	1
4	495	1116.577226252923	2
4	499	1120.370427437659	3
4	507	1133.696649848945	3
4	508	1136.194241878877	2
4	510	1138.101066537554	2
4	511	1140.022540968983	2
4	512	1140.662961957683	1
4	513	1144.903996963056	0
4	515	1158.997769375823	0
4	517	1164.389614103138	1
4	518	1166.16187848017	1
4	519	1168.249127734746	0
4	521	1176.368381827385	0
4	522	1177.552506042201	0
4	529	1199.872236254162	0
4	534	1204.278596782078	1
4	538	1209.467598345595	2
4	544	1217.78113796243	2
4	545	1218.992013535583	1
4	546	1223.168999223732	0
4	548	1232.961859612421	0
4	549	1233.860707085106	0
4	551	1236.984180589291	0
4	553	1241.706954241873	1
4	554	1243.516574591763	1
4	555	1244.059263907245	0
4	560	1250.196517913514	0
4	561	1256.290433616611	0
4	563	1268.951555771959	0
4	567	1274.003227758539	0
4	571	1287.623521008735	0
4	573	1293.906090047549	0
4	575	1300.845123160787	0
4	576	1307.398728639172	0
4	578	1320.578965987141	0
4	579	1320.826315397655	0
4	581	1332.584785782388	0
4	582	1335.466660530231	0
4	584	1341.640472899657	0
4	585	1342.760289391144	0
4	587	1352.712257866263	0
4	589	1353.596872460635	1
4	590	1354.092269908751	1
4	591	1354.182656941885	0
4	593	1354.430462899995	0
4	594	1356.519264633322	0
4	596	1363.525267817574	0
4	598	1363.98202022208	1
4	599	1365.501387112406	1
4	600	1366.106499844448	0
4	602	1366.79840673552	0
4	604	1367.798799028257	1
4	605	1370.774244644749	1
4	606	1371.201307713588	0
4	608	1380.988650301259	0
4	609	1381.119892724894	0
4	611	1383.440373029984	0
4	615	1393.018619657192	0
4	619	1405.945167179226	0
4	624	1414.562041638949	0
4	626	1422.396675441742	0
4	627	1427.058391822751	0
4	629	1429.627255756317	0
4	631	1430.685088772856	1
4	632	1430.764463135407	1
4	633	1433.344292828527	0
4	635	1439.937483048556	0
4	639	1440.601567088654	1
4	641	1441.274379830186	2
4	646	1468.162409647728	2
4	647	1468.522780665391	1
4	649	1470.089611214683	1
4	650	1472.485710892253	1
4	651	1472.971865609237	0
4	653	1477.856523929648	0
4	654	1478.94155168459	0
4	656	1479.634303538207	0
4	657	1480.594301159943	0
4	659	1481.017581247421	0
4	660	1483.563927611195	0
4	664	1489.97936585555	0
4	667	1499.513136980461	1
4	668	1500.514280382777	1
4	669	1502.214438525322	0
4	674	1529.541644465283	0
4	675	1530.18399382206	0
4	679	1534.061715485615	0
4	681	1537.845756279762	0
4	683	1538.630925993558	0
4	684	1544.164804676477	0
4	686	1553.230681240834	0
4	688	1553.449239273142	1
4	690	1553.946754001386	2
4	694	1561.300505661371	3
4	696	1562.463800429604	4
4	698	1566.131236080638	5
4	701	1577.652101419888	6
4	702	1578.888153883387	6
4	703	1586.073714823179	5
4	704	1587.810720912615	4
4	705	1588.033085927655	3
4	706	1588.329178993291	2
4	711	1595.558615324041	2
4	712	1599.5446428064	2
4	713	1601.573197088321	1
4	715	1602.787541439405	1
4	716	1614.549653751509	1
4	717	1615.611381179898	0
4	719	1629.290346216222	0
4	720	1630.37779912547	0
4	722	1637.768291493497	0
4	723	1638.033991821878	0
4	725	1639.148682106153	0
4	726	1640.803095538066	0
4	731	1657.708909622613	0
4	732	1658.917783276086	0
4	734	1675.495492245268	0
4	735	1678.883742509487	0
4	737	1682.1846757928	0
4	738	1683.969861344494	0
4	744	1697.637724245331	0
4	747	1714.252640392117	1
4	749	1716.351176204038	1
4	750	1724.468277299584	0
4	752	1725.952996459446	0
4	753	1726.042472481391	0
4	757	1733.091468649534	0
4	759	1734.390377334034	0
4	763	1743.602300963212	0
4	765	1744.385401138595	0
4	773	1769.737070293725	0
4	774	1769.768186665026	0
4	779	1797.429649869354	0
4	780	1798.400052286211	0
4	782	1808.423608925901	0
4	786	1811.117469180127	1
4	788	1812.727691339913	2
4	790	1817.85630775191	2
4	791	1818.168821179278	1
4	792	1818.463277753132	0
4	794	1819.29507133408	0
4	798	1823.829339928366	1
4	800	1826.352425861551	1
4	801	1827.979269394842	0
4	806	1850.05842958545	0
4	807	1853.048427542868	0
4	814	1870.140801328938	0
4	816	1872.093750590139	1
4	818	1876.405968623866	2
4	821	1878.066848027262	3
4	823	1880.162037838015	4
4	824	1881.468979826442	4
4	825	1885.397424989442	3
4	826	1887.205090631199	2
4	827	1888.68233493408	1
4	828	1890.161555821987	0
4	833	1914.482613606068	0
4	835	1920.880977758516	1
4	836	1923.312119684253	1
4	838	1924.746660298332	1
4	839	1927.341676801771	1
4	840	1929.128694585068	0
4	842	1929.7353207484	0
4	843	1929.786826133163	0
4	845	1951.433106009163	0
4	846	1953.097417406819	0
4	848	1961.080825932835	0
4	849	1963.206022366897	0
4	851	1968.963691792235	0
4	852	1969.100922047782	0
4	854	1974.704298001108	0
4	855	1976.029249534202	0
4	857	1979.34222648922	0
4	858	1980.049237733523	0
4	860	1982.36574677823	0
4	862	1983.838293113229	1
4	867	1989.156610482477	2
4	869	1990.350194517302	3
4	870	1991.348338019286	3
4	874	1995.780825651345	3
4	876	1996.531113902884	4
4	882	2019.802131646665	5
4	883	2021.126447972634	5
4	885	2021.949410744452	5
4	886	2023.595221729808	5
4	887	2030.038525745059	4
4	888	2030.177207357346	3
4	889	2033.623276268374	2
4	890	2034.151553890004	1
4	891	2045.14618898997	0
4	895	2060.879589853667	0
4	897	2060.908898717302	1
4	899	2063.594900912697	1
4	900	2065.823510609724	0
4	904	2070.679099586889	0
4	906	2079.75500165378	0
4	908	2091.617982071237	0
4	910	2092.486468161446	1
4	911	2093.382934122175	1
4	915	2098.461182780371	0
4	919	2120.154046587702	0
4	921	2122.880329043131	0
4	927	2133.359064701743	0
4	929	2140.34363870594	1
4	933	2151.696984518615	2
4	940	2165.460219418262	3
4	943	2182.948533678196	4
4	949	2189.646182425831	5
4	952	2193.914878067786	6
4	954	2193.954164107906	7
4	956	2194.561011312908	8
4	959	2200.766102351387	9
4	960	2201.496540150614	9
4	961	2203.630261233277	8
4	962	2209.990965565518	7
4	964	2210.22901050779	7
4	966	2211.800957408794	8
4	968	2213.125016198576	9
4	969	2213.798140152789	9
4	971	2216.818198176185	9
4	972	2221.475923925903	9
4	973	2225.908987363986	8
4	974	2227.218282182096	7
4	975	2227.907898719001	6
4	980	2231.069777978458	6
4	981	2235.517035656617	6
4	982	2236.519174736901	5
4	983	2236.90384961967	4
4	984	2237.11975648839	3
4	985	2240.686370550193	2
4	987	2245.062037414236	2
4	988	2246.30385139107	2
4	989	2248.174008754138	1
4	990	2254.952024724837	0
4	994	2260.881398963393	0
4	996	2263.773081880482	0
4	1000	2274.961049532209	0
4	1005	2280.214129127697	1
4	1007	2283.041860661464	1
4	1008	2288.628809866603	0
4	1017	2305.165130442435	0
4	1023	2321.141383608261	0
4	1025	2333.953071763477	0
4	1026	2342.345368620805	0
4	1034	2360.789919575655	0
4	1035	2361.116096914229	0
4	1037	2362.698859064813	0
4	1039	2363.643523370556	1
4	1040	2366.372317285231	1
4	1041	2368.69645625085	0
4	1046	2392.218169230268	0
4	1048	2394.39108518217	1
4	1049	2395.77659346854	1
4	1054	2400.655127529596	1
4	1060	2408.898363050178	2
4	1063	2416.775568252187	2
4	1064	2418.137046104822	1
4	1068	2423.295046423066	1
4	1071	2423.399860528197	2
4	1076	2437.376253249859	3
4	1077	2439.302180491842	3
4	1079	2439.988562019943	3
4	1080	2440.058446277826	3
4	1081	2441.397566624963	2
4	1085	2457.119665016474	1
4	1086	2458.728653198282	0
4	1088	2479.732826589049	0
4	1090	2480.108407740282	1
4	1094	2487.210418774604	1
4	1095	2495.480003593138	0
5	134	354.557151855681	0
5	137	363.823894831212	0
5	140	367.437653693906	1.824379061093
5	145	374.572096856386	5.196841539114
5	146	377.933842623133	7.348608751061
5	149	379.681710898725	0
5	152	396.392065199602	0
5	155	396.962941503147	0.480609173891
5	161	409.885659788877	3.922279118372
5	164	410.850292778012	0
5	167	413.949212177533	0
5	172	424.316407798322	9.915547620486
5	175	426.793862050005	11.005185958204
5	176	430.211748288569	5.485050675715
5	182	459.152502260628	3.040634539052
5	195	485.772177922575	12.996941067582
5	196	487.46603186348	8.961184243053
5	197	489.756316220806	11.059388199795
5	206	508.451775855767	0
5	209	509.224275486798	0.366567319525
5	218	529.606277218733	5.316467850583
5	224	553.294729384193	0
5	230	576.063746180305	2.648249330006
5	233	579.327708019238	0
5	236	583.707434073908	2.478219766691
5	239	587.051509254189	0
5	244	591.533300242239	3.702731376757
5	245	591.922492378734	3.412244485664
5	248	597.69174064835	0
5	251	599.625904239714	0
5	254	607.55192205565	6.087123758229
5	257	621.555207288251	0
5	260	634.774522045433	0
5	263	653.323311617842	0
5	266	658.573298451177	0
5	272	684.49641219479	0
5	275	698.293145496156	6.290901872561
5	281	718.248680496811	5.820625730429
5	284	740.165402144317	0
5	293	759.643485049969	1.444414716094
5	296	765.574160589746	0
5	305	771.633189036243	4.512796611027
5	308	773.095586316163	4.497229961814
5	311	777.730342679099	7.986926614707
5	312	781.510151980347	11.402604178563
5	315	783.903746637259	12.07379253939
5	316	783.961747000227	9.534201582187
5	319	786.032375125216	3.725796183814
5	320	788.187253574135	3.508496378409
5	332	809.709858376226	17.599234166376
5	333	809.713967176148	15.610041980875
5	334	812.6494455774	8.395170527686
5	337	814.460898851313	6.406950936609
5	340	818.69522697444	5.508067668429
5	341	821.247933063524	5.302730097551
5	344	827.745143079204	1.30728551265
5	353	851.68327330589	20.539482768333
5	354	851.697652229663	20.089172069818
5	357	858.439873135826	22.239359954269
5	360	859.189589057253	12.974293283067
5	361	862.377004437793	6.38227801425
5	364	866.254594339646	7.736300080423
5	365	869.004070279493	5.033996870318
5	368	873.102858222541	0
5	373	878.21271781633	3.616141043394
5	374	878.769843689547	2.201263022957
5	377	885.172340007252	0
5	380	889.881592834636	0
5	383	894.21520461275	0
5	389	901.197466405341	0
5	392	907.503892790405	0
5	407	928.24738246704	9.138599508069
5	412	936.678801074628	13.12640395414
5	413	936.84550483982	10.367104206439
5	414	938.118176119444	10.771453249286
5	417	938.605921579753	4.133837047325
5	418	942.351960017143	6.914248752485
5	419	946.553388363809	8.199986139439
5	422	948.159850924412	0
5	425	950.136511138446	1.491000622689
5	439	998.578332247422	27.347028488512
5	442	1002.26182305319	4.522325300464
5	443	1002.805581009443	0.558525211631
5	448	1005.710382177519	1.434182881022
5	449	1005.898400291681	0.9576196548
5	452	1015.089663101238	0
5	462	1036.906834399104	5.162117189627
5	467	1043.727958380253	9.858158012915
5	468	1043.954208434951	8.735580320762
5	469	1044.885420598312	2.779341229642
5	472	1045.180842218532	2.287508028182
5	473	1046.788482439499	1.880772341278
5	479	1061.842421867361	5.36419478869
5	493	1114.677039236101	33.141630316857
5	506	1132.891503979849	21.967484322025
5	507	1133.696649848945	17.119423596022
5	508	1136.194241878877	16.970526561443
5	511	1140.022540968983	19.652113531324
5	512	1140.662961957683	2.561895420129
5	515	1158.997769375823	0
5	518	1166.16187848017	1.772264377032
5	521	1176.368381827385	0
5	530	1200.625077428883	0.752841174721
5	543	1216.910865530826	14.633974784134
5	544	1217.78113796243	13.502541180352
5	545	1218.992013535583	9.524415189988
5	548	1232.961859612421	0
5	551	1236.984180589291	0
5	554	1243.516574591763	1.80962034989
5	560	1250.196517913514	0
5	563	1268.951555771959	0
5	566	1273.995301751001	1.719175205526
5	572	1289.551369399355	1.92784839062
5	575	1300.845123160787	0
5	578	1320.578965987141	0
5	581	1332.584785782388	0
5	584	1341.640472899657	0
5	587	1352.712257866263	0
5	590	1354.092269908751	0.495397448116
5	593	1354.430462899995	0
5	596	1363.525267817574	0
5	599	1365.501387112406	1.519366890326
5	602	1366.79840673552	0
5	605	1370.774244644749	2.975445616492
5	608	1380.988650301259	0
5	611	1383.440373029984	0
5	614	1392.693754982952	5.061355722049
5	623	1414.039347624436	8.09418044521
5	626	1422.396675441742	0
5	629	1429.627255756317	0
5	632	1430.764463135407	0.079374362551
5	635	1439.937483048556	0
5	645	1467.827204945701	27.524679785664
5	646	1468.162409647728	27.560842559074
5	647	1468.522780665391	27.248400835205
5	650	1472.485710892253	2.39609967757
5	653	1477.856523929648	0
5	656	1479.634303538207	0
5	659	1481.017581247421	0
5	665	1492.702603001385	2.723237145835
5	668	1500.514280382777	1.001143402316
5	674	1529.541644465283	0
5	680	1535.6560857865	1.594370300885
5	683	1538.630925993558	0
5	686	1553.230681240834	0
5	699	1572.145573695894	18.696334422752
5	702	1578.888153883387	24.941399882001
5	703	1586.073714823179	27.575537484636
5	704	1587.810720912615	26.510215251244
5	705	1588.033085927655	25.569285498051
5	706	1588.329178993291	22.197942912653
5	709	1594.90701647449	17.254915054602
5	712	1599.5446428064	9.073907584351
5	713	1601.573197088321	6.01458176428
5	716	1614.549653751509	11.762112312104
5	719	1629.290346216222	0
5	722	1637.768291493497	0
5	725	1639.148682106153	0
5	731	1657.708909622613	0
5	734	1675.495492245268	0
5	737	1682.1846757928	0
5	748	1715.185054095412	17.547329850081
5	749	1716.351176204038	2.098535811921
5	752	1725.952996459446	0
5	758	1733.229279004441	0.137810354907
5	764	1743.971258822437	0.368957859225
5	773	1769.737070293725	0
5	779	1797.429649869354	0
5	782	1808.423608925901	0
5	789	1814.529226397572	4.522645261332
5	790	1817.85630775191	6.738838571783
5	791	1818.168821179278	5.441129839365
5	794	1819.29507133408	0
5	799	1825.777074685863	5.942867444061
5	800	1826.352425861551	2.523085933185
5	806	1850.05842958545	0
5	819	1876.726512660287	6.585711331349
5	824	1881.468979826442	9.375229236303
5	825	1885.397424989442	8.991456365576
5	826	1887.205090631199	9.138242603937
5	827	1888.68233493408	8.520297096065
5	833	1914.482613606068	0
5	836	1923.312119684253	2.431141925737
5	839	1927.341676801771	2.595016503439
5	842	1929.7353207484	0
5	845	1951.433106009163	0
5	848	1961.080825932835	0
5	851	1968.963691792235	0
5	854	1974.704298001108	0
5	857	1979.34222648922	0
5	860	1982.36574677823	0
5	865	1987.822623068028	3.984329954799
5	870	1991.348338019286	6.995161593586
5	880	2017.085272404028	27.928661921551
5	883	2021.126447972634	30.776253455332
5	886	2023.595221729808	30.155451095653
5	887	2030.038525745059	34.257700093714
5	888	2030.177207357346	33.646093454462
5	889	2033.623276268374	13.821144621709
5	890	2034.151553890004	12.202143145552
5	898	2062.089289417427	1.20969956376
5	899	2063.594900912697	2.686002195395
5	905	2076.720431353892	6.041331767003
5	908	2091.617982071237	0
5	911	2093.382934122175	0.896465960729
5	914	2097.610005375647	4.069400692046
5	920	2122.267869204761	2.113822617059
5	957	2200.380888029195	67.021823327452
5	960	2201.496540150614	61.152901444674
5	961	2203.630261233277	51.933276714662
5	962	2209.990965565518	44.530746147256
5	969	2213.798140152789	30.849606474593
5	972	2221.475923925903	31.829741500072
5	973	2225.908987363986	31.9941092962
5	974	2227.218282182096	33.26411807419
5	975	2227.907898719001	33.346887406093
5	978	2230.690108208044	29.924005856657
5	981	2235.517035656617	25.288025148827
5	982	2236.519174736901	24.718217328107
5	983	2236.90384961967	23.778833421094
5	984	2237.11975648839	20.301558312205
5	985	2240.686370550193	12.674958303607
5	988	2246.30385139107	15.234073412612
5	989	2248.174008754138	3.111971339902
5	995	2261.069841271359	0.188442307966
5	1001	2275.7257268473	0.764677315091
5	1006	2281.31450758657	4.169372929187
5	1007	2283.041860661464	2.827731533767
5	1022	2320.798821673414	15.633691230979
5	1025	2333.953071763477	0
5	1034	2360.789919575655	0
5	1037	2362.698859064813	0
5	1040	2366.372317285231	2.728793914675
5	1046	2392.218169230268	0
5	1049	2395.77659346854	1.38550828637
5	1052	2398.979161869137	0.010709237087
5	1062	2413.680459554476	13.02533202488
5	1063	2416.775568252187	12.074079136006
5	1064	2418.137046104822	9.238683054644
5	1069	2423.310289722791	4.34196280877
5	1074	2436.279274617715	12.984228194649
5	1077	2439.302180491842	15.902319963645
5	1080	2440.058446277826	13.04758333361
5	1081	2441.397566624963	4.021313375104
5	1084	2454.849286363453	14.86072434351
5	1085	2457.119665016474	13.685736422802
5	1088	2479.732826589049	0
5	1093	2486.19419805096	6.085790310678
5	1094	2487.210418774604	6.589198677812
6	135	354.988010212333	27
6	140	367.437653693906	28
6	146	377.933842623133	29
6	147	378.227708688552	30
6	150	380.48252182178	31
6	155	396.962941503147	32
6	156	398.300033093933	33
6	162	410.202674536204	34
6	165	411.728018954802	35
6	175	426.793862050005	36
6	176	430.211748288569	37
6	177	432.065887009648	38
6	183	461.32028844136	39
6	196	487.46603186348	40
6	197	489.756316220806	41
6	198	493.047034816817	42
6	209	509.224275486798	43
6	210	509.260995722956	44
6	219	530.443860991797	45
6	225	553.539762304426	46
6	231	576.794940733807	47
6	236	583.707434073908	48
6	237	584.699554704639	49
6	244	591.533300242239	50
6	245	591.922492378734	51
6	246	597.496084991993	52
6	249	598.14438510257	53
6	254	607.55192205565	54
6	255	615.857693202351	55
6	258	623.615267506405	56
6	261	642.835922032726	57
6	264	653.560596173901	58
6	267	659.095212753318	59
6	275	698.293145496156	60
6	276	698.354662597259	61
6	282	719.871036053628	62
6	285	740.73753779065	63
6	294	762.530771949577	64
6	308	773.095586316163	65
6	311	777.730342679099	66
6	312	781.510151980347	67
6	315	783.903746637259	68
6	316	783.961747000227	69
6	319	786.032375125216	70
6	320	788.187253574135	71
6	321	789.335059980078	72
6	333	809.713967176148	73
6	334	812.6494455774	74
6	337	814.460898851313	75
6	340	818.69522697444	76
6	341	821.247933063524	77
6	344	827.745143079204	78
6	354	851.697652229663	79
6	357	858.439873135826	80
6	360	859.189589057253	81
6	361	862.377004437793	82
6	365	869.004070279493	83
6	366	871.46600364053	84
6	373	878.21271781633	85
6	374	878.769843689547	86
6	375	885.171601988687	87
6	378	888.154633140129	88
6	381	889.887134510209	89
6	384	896.356804644753	90
6	390	902.782249917931	91
6	393	909.670986416698	92
6	413	936.84550483982	93
6	414	938.118176119444	94
6	417	938.605921579753	95
6	418	942.351960017143	96
6	419	946.553388363809	97
6	420	947.597968079295	98
6	425	950.136511138446	99
6	426	952.482229521585	100
6	442	1002.26182305319	101
6	443	1002.805581009443	102
6	449	1005.898400291681	103
6	450	1006.222386654851	104
6	453	1015.163522370448	105
6	467	1043.727958380253	106
6	468	1043.954208434951	107
6	469	1044.885420598312	108
6	472	1045.180842218532	109
6	473	1046.788482439499	110
6	474	1047.511841451202	111
6	480	1062.002999099883	112
6	507	1133.696649848945	113
6	508	1136.194241878877	114
6	511	1140.022540968983	115
6	512	1140.662961957683	116
6	513	1144.903996963056	117
6	518	1166.16187848017	118
6	519	1168.249127734746	119
6	522	1177.552506042201	120
6	544	1217.78113796243	121
6	545	1218.992013535583	122
6	546	1223.168999223732	123
6	549	1233.860707085106	124
6	554	1243.516574591763	125
6	555	1244.059263907245	126
6	561	1256.290433616611	127
6	567	1274.003227758539	128
6	573	1293.906090047549	129
6	576	1307.398728639172	130
6	579	1320.826315397655	131
6	582	1335.466660530231	132
6	585	1342.760289391144	133
6	590	1354.092269908751	134
6	591	1354.182656941885	135
6	594	1356.519264633322	136
6	599	1365.501387112406	137
6	600	1366.106499844448	138
6	605	1370.774244644749	139
6	606	1371.201307713588	140
6	609	1381.119892724894	141
6	615	1393.018619657192	142
6	624	1414.562041638949	143
6	627	1427.058391822751	144
6	632	1430.764463135407	145
6	633	1433.344292828527	146
6	646	1468.162409647728	147
6	647	1468.522780665391	148
6	650	1472.485710892253	149
6	651	1472.971865609237	150
6	654	1478.94155168459	151
6	657	1480.594301159943	152
6	660	1483.563927611195	153
6	668	1500.514280382777	154
6	669	1502.214438525322	155
6	675	1530.18399382206	156
6	681	1537.845756279762	157
6	684	1544.164804676477	158
6	702	1578.888153883387	159
6	703	1586.073714823179	160
6	704	1587.810720912615	161
6	705	1588.033085927655	162
6	706	1588.329178993291	163
6	712	1599.5446428064	164
6	713	1601.573197088321	165
6	716	1614.549653751509	166
6	717	1615.611381179898	167
6	720	1630.37779912547	168
6	723	1638.033991821878	169
6	726	1640.803095538066	170
6	732	1658.917783276086	171
6	735	1678.883742509487	172
6	738	1683.969861344494	173
6	749	1716.351176204038	174
6	750	1724.468277299584	175
6	753	1726.042472481391	176
6	759	1734.390377334034	177
6	765	1744.385401138595	178
6	774	1769.768186665026	179
6	780	1798.400052286211	180
6	790	1817.85630775191	181
6	791	1818.168821179278	182
6	792	1818.463277753132	183
6	800	1826.352425861551	184
6	801	1827.979269394842	185
6	807	1853.048427542868	186
6	824	1881.468979826442	187
6	825	1885.397424989442	188
6	826	1887.205090631199	189
6	827	1888.68233493408	190
6	828	1890.161555821987	191
6	836	1923.312119684253	192
6	839	1927.341676801771	193
6	840	1929.128694585068	194
6	843	1929.786826133163	195
6	846	1953.097417406819	196
6	849	1963.206022366897	197
6	852	1969.100922047782	198
6	855	1976.029249534202	199
6	858	1980.049237733523	200
6	870	1991.348338019286	201
6	883	2021.126447972634	202
6	886	2023.595221729808	203
6	887	2030.038525745059	204
6	888	2030.177207357346	205
6	889	2033.623276268374	206
6	890	2034.151553890004	207
6	891	2045.14618898997	208
6	899	2063.594900912697	209
6	900	2065.823510609724	210
6	906	2079.75500165378	211
6	911	2093.382934122175	212
6	915	2098.461182780371	213
6	921	2122.880329043131	214
6	960	2201.496540150614	215
6	961	2203.630261233277	216
6	962	2209.990965565518	217
6	969	2213.798140152789	218
6	972	2221.475923925903	219
6	973	2225.908987363986	220
6	974	2227.218282182096	221
6	975	2227.907898719001	222
6	981	2235.517035656617	223
6	982	2236.519174736901	224
6	983	2236.90384961967	225
6	984	2237.11975648839	226
6	985	2240.686370550193	227
6	988	2246.30385139107	228
6	989	2248.174008754138	229
6	990	2254.952024724837	230
6	996	2263.773081880482	231
6	1007	2283.041860661464	232
6	1008	2288.628809866603	233
6	1023	2321.141383608261	234
6	1026	2342.345368620805	235
6	1035	2361.116096914229	236
6	1040	2366.372317285231	237
6	1041	2368.69645625085	238
6	1049	2395.77659346854	239
6	1063	2416.775568252187	240
6	1064	2418.137046104822	241
6	1077	2439.302180491842	242
6	1080	2440.058446277826	243
6	1081	2441.397566624963	244
6	1085	2457.119665016474	245
6	1086	2458.728653198282	246
6	1094	2487.210418774604	247
6	1095	2495.480003593138	248
7	135	354.988010212333	0.430858356652
7	140	367.437653693906	3.613758862694
7	146	377.933842623133	8.558587305861
7	147	378.227708688552	7.64247481648
7	150	380.48252182178	0.800810923055
7	155	396.962941503147	0.570876303545
7	156	398.300033093933	1.817700764677
7	162	410.202674536204	4.239293865699
7	165	411.728018954802	0.87772617679
7	175	426.793862050005	12.393001872169
7	176	430.211748288569	14.423072196768
7	177	432.065887009648	7.339189396794
7	183	461.32028844136	5.208420719784
7	196	487.46603186348	14.690795008487
7	197	489.756316220806	11.251468600379
7	198	493.047034816817	14.350106795806
7	209	509.224275486798	0.772499631031
7	210	509.260995722956	0.403287555683
7	219	530.443860991797	6.154051623647
7	225	553.539762304426	0.245032920233
7	231	576.794940733807	3.379443883508
7	236	583.707434073908	4.37972605467
7	237	584.699554704639	3.470340397422
7	244	591.533300242239	4.48179098805
7	245	591.922492378734	4.091923513252
7	246	597.496084991993	8.985837098923
7	249	598.14438510257	0.45264445422
7	254	607.55192205565	7.926017815936
7	255	615.857693202351	14.39289490493
7	258	623.615267506405	2.060060218154
7	261	642.835922032726	8.061399987293
7	264	653.560596173901	0.237284556059
7	267	659.095212753318	0.521914302141
7	275	698.293145496156	13.796733301366
7	276	698.354662597259	6.352418973664
7	282	719.871036053628	7.442981287246
7	285	740.73753779065	0.572135646333
7	294	762.530771949577	4.331701615702
7	308	773.095586316163	5.975193890947
7	311	777.730342679099	9.13198632475
7	312	781.510151980347	11.766735915955
7	315	783.903746637259	13.796198835475
7	316	783.961747000227	12.131792902358
7	319	786.032375125216	11.604829707176
7	320	788.187253574135	5.880674632733
7	321	789.335059980078	4.656302784352
7	333	809.713967176148	17.603342966298
7	334	812.6494455774	18.545520382127
7	337	814.460898851313	10.206623801599
7	340	818.69522697444	10.641279059736
7	341	821.247933063524	8.060773757513
7	344	827.745143079204	11.799940113231
7	354	851.697652229663	20.553861692106
7	357	858.439873135826	26.831392975981
7	360	859.189589057253	22.989075875696
7	361	862.377004437793	16.161708663607
7	365	869.004070279493	10.48577602027
7	366	871.46600364053	7.495930231355
7	373	878.21271781633	5.109859593789
7	374	878.769843689547	4.173266916611
7	375	885.171601988687	8.603021322097
7	378	888.154633140129	2.982293132877
7	381	889.887134510209	0.005541675573
7	384	896.356804644753	2.141600032003
7	390	902.782249917931	1.58478351259
7	393	909.670986416698	2.167093626293
7	413	936.84550483982	13.293107719332
7	414	938.118176119444	11.639775486063
7	417	938.605921579753	11.259198709595
7	418	942.351960017143	7.879875484715
7	419	946.553388363809	11.115677099151
7	420	947.597968079295	9.244565854925
7	425	950.136511138446	1.976660214034
7	426	952.482229521585	3.836719005828
7	442	1002.26182305319	31.03051929428
7	443	1002.805581009443	5.066083256717
7	449	1005.898400291681	1.622200995184
7	450	1006.222386654851	1.28160601797
7	453	1015.163522370448	0.07385926921
7	467	1043.727958380253	11.983241170776
7	468	1043.954208434951	10.084408067613
7	469	1044.885420598312	9.666792484123
7	472	1045.180842218532	3.074762849862
7	473	1046.788482439499	3.895148249149
7	474	1047.511841451202	2.604131352981
7	480	1062.002999099883	5.524772021212
7	507	1133.696649848945	22.772630191121
7	508	1136.194241878877	19.617015625954
7	511	1140.022540968983	20.798825651549
7	512	1140.662961957683	20.292534520024
7	513	1144.903996963056	6.802930425502
7	518	1166.16187848017	7.164109104347
7	519	1168.249127734746	3.859513631608
7	522	1177.552506042201	1.184124214816
7	544	1217.78113796243	15.504247215738
7	545	1218.992013535583	14.713416753505
7	546	1223.168999223732	13.701400878137
7	549	1233.860707085106	0.898847472685
7	554	1243.516574591763	6.532394002472
7	555	1244.059263907245	2.352309665372
7	561	1256.290433616611	6.093915703097
7	567	1274.003227758539	1.727101213064
7	573	1293.906090047549	6.282569038814
7	576	1307.398728639172	6.553605478385
7	579	1320.826315397655	0.247349410514
7	582	1335.466660530231	2.881874747843
7	585	1342.760289391144	1.119816491487
7	590	1354.092269908751	1.380012042488
7	591	1354.182656941885	0.58578448125
7	594	1356.519264633322	2.088801733327
7	599	1365.501387112406	1.976119294832
7	600	1366.106499844448	2.124479622368
7	605	1370.774244644749	3.975837909229
7	606	1371.201307713588	3.402508685331
7	609	1381.119892724894	0.131242423635
7	615	1393.018619657192	5.386220396289
7	624	1414.562041638949	8.616874459723
7	627	1427.058391822751	4.661716381009
7	632	1430.764463135407	1.13720737909
7	633	1433.344292828527	2.659204055671
7	646	1468.162409647728	27.859884487691
7	647	1468.522780665391	27.921213576737
7	650	1472.485710892253	31.211331062067
7	651	1472.971865609237	2.882254394554
7	654	1478.94155168459	1.085027754942
7	657	1480.594301159943	0.959997621736
7	660	1483.563927611195	2.546346363774
7	668	1500.514280382777	10.534914527227
7	669	1502.214438525322	2.701301544861
7	675	1530.18399382206	0.642349356777
7	681	1537.845756279762	3.784040794147
7	684	1544.164804676477	5.533878682919
7	702	1578.888153883387	25.438914610245
7	703	1586.073714823179	32.126960821793
7	704	1587.810720912615	29.312543574072
7	705	1588.033085927655	26.732580266284
7	706	1588.329178993291	25.865378563687
7	712	1599.5446428064	21.892541386512
7	713	1601.573197088321	11.102461866272
7	716	1614.549653751509	18.991038427468
7	717	1615.611381179898	12.823839740493
7	720	1630.37779912547	1.087452909248
7	723	1638.033991821878	0.265700328381
7	726	1640.803095538066	1.654413431913
7	732	1658.917783276086	1.208873653473
7	735	1678.883742509487	3.388250264219
7	738	1683.969861344494	1.785185551694
7	749	1716.351176204038	18.713451958707
7	750	1724.468277299584	10.215636907467
7	753	1726.042472481391	0.089476021945
7	759	1734.390377334034	1.2989086845
7	765	1744.385401138595	0.783100175383
7	774	1769.768186665026	0.031116371301
7	780	1798.400052286211	0.970402416857
7	790	1817.85630775191	7.84972661567
7	791	1818.168821179278	7.051351999151
7	792	1818.463277753132	5.735586413219
7	800	1826.352425861551	6.518218619749
7	801	1827.979269394842	4.149929466476
7	807	1853.048427542868	2.989997957418
7	824	1881.468979826442	11.328178497504
7	825	1885.397424989442	13.303674399303
7	826	1887.205090631199	10.799122007333
7	827	1888.68233493408	10.615486906818
7	828	1890.161555821987	9.999517983972
7	836	1923.312119684253	8.829506078185
7	839	1927.341676801771	6.460699043255
7	840	1929.128694585068	4.382034286736
7	843	1929.786826133163	0.051505384763
7	846	1953.097417406819	1.664311397656
7	849	1963.206022366897	2.125196434062
7	852	1969.100922047782	0.137230255547
7	855	1976.029249534202	1.324951533094
7	858	1980.049237733523	0.707011244303
7	870	1991.348338019286	7.510044906057
7	883	2021.126447972634	31.969837490157
7	886	2023.595221729808	33.245027212506
7	887	2030.038525745059	36.598755110904
7	888	2030.177207357346	34.396381706001
7	889	2033.623276268374	37.09216236549
7	890	2034.151553890004	14.349422243339
7	891	2045.14618898997	23.196778245518
7	899	2063.594900912697	2.71531105903
7	900	2065.823510609724	4.914611892422
7	906	2079.75500165378	9.075902066891
7	911	2093.382934122175	1.764952050938
7	915	2098.461182780371	4.92057809677
7	921	2122.880329043131	2.726282455429
7	960	2201.496540150614	68.137475448871
7	961	2203.630261233277	63.286622527337
7	962	2209.990965565518	58.293981046903
7	969	2213.798140152789	48.337920734527
7	972	2221.475923925903	38.527390247707
7	973	2225.908987363986	36.262804938155
7	974	2227.218282182096	33.30340411431
7	975	2227.907898719001	33.953734611095
7	981	2235.517035656617	34.75093330523
7	982	2236.519174736901	26.290164229111
7	983	2236.90384961967	25.102892210876
7	984	2237.11975648839	23.994740289814
7	985	2240.686370550193	23.868172374008
7	988	2246.30385139107	18.292439144484
7	989	2248.174008754138	17.10423077568
7	990	2254.952024724837	9.889987310601
7	996	2263.773081880482	2.891682917089
7	1007	2283.041860661464	5.896726004081
7	1008	2288.628809866603	8.414680738906
7	1023	2321.141383608261	15.976253165826
7	1026	2342.345368620805	8.392296857328
7	1035	2361.116096914229	0.326177338574
7	1040	2366.372317285231	3.673458220418
7	1041	2368.69645625085	5.052932880294
7	1049	2395.77659346854	3.558424238272
7	1063	2416.775568252187	16.120440722591
7	1064	2418.137046104822	13.435556988641
7	1077	2439.302180491842	16.007134068776
7	1080	2440.058446277826	16.658585749629
7	1081	2441.397566624963	14.386703680747
7	1085	2457.119665016474	17.131102996531
7	1086	2458.728653198282	15.29472460461
7	1094	2487.210418774604	7.102011034322
7	1095	2495.480003593138	14.858783496346
8	142	369.375255317272	1
8	158	404.258574086135	1
8	171	415.788676091801	1
8	179	443.919676013075	1
8	185	470.546870107225	1
8	193	480.431995840156	2
8	200	495.029730108993	1
8	203	500.513567475372	1
8	212	517.809300423735	1
8	215	521.192237302952	1
8	221	541.925002229654	1
8	227	567.695925539455	1
8	269	660.252978140038	1
8	278	709.366630100926	1
8	287	743.646848964604	1
8	290	756.458935907148	1
8	298	767.120392425216	1
8	323	789.815789590426	1
8	348	831.608480159845	1
8	363	863.970073409175	1
8	386	898.688180290939	1
8	395	910.944778126664	1
8	397	912.065066633432	2
8	409	934.472084532428	1
8	428	959.834294333765	1
8	430	963.034023953894	2
8	435	995.44102465029	2
8	445	1004.276199296497	1
8	455	1030.943152599568	1
8	476	1050.110245986447	1
8	482	1074.807943387107	1
8	486	1086.494175780376	2
8	489	1102.06552599861	2
8	497	1119.223715317434	1
8	501	1121.890324746436	2
8	503	1123.663479696237	3
8	524	1186.897939430832	1
8	526	1191.951539220539	2
8	532	1202.276890746692	1
8	536	1207.192094069512	2
8	541	1212.083298246598	2
8	557	1247.010455122903	1
8	565	1272.276126545475	1
8	569	1284.608791838486	1
8	613	1387.632399260903	1
8	617	1403.412013724196	1
8	621	1409.315926484005	2
8	637	1440.302525160037	1
8	643	1462.555294735073	2
8	662	1489.486066902343	1
8	671	1507.762238717833	1
8	677	1533.228522866138	1
8	692	1558.498177338543	1
8	708	1590.470735222049	1
8	728	1645.874418155944	1
8	740	1688.598277283569	1
8	742	1697.269698461538	2
8	755	1731.744765826945	1
8	761	1737.595552176882	1
8	767	1744.899527686484	1
8	770	1755.198627303625	1
8	776	1782.557906561692	1
8	784	1810.00658113624	1
8	796	1819.834207241802	1
8	803	1845.586409673488	1
8	809	1858.271437782732	1
8	812	1868.692586631094	1
8	830	1893.453134115984	1
8	864	1984.3531764257	1
8	872	1993.439770634155	1
8	878	2005.414674315447	2
8	893	2057.829292268349	1
8	902	2067.19127090892	1
8	913	2093.540604683601	1
8	917	2118.272495163052	1
8	923	2123.862463980623	1
8	925	2125.583614538701	2
8	931	2148.351335550223	3
8	936	2158.513685384924	3
8	938	2159.742235841395	4
8	947	2189.21250810744	2
8	977	2228.011412246586	1
8	992	2256.953625658148	1
8	998	2270.467559923692	1
8	1003	2277.145134657383	1
8	1010	2292.356304954715	1
8	1012	2296.559424856657	2
8	1015	2299.848805152245	2
8	1020	2312.593632662147	2
8	1028	2345.24593224152	1
8	1031	2353.399464487008	1
8	1043	2372.427930054302	1
8	1051	2398.96845263205	1
8	1056	2404.701489116181	1
8	1058	2408.893875339512	2
8	1066	2418.968326914021	1
8	1073	2427.010862944216	1
8	1083	2443.433928593672	1
8	1092	2480.621220096792	1
8	1097	2496.852317827315	1
9	142	369.375255317272	6
9	171	415.788676091801	7
9	298	767.120392425216	8
9	348	831.608480159845	9
9	363	863.970073409175	10
9	409	934.472084532428	11
9	445	1004.276199296497	12
9	497	1119.223715317434	13
9	532	1202.276890746692	14
9	565	1272.276126545475	15
9	613	1387.632399260903	16
9	637	1440.302525160037	17
9	692	1558.498177338543	18
9	708	1590.470735222049	19
9	784	1810.00658113624	20
9	796	1819.834207241802	21
9	864	1984.3531764257	22
9	872	1993.439770634155	23
9	913	2093.540604683601	24
9	977	2228.011412246586	25
9	1003	2277.145134657383	26
9	1051	2398.96845263205	27
9	1056	2404.701489116181	28
9	1066	2418.968326914021	29
9	1073	2427.010862944216	30
9	1083	2443.433928593672	31
9	1092	2480.621220096792	32
10	142	369.375255317272	0
10	158	404.258574086135	0
10	171	415.788676091801	0
10	179	443.919676013075	0
10	185	470.546870107225	0
10	194	482.759195715571	2.327199875415
10	200	495.029730108993	0
10	203	500.513567475372	0
10	212	517.809300423735	0
10	215	521.192237302952	0
10	221	541.925002229654	0
10	227	567.695925539455	0
10	269	660.252978140038	0
10	278	709.366630100926	0
10	287	743.646848964604	0
10	290	756.458935907148	0
10	298	767.120392425216	0
10	323	789.815789590426	0
10	348	831.608480159845	0
10	363	863.970073409175	0
10	386	898.688180290939	0
10	395	910.944778126664	0
10	400	921.364902624727	9.299835991295
10	409	934.472084532428	0
10	428	959.834294333765	0
10	433	982.321735692656	19.287711738762
10	436	996.6151457739	1.17412112361
10	445	1004.276199296497	0
10	455	1030.943152599568	0
10	476	1050.110245986447	0
10	482	1074.807943387107	0
10	487	1092.79524899864	6.301073218264
10	492	1113.605201043371	11.539675044761
10	497	1119.223715317434	0
10	504	1123.691498029429	1.801173282993
10	505	1129.249778830669	5.586299134432
10	524	1186.897939430832	0
10	527	1197.307452978329	5.35591375779
10	532	1202.276890746692	0
10	539	1210.569467601529	3.377373532017
10	542	1212.181010430185	0.097712183587
10	557	1247.010455122903	0
10	565	1272.276126545475	0
10	569	1284.608791838486	0
10	613	1387.632399260903	0
10	617	1403.412013724196	0
10	622	1410.545638659308	1.229712175303
10	637	1440.302525160037	0
10	644	1462.960146441721	0.404851706648
10	662	1489.486066902343	0
10	671	1507.762238717833	0
10	677	1533.228522866138	0
10	692	1558.498177338543	0
10	708	1590.470735222049	0
10	728	1645.874418155944	0
10	740	1688.598277283569	0
10	745	1712.358529860584	15.088831399046
10	755	1731.744765826945	0
10	761	1737.595552176882	0
10	767	1744.899527686484	0
10	770	1755.198627303625	0
10	776	1782.557906561692	0
10	784	1810.00658113624	0
10	796	1819.834207241802	0
10	803	1845.586409673488	0
10	809	1858.271437782732	0
10	812	1868.692586631094	0
10	830	1893.453134115984	0
10	864	1984.3531764257	0
10	872	1993.439770634155	0
10	879	2012.476463351471	7.061789036024
10	893	2057.829292268349	0
10	902	2067.19127090892	0
10	913	2093.540604683601	0
10	917	2118.272495163052	0
10	923	2123.862463980623	0
10	934	2155.998203327351	30.41458878865
10	941	2173.765504411188	25.414168860965
10	944	2185.598958679865	27.085273294941
10	945	2187.091472560026	27.349236718631
10	950	2190.245490699283	1.032982591843
10	977	2228.011412246586	0
10	992	2256.953625658148	0
10	998	2270.467559923692	0
10	1003	2277.145134657383	0
10	1010	2292.356304954715	0
10	1013	2299.677721691161	3.118296834504
10	1018	2307.223924518598	7.375119366353
10	1021	2315.248505463691	2.654872801544
10	1028	2345.24593224152	0
10	1031	2353.399464487008	0
10	1043	2372.427930054302	0
10	1051	2398.96845263205	0
10	1056	2404.701489116181	0
10	1061	2412.954460506201	4.060585166689
10	1066	2418.968326914021	0
10	1073	2427.010862944216	0
10	1083	2443.433928593672	0
10	1092	2480.621220096792	0
10	1097	2496.852317827315	0
11	1098	2500	0.0992
12	1098	2500	0.0468

