version 2
run experiments_easy_game_mode1-576-20230308-12:03:54-21289
attr configname experiments_easy_game_mode1
attr datetime 20230308-12:03:54
attr experiment experiments_easy_game_mode1
attr inifile omnetpp.ini
attr iterationvars "$0=5.5, $1=2.5, $2=100"
attr iterationvarsf 5.5,2.5,100-
attr measurement "$0=5.5, $1=2.5, $2=100"
attr network Network
attr processid 21289
attr repetition 6
attr replication #6
attr resultdir results
attr runnumber 576
attr seedset 6
param *.boss.arrival_mean 20
param *.boss.service_mean 5.5
param *.minion.arrival_mean 10
param *.minion.service_mean 2.5
param *.player.recover_rate_x 100
param **.minion.arrival_distribution 0
param **.minion.service_distribution 0
param **.boss.arrival_distribution 0
param **.boss.service_distribution 0

vector 0 Network.player boss_jobs_number_stat:vector ETV
attr source signal_boss_jobs_number
vector 1 Network.player boss_jobs_queue_number_stat:vector ETV
attr source signal_boss_jobs_queue_number
vector 2 Network.player minion_recovered_stat:vector ETV
attr source signal_minion_recovered
vector 3 Network.player boss_waiting_time_stat:vector ETV
attr source signal_boss_waiting_time
vector 4 Network.player minion_jobs_number_stat:vector ETV
attr source signal_minion_jobs_number
vector 5 Network.player minion_jobs_queue_number_stat:vector ETV
attr source signal_minion_jobs_queue_number
vector 6 Network.player boss_defeated_stat:vector ETV
attr source signal_boss_defeated
vector 7 Network.player boss_response_time_stat:vector ETV
attr source signal_boss_response_time
vector 8 Network.player minion_waiting_time_stat:vector ETV
attr source signal_minion_waiting_time
vector 9 Network.player minion_defeated_stat:vector ETV
attr source signal_minion_defeated
vector 10 Network.player minion_response_time_stat:vector ETV
attr source signal_minion_response_time
vector 11 Network.player minion_throughput:vector ETV
attr source signal_minion_throughput
vector 12 Network.player boss_throughput:vector ETV
attr source signal_boss_throughput
0	133	350.911095348185	1
0	146	366.390704133182	1
0	148	371.17356131204	2
0	151	377.820612985913	2
0	153	377.96980287222	3
0	164	406.590606385774	1
0	168	417.617291548579	2
0	173	423.903095571506	1
0	197	467.221505335374	1
0	203	474.170699178983	1
0	206	495.971717000857	1
0	227	561.58967462765	1
0	230	565.640426342516	1
0	248	614.526701304873	1
0	250	615.254532494379	2
0	253	632.049222519165	2
0	266	670.963454837439	1
0	269	684.254351994662	1
0	275	709.410644553138	1
0	281	730.619893590699	1
0	284	741.244643729957	1
0	292	756.629205910943	1
0	296	777.546901299853	1
0	329	886.711462365343	1
0	332	900.190491588623	1
0	336	903.253106306936	2
0	350	928.570672954617	1
0	376	1002.623456215123	1
0	388	1015.88463527209	1
0	398	1035.213038508457	1
0	408	1050.146256507234	1
0	418	1075.64032921121	2
0	437	1114.054621743973	1
0	440	1121.047574796594	1
0	442	1124.668304703187	2
0	449	1143.000718365382	1
0	467	1193.264556883255	1
0	470	1221.041346223951	1
0	476	1240.173927918977	1
0	482	1260.682995869076	1
0	497	1290.63175437432	1
0	503	1341.98868381818	1
0	506	1367.457978445056	1
0	512	1411.373933569448	1
0	533	1444.167991827933	1
0	539	1464.862235097741	1
0	543	1470.389925185423	2
0	545	1477.399307372857	3
0	553	1494.698843858274	2
0	569	1517.650297185485	1
0	575	1524.315619169701	1
0	580	1530.802464609031	1
0	605	1601.102500740114	1
0	608	1603.805840100172	1
0	612	1606.701715929049	2
0	629	1623.577270089592	1
0	632	1630.026208879448	1
0	640	1640.547007515322	1
0	665	1695.493984958524	1
0	671	1711.932020289475	1
0	674	1731.714786339412	1
0	682	1770.244858721005	1
0	692	1802.854931859741	1
0	694	1804.889361326234	2
0	704	1824.889836964607	1
0	707	1833.639570527449	1
0	710	1842.732282835428	1
0	725	1915.436609589533	1
0	727	1916.889482352561	2
0	746	1967.901726318689	1
0	766	2021.635944979653	1
0	800	2090.897286542311	1
0	802	2097.051712636309	2
0	805	2098.097723051968	2
0	809	2102.875204944668	1
0	826	2145.88207974733	1
0	841	2177.459450486187	1
0	858	2206.85076913286	1
0	860	2208.249520480578	2
0	862	2213.728139743341	3
0	875	2230.463349804384	1
0	877	2232.655512392498	2
0	896	2282.496471010907	1
0	902	2286.619675817699	2
0	905	2291.06034277556	2
0	919	2319.005043865611	1
0	941	2358.742124793107	1
0	953	2419.850593049055	1
0	958	2442.607790362262	1
0	986	2473.876253655396	1
0	990	2475.158360869859	2
0	995	2479.289234085361	1
0	998	2485.053898812339	1
0	1001	2499.404620087199	1
1	133	350.911095348185	0
1	136	353.267954132663	0
1	146	366.390704133182	0
1	148	371.17356131204	1
1	149	377.126801787786	1
1	151	377.820612985913	1
1	153	377.96980287222	2
1	156	386.495939769521	2
1	157	394.104351437284	1
1	158	394.131397973407	0
1	164	406.590606385774	0
1	168	417.617291548579	1
1	169	417.817947199507	1
1	170	420.246910718935	0
1	173	423.903095571506	0
1	176	425.040077015859	0
1	197	467.221505335374	0
1	198	467.229523013833	0
1	203	474.170699178983	0
1	204	476.337053079144	0
1	206	495.971717000857	0
1	207	496.355424796486	0
1	227	561.58967462765	0
1	228	564.15657394554	0
1	230	565.640426342516	0
1	233	566.907292805128	0
1	248	614.526701304873	0
1	250	615.254532494379	1
1	251	623.208379771681	1
1	253	632.049222519165	1
1	256	636.49737137781	1
1	257	637.398090350031	0
1	266	670.963454837439	0
1	267	671.987022917438	0
1	269	684.254351994662	0
1	270	685.278784946301	0
1	275	709.410644553138	0
1	278	726.471866752814	0
1	281	730.619893590699	0
1	282	731.085486019106	0
1	284	741.244643729957	0
1	285	742.750784325368	0
1	292	756.629205910943	0
1	293	758.631732615483	0
1	296	777.546901299853	0
1	297	777.54989103098	0
1	329	886.711462365343	0
1	330	895.12203108889	0
1	332	900.190491588623	0
1	336	903.253106306936	1
1	337	904.777594776318	1
1	338	905.75559994224	0
1	350	928.570672954617	0
1	353	933.926777208792	0
1	376	1002.623456215123	0
1	377	1003.026388954249	0
1	388	1015.88463527209	0
1	389	1017.370238820144	0
1	398	1035.213038508457	0
1	401	1041.854562122292	0
1	408	1050.146256507234	0
1	418	1075.64032921121	1
1	419	1076.564448697699	1
1	420	1077.662505149015	0
1	437	1114.054621743973	0
1	438	1115.190320864214	0
1	440	1121.047574796594	0
1	442	1124.668304703187	1
1	445	1126.072306126796	1
1	446	1131.192854636694	0
1	449	1143.000718365382	0
1	452	1145.9519865157	0
1	467	1193.264556883255	0
1	468	1197.255686787662	0
1	470	1221.041346223951	0
1	471	1225.005014177238	0
1	476	1240.173927918977	0
1	477	1243.295789247743	0
1	482	1260.682995869076	0
1	483	1262.054162170306	0
1	497	1290.63175437432	0
1	498	1291.872872922896	0
1	503	1341.98868381818	0
1	504	1349.100568944567	0
1	506	1367.457978445056	0
1	507	1372.267520380029	0
1	512	1411.373933569448	0
1	517	1421.787413679452	0
1	533	1444.167991827933	0
1	536	1454.453893920499	0
1	539	1464.862235097741	0
1	543	1470.389925185423	1
1	545	1477.399307372857	2
1	546	1479.401853619933	2
1	551	1494.145480226529	1
1	553	1494.698843858274	1
1	556	1501.46916529189	1
1	557	1501.778789719429	0
1	569	1517.650297185485	0
1	572	1521.210914187515	0
1	575	1524.315619169701	0
1	578	1530.026437559199	0
1	580	1530.802464609031	0
1	583	1534.537147273342	0
1	605	1601.102500740114	0
1	606	1601.202767587493	0
1	608	1603.805840100172	0
1	612	1606.701715929049	1
1	613	1608.770604302363	1
1	614	1609.515525238061	0
1	629	1623.577270089592	0
1	630	1624.012227768338	0
1	632	1630.026208879448	0
1	637	1637.355375032183	0
1	640	1640.547007515322	0
1	641	1641.234344400194	0
1	665	1695.493984958524	0
1	666	1696.769582923428	0
1	671	1711.932020289475	0
1	672	1730.605539982969	0
1	674	1731.714786339412	0
1	675	1743.551197065425	0
1	682	1770.244858721005	0
1	683	1775.059791007681	0
1	692	1802.854931859741	0
1	694	1804.889361326234	1
1	697	1806.819800987876	1
1	698	1807.353167188764	0
1	704	1824.889836964607	0
1	705	1826.836560570656	0
1	707	1833.639570527449	0
1	708	1833.715048295697	0
1	710	1842.732282835428	0
1	713	1850.198293442548	0
1	725	1915.436609589533	0
1	727	1916.889482352561	1
1	728	1925.411279628215	1
1	735	1931.238245987524	0
1	746	1967.901726318689	0
1	747	1981.446091475127	0
1	766	2021.635944979653	0
1	767	2025.012072798045	0
1	800	2090.897286542311	0
1	802	2097.051712636309	1
1	803	2097.60386785061	1
1	805	2098.097723051968	1
1	806	2098.132598257499	1
1	807	2100.824304329498	0
1	809	2102.875204944668	0
1	810	2104.55751959908	0
1	826	2145.88207974733	0
1	829	2152.609321803841	0
1	841	2177.459450486187	0
1	842	2182.348478028914	0
1	858	2206.85076913286	0
1	860	2208.249520480578	1
1	862	2213.728139743341	2
1	865	2220.974763902639	2
1	870	2227.042397645374	1
1	873	2228.911804351684	0
1	875	2230.463349804384	0
1	877	2232.655512392498	1
1	880	2239.983218944078	1
1	883	2246.31963618124	0
1	896	2282.496471010907	0
1	902	2286.619675817699	1
1	903	2287.623066016463	1
1	905	2291.06034277556	1
1	906	2291.66324905054	1
1	907	2292.991535598491	0
1	919	2319.005043865611	0
1	922	2330.54706411352	0
1	941	2358.742124793107	0
1	942	2379.942984335623	0
1	953	2419.850593049055	0
1	954	2434.016209237698	0
1	958	2442.607790362262	0
1	961	2444.252077095105	0
1	986	2473.876253655396	0
1	990	2475.158360869859	1
1	991	2477.571352728374	1
1	992	2478.02183715313	0
1	995	2479.289234085361	0
1	996	2484.277019929961	0
1	998	2485.053898812339	0
1	999	2488.693849291767	0
1	1001	2499.404620087199	0
2	133	350.911095348185	4
2	292	756.629205910943	5
2	376	1002.623456215123	6
2	388	1015.88463527209	7
2	408	1050.146256507234	8
2	580	1530.802464609031	9
2	640	1640.547007515322	10
2	682	1770.244858721005	11
2	766	2021.635944979653	12
2	826	2145.88207974733	13
2	841	2177.459450486187	14
2	858	2206.85076913286	15
2	875	2230.463349804384	16
2	919	2319.005043865611	17
2	958	2442.607790362262	18
2	986	2473.876253655396	19
2	995	2479.289234085361	20
2	998	2485.053898812339	21
2	1001	2499.404620087199	22
3	133	350.911095348185	0
3	146	366.390704133182	0
3	149	377.126801787786	5.953240475746
3	156	386.495939769521	8.675326783608
3	157	394.104351437284	16.134548565064
3	164	406.590606385774	0
3	169	417.817947199507	0.200655650928
3	173	423.903095571506	0
3	197	467.221505335374	0
3	203	474.170699178983	0
3	206	495.971717000857	0
3	227	561.58967462765	0
3	230	565.640426342516	0
3	248	614.526701304873	0
3	251	623.208379771681	7.953847277302
3	256	636.49737137781	4.448148858645
3	266	670.963454837439	0
3	269	684.254351994662	0
3	275	709.410644553138	0
3	281	730.619893590699	0
3	284	741.244643729957	0
3	292	756.629205910943	0
3	296	777.546901299853	0
3	329	886.711462365343	0
3	332	900.190491588623	0
3	337	904.777594776318	1.524488469382
3	350	928.570672954617	0
3	376	1002.623456215123	0
3	388	1015.88463527209	0
3	398	1035.213038508457	0
3	408	1050.146256507234	0
3	419	1076.564448697699	0.924119486489
3	437	1114.054621743973	0
3	440	1121.047574796594	0
3	445	1126.072306126796	1.404001423609
3	449	1143.000718365382	0
3	467	1193.264556883255	0
3	470	1221.041346223951	0
3	476	1240.173927918977	0
3	482	1260.682995869076	0
3	497	1290.63175437432	0
3	503	1341.98868381818	0
3	506	1367.457978445056	0
3	512	1411.373933569448	0
3	533	1444.167991827933	0
3	539	1464.862235097741	0
3	546	1479.401853619933	9.01192843451
3	551	1494.145480226529	16.746172853672
3	556	1501.46916529189	6.770321433616
3	569	1517.650297185485	0
3	575	1524.315619169701	0
3	580	1530.802464609031	0
3	605	1601.102500740114	0
3	608	1603.805840100172	0
3	613	1608.770604302363	2.068888373314
3	629	1623.577270089592	0
3	632	1630.026208879448	0
3	640	1640.547007515322	0
3	665	1695.493984958524	0
3	671	1711.932020289475	0
3	674	1731.714786339412	0
3	682	1770.244858721005	0
3	692	1802.854931859741	0
3	697	1806.819800987876	1.930439661642
3	704	1824.889836964607	0
3	707	1833.639570527449	0
3	710	1842.732282835428	0
3	725	1915.436609589533	0
3	728	1925.411279628215	8.521797275654
3	746	1967.901726318689	0
3	766	2021.635944979653	0
3	800	2090.897286542311	0
3	803	2097.60386785061	0.552155214301
3	806	2098.132598257499	0.034875205531
3	809	2102.875204944668	0
3	826	2145.88207974733	0
3	841	2177.459450486187	0
3	858	2206.85076913286	0
3	865	2220.974763902639	12.725243422061
3	870	2227.042397645374	13.314257902033
3	875	2230.463349804384	0
3	880	2239.983218944078	7.32770655158
3	896	2282.496471010907	0
3	903	2287.623066016463	1.003390198764
3	906	2291.66324905054	0.60290627498
3	919	2319.005043865611	0
3	941	2358.742124793107	0
3	953	2419.850593049055	0
3	958	2442.607790362262	0
3	986	2473.876253655396	0
3	991	2477.571352728374	2.412991858515
3	995	2479.289234085361	0
3	998	2485.053898812339	0
3	1001	2499.404620087199	0
4	135	351.627033189598	5
4	142	356.77249646216	2
4	155	379.81260022798	1
4	161	402.963737716547	1
4	166	410.601911729775	1
4	175	424.028139429534	1
4	178	426.868942028569	2
4	182	430.0817299749	1
4	185	441.223251046719	1
4	188	447.851077409646	1
4	191	456.100258157296	1
4	194	463.758244053226	1
4	200	471.579336823452	1
4	209	502.794677597688	1
4	212	525.18586160872	1
4	215	531.255079119128	1
4	218	549.756142199541	1
4	221	554.025330218918	1
4	224	557.678344759667	1
4	232	565.9436230653	1
4	236	575.917811479756	1
4	239	583.098400084753	1
4	242	594.500210084924	1
4	244	598.752685252627	2
4	255	633.961808842082	1
4	259	638.190608503541	2
4	263	660.593018703502	1
4	272	689.824420977936	1
4	277	718.371237768056	1
4	287	743.664457964074	1
4	290	753.942981059847	1
4	299	784.610996476157	1
4	302	794.14696762077	1
4	305	821.459204172439	1
4	308	824.042809397798	1
4	310	825.196270828596	2
4	314	831.852211033489	1
4	317	833.937966094001	1
4	320	850.399986038396	1
4	322	854.88890090233	2
4	326	873.482015827866	1
4	334	901.221155159812	1
4	341	908.871473264762	1
4	343	909.602093200762	2
4	347	923.781926997375	1
4	352	931.423927518258	1
4	356	938.348939201108	1
4	359	943.24238757556	1
4	362	962.235470988632	1
4	365	966.330123148036	1
4	368	975.99798697478	1
4	370	978.705821758407	2
4	374	998.482918602949	1
4	380	1005.920830405399	1
4	383	1008.556543930712	1
4	385	1012.386704453106	2
4	391	1017.532002700798	2
4	395	1032.004903157706	1
4	400	1041.796544683268	1
4	404	1044.847656911698	1
4	406	1046.391258790932	2
4	410	1057.922203388058	3
4	412	1059.232388767943	4
4	414	1065.576176905336	5
4	416	1070.968940743702	6
4	423	1079.763365671196	6
4	428	1087.902579559694	4
4	432	1097.392755284878	3
4	444	1125.766233095256	1
4	451	1143.088657313181	1
4	455	1148.352433743115	1
4	457	1150.14231878262	2
4	461	1163.488885027925	1
4	464	1173.619248624901	1
4	473	1227.547002012055	1
4	479	1246.485309322208	1
4	485	1271.334097917293	1
4	488	1274.754701552974	1
4	490	1274.77495479427	2
4	492	1275.295250023809	3
4	500	1310.814878514192	1
4	509	1389.787856502193	1
4	514	1411.774448768679	1
4	516	1416.222413151197	2
4	521	1428.245109142045	1
4	524	1434.999012423788	1
4	526	1436.025151640752	2
4	530	1441.760245540321	1
4	535	1450.280010984042	1
4	541	1465.101520267697	1
4	548	1482.251566661279	2
4	550	1492.180508218109	3
4	555	1500.410585507111	4
4	561	1506.819636616315	3
4	566	1511.139202840092	1
4	571	1519.026689187163	1
4	577	1526.868349624458	1
4	582	1532.515385442083	2
4	587	1553.683836730964	1
4	590	1559.904844978734	1
4	593	1561.116318174958	1
4	596	1573.486427605865	1
4	598	1573.805863783555	2
4	600	1574.189933004483	3
4	610	1604.725678599515	1
4	616	1612.040647159783	2
4	620	1615.447868378449	1
4	622	1616.539714252569	2
4	626	1622.372766462893	1
4	634	1631.729331216195	1
4	636	1634.727168303325	2
4	643	1643.010151488724	2
4	647	1652.095645300041	1
4	650	1657.888339907812	1
4	653	1668.538743181191	1
4	656	1671.840158955775	1
4	659	1675.065592406074	1
4	662	1679.339446979447	1
4	668	1698.856789361593	1
4	677	1746.146211424682	1
4	680	1768.10364118851	1
4	686	1781.822805675791	1
4	689	1785.178380479258	1
4	696	1805.982725966671	1
4	701	1816.75790201413	1
4	712	1843.574654344956	1
4	716	1879.373204660125	1
4	719	1887.469695952147	1
4	722	1903.408989516434	1
4	730	1925.420946342677	1
4	732	1927.398926209321	2
4	734	1929.417975943475	3
4	740	1944.773949654688	1
4	743	1948.558407843685	1
4	749	1983.66670938471	1
4	751	1984.43627306884	2
4	755	1988.943174813553	1
4	758	1992.87248004456	1
4	761	1993.792383647937	1
4	764	2021.120040871594	1
4	769	2025.333446785742	2
4	773	2054.053071454524	1
4	776	2062.518611221697	1
4	778	2063.391034652114	2
4	780	2065.200412046749	3
4	785	2067.369660307153	1
4	788	2077.355952694257	1
4	791	2080.661174205752	1
4	793	2081.339312086223	2
4	796	2083.359432863404	2
4	812	2107.763453955233	1
4	815	2130.147397150886	1
4	817	2131.075723428299	2
4	821	2142.161567990562	1
4	824	2144.385352452261	1
4	828	2146.283239973336	2
4	831	2152.668933988442	3
4	836	2171.148276558928	1
4	839	2176.964284117084	1
4	844	2185.652321415968	2
4	848	2200.157511841202	1
4	851	2201.869038775595	1
4	853	2201.997293095396	2
4	855	2203.452852601386	3
4	864	2214.867934563696	3
4	867	2223.657100916351	4
4	869	2226.881252968874	5
4	872	2228.640744741857	6
4	879	2237.903645916445	7
4	882	2242.477657187887	8
4	886	2250.373639852665	8
4	898	2283.883901231491	1
4	900	2286.238464290669	2
4	911	2299.319823196942	1
4	914	2300.783069113227	1
4	917	2313.804224342733	1
4	921	2328.464642079065	2
4	925	2335.545418203672	2
4	929	2341.981072622497	1
4	932	2343.334747485083	1
4	935	2350.655980734442	1
4	938	2351.535681568716	1
4	944	2380.394249811124	1
4	946	2385.512245301738	2
4	950	2395.827166958937	1
4	956	2438.359583112643	1
4	960	2444.126573409002	2
4	965	2448.04074565643	1
4	968	2454.272997008193	1
4	971	2459.202377342599	1
4	974	2462.063629544418	1
4	977	2466.971518960638	1
4	979	2469.938873253385	2
4	982	2472.405728764313	2
4	984	2472.638354338712	3
4	988	2473.954007465772	4
5	135	351.627033189598	4
5	137	354.513996514194	4
5	138	354.813886988336	3
5	139	354.86115582417	2
5	140	356.223472799339	1
5	142	356.77249646216	1
5	143	357.70460543179	1
5	144	359.602500821002	0
5	155	379.81260022798	0
5	159	396.332772734063	0
5	161	402.963737716547	0
5	162	404.269324280032	0
5	166	410.601911729775	0
5	171	420.688709213159	0
5	175	424.028139429534	0
5	178	426.868942028569	1
5	179	427.380747420206	1
5	180	429.219416863547	0
5	182	430.0817299749	0
5	183	432.773940705828	0
5	185	441.223251046719	0
5	186	442.209753614045	0
5	188	447.851077409646	0
5	189	448.974856411711	0
5	191	456.100258157296	0
5	192	459.103418010419	0
5	194	463.758244053226	0
5	195	464.670624940675	0
5	200	471.579336823452	0
5	201	472.720158896645	0
5	209	502.794677597688	0
5	210	508.73602280702	0
5	212	525.18586160872	0
5	213	529.711299277984	0
5	215	531.255079119128	0
5	216	531.996338479181	0
5	218	549.756142199541	0
5	219	551.397423179316	0
5	221	554.025330218918	0
5	222	554.683664925975	0
5	224	557.678344759667	0
5	225	559.495116527686	0
5	232	565.9436230653	0
5	234	574.079890208891	0
5	236	575.917811479756	0
5	237	577.125222133578	0
5	239	583.098400084753	0
5	240	584.721443652587	0
5	242	594.500210084924	0
5	244	598.752685252627	1
5	245	609.520100969384	1
5	246	612.017743314299	0
5	255	633.961808842082	0
5	259	638.190608503541	1
5	260	639.20321495957	1
5	261	643.940628585751	0
5	263	660.593018703502	0
5	264	662.640096749858	0
5	272	689.824420977936	0
5	273	690.756896683735	0
5	277	718.371237768056	0
5	279	726.559509622667	0
5	287	743.664457964074	0
5	288	745.9908082034	0
5	290	753.942981059847	0
5	294	759.54567763348	0
5	299	784.610996476157	0
5	300	786.14223698141	0
5	302	794.14696762077	0
5	303	795.513114929621	0
5	305	821.459204172439	0
5	306	824.011832144004	0
5	308	824.042809397798	0
5	310	825.196270828596	1
5	311	825.478710455605	1
5	312	829.503818049257	0
5	314	831.852211033489	0
5	315	832.679383594093	0
5	317	833.937966094001	0
5	318	834.342629751422	0
5	320	850.399986038396	0
5	322	854.88890090233	1
5	323	856.16331663331	1
5	324	856.818924147163	0
5	326	873.482015827866	0
5	327	876.250736807837	0
5	334	901.221155159812	0
5	339	908.099722977575	0
5	341	908.871473264762	0
5	343	909.602093200762	1
5	344	910.393804313899	1
5	345	912.138541767334	0
5	347	923.781926997375	0
5	348	924.63746392055	0
5	352	931.423927518258	0
5	354	937.107925730991	0
5	356	938.348939201108	0
5	357	940.21435445031	0
5	359	943.24238757556	0
5	360	945.632241391987	0
5	362	962.235470988632	0
5	363	964.283619593461	0
5	365	966.330123148036	0
5	366	972.007255241359	0
5	368	975.99798697478	0
5	370	978.705821758407	1
5	371	979.417000501403	1
5	372	981.814415868006	0
5	374	998.482918602949	0
5	378	1003.540735522562	0
5	380	1005.920830405399	0
5	381	1006.332783137976	0
5	383	1008.556543930712	0
5	385	1012.386704453106	1
5	386	1012.895385653161	1
5	391	1017.532002700798	1
5	392	1021.689936415532	1
5	393	1021.890631625294	0
5	395	1032.004903157706	0
5	396	1033.598609184127	0
5	400	1041.796544683268	0
5	402	1044.442684680159	0
5	404	1044.847656911698	0
5	406	1046.391258790932	1
5	410	1057.922203388058	2
5	412	1059.232388767943	3
5	414	1065.576176905336	4
5	416	1070.968940743702	5
5	421	1078.587475883583	5
5	423	1079.763365671196	5
5	424	1082.90205891621	5
5	425	1084.69004404084	4
5	426	1086.547220506079	3
5	428	1087.902579559694	3
5	429	1089.104718896898	3
5	430	1097.035435238663	2
5	432	1097.392755284878	2
5	433	1100.582909301844	2
5	434	1105.95116021189	1
5	435	1108.694088497046	0
5	444	1125.766233095256	0
5	447	1132.068280331371	0
5	451	1143.088657313181	0
5	453	1146.140838043411	0
5	455	1148.352433743115	0
5	457	1150.14231878262	1
5	458	1150.147960361783	1
5	459	1150.284314273911	0
5	461	1163.488885027925	0
5	462	1163.721099477852	0
5	464	1173.619248624901	0
5	465	1182.360062887169	0
5	473	1227.547002012055	0
5	474	1230.113080378949	0
5	479	1246.485309322208	0
5	480	1249.228308969934	0
5	485	1271.334097917293	0
5	486	1271.68921839551	0
5	488	1274.754701552974	0
5	490	1274.77495479427	1
5	492	1275.295250023809	2
5	493	1279.664194384613	2
5	494	1283.300475474699	1
5	495	1285.452228974496	0
5	500	1310.814878514192	0
5	501	1311.014495570338	0
5	509	1389.787856502193	0
5	510	1390.111718330991	0
5	514	1411.774448768679	0
5	516	1416.222413151197	1
5	518	1422.792505484303	1
5	519	1426.267316309805	0
5	521	1428.245109142045	0
5	522	1431.092535668977	0
5	524	1434.999012423788	0
5	526	1436.025151640752	1
5	527	1436.313522157987	1
5	528	1438.092885178457	0
5	530	1441.760245540321	0
5	531	1444.008218000975	0
5	535	1450.280010984042	0
5	537	1457.115480287936	0
5	541	1465.101520267697	0
5	548	1482.251566661279	1
5	550	1492.180508218109	2
5	555	1500.410585507111	3
5	558	1503.281879313976	3
5	559	1505.58589365521	2
5	561	1506.819636616315	2
5	562	1506.897087689502	2
5	563	1510.071074696444	1
5	564	1510.127269731803	0
5	566	1511.139202840092	0
5	567	1512.480498504746	0
5	571	1519.026689187163	0
5	573	1522.486909572785	0
5	577	1526.868349624458	0
5	582	1532.515385442083	1
5	584	1535.322912357629	1
5	585	1537.202304932626	0
5	587	1553.683836730964	0
5	588	1558.043245995429	0
5	590	1559.904844978734	0
5	591	1559.938363798597	0
5	593	1561.116318174958	0
5	594	1564.23309931101	0
5	596	1573.486427605865	0
5	598	1573.805863783555	1
5	600	1574.189933004483	2
5	601	1575.019959383909	2
5	602	1575.277637110202	1
5	603	1575.400427675341	0
5	610	1604.725678599515	0
5	616	1612.040647159783	1
5	617	1614.130867905326	1
5	618	1614.723049644841	0
5	620	1615.447868378449	0
5	622	1616.539714252569	1
5	623	1616.901082873397	1
5	624	1621.548825727496	0
5	626	1622.372766462893	0
5	627	1623.543735765575	0
5	634	1631.729331216195	0
5	636	1634.727168303325	1
5	638	1640.067714769303	1
5	643	1643.010151488724	1
5	644	1647.320947225547	1
5	645	1649.950165770536	0
5	647	1652.095645300041	0
5	648	1654.079600565319	0
5	650	1657.888339907812	0
5	651	1662.763834842905	0
5	653	1668.538743181191	0
5	654	1669.264414273844	0
5	656	1671.840158955775	0
5	657	1671.889872866101	0
5	659	1675.065592406074	0
5	660	1675.135238421736	0
5	662	1679.339446979447	0
5	663	1690.973906648274	0
5	668	1698.856789361593	0
5	669	1699.434279173518	0
5	677	1746.146211424682	0
5	678	1746.516219018096	0
5	680	1768.10364118851	0
5	684	1775.242269247298	0
5	686	1781.822805675791	0
5	687	1785.059129264103	0
5	689	1785.178380479258	0
5	690	1785.625155284869	0
5	696	1805.982725966671	0
5	699	1808.151928886492	0
5	701	1816.75790201413	0
5	702	1821.29181317856	0
5	712	1843.574654344956	0
5	714	1852.900352133591	0
5	716	1879.373204660125	0
5	717	1883.104600339888	0
5	719	1887.469695952147	0
5	720	1888.61555522224	0
5	722	1903.408989516434	0
5	723	1903.871927960948	0
5	730	1925.420946342677	0
5	732	1927.398926209321	1
5	734	1929.417975943475	2
5	736	1931.845117696918	2
5	737	1935.486848905385	1
5	738	1936.257685634316	0
5	740	1944.773949654688	0
5	741	1945.795246011968	0
5	743	1948.558407843685	0
5	744	1949.488705918984	0
5	749	1983.66670938471	0
5	751	1984.43627306884	1
5	752	1985.265241863776	1
5	753	1985.83382685998	0
5	755	1988.943174813553	0
5	756	1989.548558727416	0
5	758	1992.87248004456	0
5	759	1993.622596912411	0
5	761	1993.792383647937	0
5	762	1999.871101751427	0
5	764	2021.120040871594	0
5	769	2025.333446785742	1
5	770	2025.67629009571	1
5	771	2029.235841011864	0
5	773	2054.053071454524	0
5	774	2054.199069248481	0
5	776	2062.518611221697	0
5	778	2063.391034652114	1
5	780	2065.200412046749	2
5	781	2065.340475869752	2
5	782	2066.159683813173	1
5	783	2066.213703955255	0
5	785	2067.369660307153	0
5	786	2073.624135927199	0
5	788	2077.355952694257	0
5	789	2080.059413966531	0
5	791	2080.661174205752	0
5	793	2081.339312086223	1
5	794	2083.280181920146	1
5	796	2083.359432863404	1
5	797	2083.528185149658	1
5	798	2084.258596457029	0
5	812	2107.763453955233	0
5	813	2112.210501391338	0
5	815	2130.147397150886	0
5	817	2131.075723428299	1
5	818	2133.288301169451	1
5	819	2133.587369684773	0
5	821	2142.161567990562	0
5	822	2143.071550099815	0
5	824	2144.385352452261	0
5	828	2146.283239973336	1
5	831	2152.668933988442	2
5	832	2153.629819192482	2
5	833	2154.636336511046	1
5	834	2155.116133415066	0
5	836	2171.148276558928	0
5	837	2173.546953395477	0
5	839	2176.964284117084	0
5	844	2185.652321415968	1
5	845	2186.194602847422	1
5	846	2187.893916552947	0
5	848	2200.157511841202	0
5	849	2200.243169670013	0
5	851	2201.869038775595	0
5	853	2201.997293095396	1
5	855	2203.452852601386	2
5	856	2205.096777573093	2
5	864	2214.867934563696	2
5	867	2223.657100916351	3
5	869	2226.881252968874	4
5	872	2228.640744741857	5
5	879	2237.903645916445	6
5	882	2242.477657187887	7
5	884	2249.519166024353	7
5	886	2250.373639852665	7
5	887	2252.442589474487	7
5	888	2253.586643040355	6
5	889	2255.279068193417	5
5	890	2257.048052116828	4
5	891	2258.752739373658	3
5	892	2258.984546069991	2
5	893	2262.71424393339	1
5	894	2269.647727105692	0
5	898	2283.883901231491	0
5	900	2286.238464290669	1
5	908	2293.331009191134	1
5	909	2293.551345274345	0
5	911	2299.319823196942	0
5	912	2300.362660519771	0
5	914	2300.783069113227	0
5	915	2302.367406351598	0
5	917	2313.804224342733	0
5	921	2328.464642079065	1
5	923	2332.77835665299	1
5	925	2335.545418203672	1
5	926	2336.873112823699	1
5	927	2337.849439317102	0
5	929	2341.981072622497	0
5	930	2342.204917542424	0
5	932	2343.334747485083	0
5	933	2344.392835624996	0
5	935	2350.655980734442	0
5	936	2351.356520822079	0
5	938	2351.535681568716	0
5	939	2352.857003902843	0
5	944	2380.394249811124	0
5	946	2385.512245301738	1
5	947	2385.977027706755	1
5	948	2387.068660226566	0
5	950	2395.827166958937	0
5	951	2397.455314502498	0
5	956	2438.359583112643	0
5	960	2444.126573409002	1
5	962	2444.961457861609	1
5	963	2445.489497418476	0
5	965	2448.04074565643	0
5	966	2448.52776012469	0
5	968	2454.272997008193	0
5	969	2455.002370285654	0
5	971	2459.202377342599	0
5	972	2459.261053675652	0
5	974	2462.063629544418	0
5	975	2465.655907130208	0
5	977	2466.971518960638	0
5	979	2469.938873253385	1
5	980	2470.877919718399	1
5	982	2472.405728764313	1
5	984	2472.638354338712	2
5	988	2473.954007465772	3
5	993	2478.164820189564	3
6	136	353.267954132663	22
6	149	377.126801787786	23
6	156	386.495939769521	24
6	157	394.104351437284	25
6	158	394.131397973407	26
6	169	417.817947199507	27
6	170	420.246910718935	28
6	176	425.040077015859	29
6	198	467.229523013833	30
6	204	476.337053079144	31
6	207	496.355424796486	32
6	228	564.15657394554	33
6	233	566.907292805128	34
6	251	623.208379771681	35
6	256	636.49737137781	36
6	257	637.398090350031	37
6	267	671.987022917438	38
6	270	685.278784946301	39
6	278	726.471866752814	40
6	282	731.085486019106	41
6	285	742.750784325368	42
6	293	758.631732615483	43
6	297	777.54989103098	44
6	330	895.12203108889	45
6	337	904.777594776318	46
6	338	905.75559994224	47
6	353	933.926777208792	48
6	377	1003.026388954249	49
6	389	1017.370238820144	50
6	401	1041.854562122292	51
6	419	1076.564448697699	52
6	420	1077.662505149015	53
6	438	1115.190320864214	54
6	445	1126.072306126796	55
6	446	1131.192854636694	56
6	452	1145.9519865157	57
6	468	1197.255686787662	58
6	471	1225.005014177238	59
6	477	1243.295789247743	60
6	483	1262.054162170306	61
6	498	1291.872872922896	62
6	504	1349.100568944567	63
6	507	1372.267520380029	64
6	517	1421.787413679452	65
6	536	1454.453893920499	66
6	546	1479.401853619933	67
6	551	1494.145480226529	68
6	556	1501.46916529189	69
6	557	1501.778789719429	70
6	572	1521.210914187515	71
6	578	1530.026437559199	72
6	583	1534.537147273342	73
6	606	1601.202767587493	74
6	613	1608.770604302363	75
6	614	1609.515525238061	76
6	630	1624.012227768338	77
6	637	1637.355375032183	78
6	641	1641.234344400194	79
6	666	1696.769582923428	80
6	672	1730.605539982969	81
6	675	1743.551197065425	82
6	683	1775.059791007681	83
6	697	1806.819800987876	84
6	698	1807.353167188764	85
6	705	1826.836560570656	86
6	708	1833.715048295697	87
6	713	1850.198293442548	88
6	728	1925.411279628215	89
6	735	1931.238245987524	90
6	747	1981.446091475127	91
6	767	2025.012072798045	92
6	803	2097.60386785061	93
6	806	2098.132598257499	94
6	807	2100.824304329498	95
6	810	2104.55751959908	96
6	829	2152.609321803841	97
6	842	2182.348478028914	98
6	865	2220.974763902639	99
6	870	2227.042397645374	100
6	873	2228.911804351684	101
6	880	2239.983218944078	102
6	883	2246.31963618124	103
6	903	2287.623066016463	104
6	906	2291.66324905054	105
6	907	2292.991535598491	106
6	922	2330.54706411352	107
6	942	2379.942984335623	108
6	954	2434.016209237698	109
6	961	2444.252077095105	110
6	991	2477.571352728374	111
6	992	2478.02183715313	112
6	996	2484.277019929961	113
6	999	2488.693849291767	114
7	136	353.267954132663	2.356858784478
7	149	377.126801787786	10.736097654604
7	156	386.495939769521	15.322378457481
7	157	394.104351437284	16.283738451371
7	158	394.131397973407	16.161595101187
7	169	417.817947199507	11.227340813733
7	170	420.246910718935	2.629619170356
7	176	425.040077015859	1.136981444353
7	198	467.229523013833	0.008017678459
7	204	476.337053079144	2.166353900161
7	207	496.355424796486	0.383707795629
7	228	564.15657394554	2.56689931789
7	233	566.907292805128	1.266866462612
7	251	623.208379771681	8.681678466808
7	256	636.49737137781	21.242838883431
7	257	637.398090350031	5.348867830866
7	267	671.987022917438	1.023568079999
7	270	685.278784946301	1.024432951639
7	278	726.471866752814	17.061222199676
7	282	731.085486019106	0.465592428407
7	285	742.750784325368	1.506140595411
7	293	758.631732615483	2.00252670454
7	297	777.54989103098	0.002989731127
7	330	895.12203108889	8.410568723547
7	337	904.777594776318	4.587103187695
7	338	905.75559994224	2.502493635304
7	353	933.926777208792	5.356104254175
7	377	1003.026388954249	0.402932739126
7	389	1017.370238820144	1.485603548054
7	401	1041.854562122292	6.641523613835
7	419	1076.564448697699	26.418192190465
7	420	1077.662505149015	2.022175937805
7	438	1115.190320864214	1.135699120241
7	445	1126.072306126796	5.024731330202
7	446	1131.192854636694	6.524549933507
7	452	1145.9519865157	2.951268150318
7	468	1197.255686787662	3.991129904407
7	471	1225.005014177238	3.963667953287
7	477	1243.295789247743	3.121861328766
7	483	1262.054162170306	1.37116630123
7	498	1291.872872922896	1.241118548576
7	504	1349.100568944567	7.111885126387
7	507	1372.267520380029	4.809541934973
7	517	1421.787413679452	10.413480110004
7	536	1454.453893920499	10.285902092566
7	546	1479.401853619933	14.539618522192
7	551	1494.145480226529	23.755555041106
7	556	1501.46916529189	24.069857919033
7	557	1501.778789719429	7.079945861155
7	572	1521.210914187515	3.56061700203
7	578	1530.026437559199	5.710818389498
7	583	1534.537147273342	3.734682664311
7	606	1601.202767587493	0.100266847379
7	613	1608.770604302363	4.964764202191
7	614	1609.515525238061	2.813809309012
7	630	1624.012227768338	0.434957678746
7	637	1637.355375032183	7.329166152735
7	641	1641.234344400194	0.687336884872
7	666	1696.769582923428	1.275597964904
7	672	1730.605539982969	18.673519693494
7	675	1743.551197065425	11.836410726013
7	683	1775.059791007681	4.814932286676
7	697	1806.819800987876	3.964869128135
7	698	1807.353167188764	2.46380586253
7	705	1826.836560570656	1.946723606049
7	708	1833.715048295697	0.075477768248
7	713	1850.198293442548	7.46601060712
7	728	1925.411279628215	9.974670038682
7	735	1931.238245987524	14.348763634963
7	747	1981.446091475127	13.544365156438
7	767	2025.012072798045	3.376127818392
7	803	2097.60386785061	6.706581308299
7	806	2098.132598257499	1.08088562119
7	807	2100.824304329498	2.72658127753
7	810	2104.55751959908	1.682314654412
7	829	2152.609321803841	6.727242056511
7	842	2182.348478028914	4.889027542727
7	865	2220.974763902639	14.123994769779
7	870	2227.042397645374	18.792877164796
7	873	2228.911804351684	15.183664608343
7	880	2239.983218944078	9.519869139694
7	883	2246.31963618124	13.664123788742
7	903	2287.623066016463	5.126595005556
7	906	2291.66324905054	5.043573232841
7	907	2292.991535598491	1.931192822931
7	922	2330.54706411352	11.542020247909
7	942	2379.942984335623	21.200859542516
7	954	2434.016209237698	14.165616188643
7	961	2444.252077095105	1.644286732843
7	991	2477.571352728374	3.695099072978
7	992	2478.02183715313	2.863476283271
7	996	2484.277019929961	4.9877858446
7	999	2488.693849291767	3.639950479428
8	136	353.267954132663	26.441312516997
8	137	354.513996514194	26.176534549409
8	138	354.813886988336	15.553589585181
8	139	354.86115582417	3.950060475985
8	140	356.223472799339	4.596439609741
8	143	357.70460543179	0.93210896963
8	158	394.131397973407	14.318797745427
8	161	402.963737716547	0
8	170	420.246910718935	9.64499898916
8	176	425.040077015859	1.011937586325
8	179	427.380747420206	0.511805391637
8	182	430.0817299749	0
8	185	441.223251046719	0
8	188	447.851077409646	0
8	191	456.100258157296	0
8	194	463.758244053226	0
8	200	471.579336823452	0
8	209	502.794677597688	0
8	212	525.18586160872	0
8	215	531.255079119128	0
8	218	549.756142199541	0
8	221	554.025330218918	0
8	224	557.678344759667	0
8	233	566.907292805128	0.963669739828
8	236	575.917811479756	0
8	239	583.098400084753	0
8	242	594.500210084924	0
8	245	609.520100969384	10.767415716757
8	257	637.398090350031	3.436281507949
8	260	639.20321495957	1.012606456029
8	263	660.593018703502	0
8	272	689.824420977936	0
8	278	726.471866752814	8.100628984758
8	287	743.664457964074	0
8	290	753.942981059847	0
8	293	758.631732615483	2.00252670454
8	299	784.610996476157	0
8	302	794.14696762077	0
8	305	821.459204172439	0
8	308	824.042809397798	0
8	311	825.478710455605	0.282439627009
8	314	831.852211033489	0
8	317	833.937966094001	0
8	320	850.399986038396	0
8	323	856.16331663331	1.27441573098
8	326	873.482015827866	0
8	338	905.75559994224	4.534444782428
8	341	908.871473264762	0
8	344	910.393804313899	0.791711113137
8	347	923.781926997375	0
8	353	933.926777208792	2.502849690534
8	356	938.348939201108	0
8	359	943.24238757556	0
8	362	962.235470988632	0
8	365	966.330123148036	0
8	368	975.99798697478	0
8	371	979.417000501403	0.711178742996
8	374	998.482918602949	0
8	377	1003.026388954249	0.402932739126
8	380	1005.920830405399	0
8	383	1008.556543930712	0
8	386	1012.895385653161	0.508681200055
8	389	1017.370238820144	1.485603548054
8	392	1021.689936415532	4.157933714734
8	395	1032.004903157706	0
8	401	1041.854562122292	0.058017439024
8	404	1044.847656911698	0
8	420	1077.662505149015	31.271246358083
8	421	1078.587475883583	28.441219376349
8	424	1082.90205891621	24.979855528152
8	425	1084.69004404084	25.457655272897
8	426	1086.547220506079	20.971043600743
8	429	1089.104718896898	18.135778153196
8	430	1097.035435238663	17.272069567467
8	433	1100.582909301844	12.68032974215
8	434	1105.95116021189	8.558404927012
8	446	1131.192854636694	5.426621541438
8	452	1145.9519865157	2.863329202519
8	455	1148.352433743115	0
8	458	1150.147960361783	0.005641579163
8	461	1163.488885027925	0
8	464	1173.619248624901	0
8	473	1227.547002012055	0
8	479	1246.485309322208	0
8	485	1271.334097917293	0
8	488	1274.754701552974	0
8	493	1279.664194384613	4.889239590343
8	494	1283.300475474699	8.00522545089
8	500	1310.814878514192	0
8	509	1389.787856502193	0
8	517	1421.787413679452	10.012964910773
8	518	1422.792505484303	6.570092333106
8	521	1428.245109142045	0
8	524	1434.999012423788	0
8	527	1436.313522157987	0.288370517235
8	530	1441.760245540321	0
8	536	1454.453893920499	4.173882936457
8	557	1501.778789719429	36.677269451732
8	558	1503.281879313976	21.030312652697
8	559	1505.58589365521	13.405385437101
8	562	1506.897087689502	6.486502182391
8	563	1510.071074696444	3.251438080129
8	566	1511.139202840092	0
8	572	1521.210914187515	2.184225000352
8	578	1530.026437559199	3.158087934741
8	583	1534.537147273342	3.734682664311
8	584	1535.322912357629	2.807526915546
8	587	1553.683836730964	0
8	590	1559.904844978734	0
8	593	1561.116318174958	0
8	596	1573.486427605865	0
8	601	1575.019959383909	1.214095600354
8	602	1575.277637110202	1.087704105719
8	614	1609.515525238061	4.789846638546
8	617	1614.130867905326	2.090220745543
8	620	1615.447868378449	0
8	623	1616.901082873397	0.361368620828
8	626	1622.372766462893	0
8	637	1637.355375032183	5.626043815988
8	638	1640.067714769303	5.340546465978
8	641	1641.234344400194	0.687336884872
8	644	1647.320947225547	4.310795736823
8	647	1652.095645300041	0
8	650	1657.888339907812	0
8	653	1668.538743181191	0
8	656	1671.840158955775	0
8	659	1675.065592406074	0
8	662	1679.339446979447	0
8	668	1698.856789361593	0
8	677	1746.146211424682	0
8	680	1768.10364118851	0
8	683	1775.059791007681	4.814932286676
8	686	1781.822805675791	0
8	689	1785.178380479258	0
8	698	1807.353167188764	1.370441222093
8	701	1816.75790201413	0
8	713	1850.198293442548	6.623639097592
8	716	1879.373204660125	0
8	719	1887.469695952147	0
8	722	1903.408989516434	0
8	735	1931.238245987524	5.817299644847
8	736	1931.845117696918	4.446191487597
8	737	1935.486848905385	6.06887296191
8	740	1944.773949654688	0
8	743	1948.558407843685	0
8	749	1983.66670938471	0
8	752	1985.265241863776	0.828968794936
8	755	1988.943174813553	0
8	758	1992.87248004456	0
8	761	1993.792383647937	0
8	764	2021.120040871594	0
8	767	2025.012072798045	3.376127818392
8	770	2025.67629009571	0.342843309968
8	773	2054.053071454524	0
8	776	2062.518611221697	0
8	781	2065.340475869752	1.949441217638
8	782	2066.159683813173	0.959271766424
8	785	2067.369660307153	0
8	788	2077.355952694257	0
8	791	2080.661174205752	0
8	794	2083.280181920146	1.940869833923
8	797	2083.528185149658	0.168752286254
8	812	2107.763453955233	0
8	815	2130.147397150886	0
8	818	2133.288301169451	2.212577741152
8	821	2142.161567990562	0
8	824	2144.385352452261	0
8	829	2152.609321803841	6.727242056511
8	832	2153.629819192482	7.346579219146
8	833	2154.636336511046	1.967402522604
8	836	2171.148276558928	0
8	839	2176.964284117084	0
8	842	2182.348478028914	4.889027542727
8	845	2186.194602847422	0.542281431454
8	848	2200.157511841202	0
8	851	2201.869038775595	0
8	856	2205.096777573093	3.099484477697
8	873	2228.911804351684	25.458951750298
8	883	2246.31963618124	39.46886704838
8	884	2249.519166024353	34.651231460657
8	887	2252.442589474487	28.785488558136
8	888	2253.586643040355	26.705390071481
8	889	2255.279068193417	26.63832345156
8	890	2257.048052116828	26.584702312444
8	891	2258.752739373658	20.849093457213
8	892	2258.984546069991	16.506888882104
8	893	2262.71424393339	12.340604080725
8	907	2292.991535598491	9.107634367
8	908	2293.331009191134	7.092544900465
8	911	2299.319823196942	0
8	914	2300.783069113227	0
8	917	2313.804224342733	0
8	922	2330.54706411352	11.542020247909
8	923	2332.77835665299	4.313714573925
8	926	2336.873112823699	1.327694620027
8	929	2341.981072622497	0
8	932	2343.334747485083	0
8	935	2350.655980734442	0
8	938	2351.535681568716	0
8	944	2380.394249811124	0
8	947	2385.977027706755	0.464782405017
8	950	2395.827166958937	0
8	956	2438.359583112643	0
8	961	2444.252077095105	1.644286732843
8	962	2444.961457861609	0.834884452607
8	965	2448.04074565643	0
8	968	2454.272997008193	0
8	971	2459.202377342599	0
8	974	2462.063629544418	0
8	977	2466.971518960638	0
8	980	2470.877919718399	0.939046465014
8	992	2478.02183715313	5.616108388817
8	993	2478.164820189564	5.526465850852
8	996	2484.277019929961	10.400766274565
8	999	2488.693849291767	14.739841825995
9	137	354.513996514194	21
9	138	354.813886988336	22
9	139	354.86115582417	23
9	140	356.223472799339	24
9	143	357.70460543179	25
9	144	359.602500821002	26
9	159	396.332772734063	27
9	162	404.269324280032	28
9	171	420.688709213159	29
9	179	427.380747420206	30
9	180	429.219416863547	31
9	183	432.773940705828	32
9	186	442.209753614045	33
9	189	448.974856411711	34
9	192	459.103418010419	35
9	195	464.670624940675	36
9	201	472.720158896645	37
9	210	508.73602280702	38
9	213	529.711299277984	39
9	216	531.996338479181	40
9	219	551.397423179316	41
9	222	554.683664925975	42
9	225	559.495116527686	43
9	234	574.079890208891	44
9	237	577.125222133578	45
9	240	584.721443652587	46
9	245	609.520100969384	47
9	246	612.017743314299	48
9	260	639.20321495957	49
9	261	643.940628585751	50
9	264	662.640096749858	51
9	273	690.756896683735	52
9	279	726.559509622667	53
9	288	745.9908082034	54
9	294	759.54567763348	55
9	300	786.14223698141	56
9	303	795.513114929621	57
9	306	824.011832144004	58
9	311	825.478710455605	59
9	312	829.503818049257	60
9	315	832.679383594093	61
9	318	834.342629751422	62
9	323	856.16331663331	63
9	324	856.818924147163	64
9	327	876.250736807837	65
9	339	908.099722977575	66
9	344	910.393804313899	67
9	345	912.138541767334	68
9	348	924.63746392055	69
9	354	937.107925730991	70
9	357	940.21435445031	71
9	360	945.632241391987	72
9	363	964.283619593461	73
9	366	972.007255241359	74
9	371	979.417000501403	75
9	372	981.814415868006	76
9	378	1003.540735522562	77
9	381	1006.332783137976	78
9	386	1012.895385653161	79
9	392	1021.689936415532	80
9	393	1021.890631625294	81
9	396	1033.598609184127	82
9	402	1044.442684680159	83
9	421	1078.587475883583	84
9	424	1082.90205891621	85
9	425	1084.69004404084	86
9	426	1086.547220506079	87
9	429	1089.104718896898	88
9	430	1097.035435238663	89
9	433	1100.582909301844	90
9	434	1105.95116021189	91
9	435	1108.694088497046	92
9	447	1132.068280331371	93
9	453	1146.140838043411	94
9	458	1150.147960361783	95
9	459	1150.284314273911	96
9	462	1163.721099477852	97
9	465	1182.360062887169	98
9	474	1230.113080378949	99
9	480	1249.228308969934	100
9	486	1271.68921839551	101
9	493	1279.664194384613	102
9	494	1283.300475474699	103
9	495	1285.452228974496	104
9	501	1311.014495570338	105
9	510	1390.111718330991	106
9	518	1422.792505484303	107
9	519	1426.267316309805	108
9	522	1431.092535668977	109
9	527	1436.313522157987	110
9	528	1438.092885178457	111
9	531	1444.008218000975	112
9	537	1457.115480287936	113
9	558	1503.281879313976	114
9	559	1505.58589365521	115
9	562	1506.897087689502	116
9	563	1510.071074696444	117
9	564	1510.127269731803	118
9	567	1512.480498504746	119
9	573	1522.486909572785	120
9	584	1535.322912357629	121
9	585	1537.202304932626	122
9	588	1558.043245995429	123
9	591	1559.938363798597	124
9	594	1564.23309931101	125
9	601	1575.019959383909	126
9	602	1575.277637110202	127
9	603	1575.400427675341	128
9	617	1614.130867905326	129
9	618	1614.723049644841	130
9	623	1616.901082873397	131
9	624	1621.548825727496	132
9	627	1623.543735765575	133
9	638	1640.067714769303	134
9	644	1647.320947225547	135
9	645	1649.950165770536	136
9	648	1654.079600565319	137
9	651	1662.763834842905	138
9	654	1669.264414273844	139
9	657	1671.889872866101	140
9	660	1675.135238421736	141
9	663	1690.973906648274	142
9	669	1699.434279173518	143
9	678	1746.516219018096	144
9	684	1775.242269247298	145
9	687	1785.059129264103	146
9	690	1785.625155284869	147
9	699	1808.151928886492	148
9	702	1821.29181317856	149
9	714	1852.900352133591	150
9	717	1883.104600339888	151
9	720	1888.61555522224	152
9	723	1903.871927960948	153
9	736	1931.845117696918	154
9	737	1935.486848905385	155
9	738	1936.257685634316	156
9	741	1945.795246011968	157
9	744	1949.488705918984	158
9	752	1985.265241863776	159
9	753	1985.83382685998	160
9	756	1989.548558727416	161
9	759	1993.622596912411	162
9	762	1999.871101751427	163
9	770	2025.67629009571	164
9	771	2029.235841011864	165
9	774	2054.199069248481	166
9	781	2065.340475869752	167
9	782	2066.159683813173	168
9	783	2066.213703955255	169
9	786	2073.624135927199	170
9	789	2080.059413966531	171
9	794	2083.280181920146	172
9	797	2083.528185149658	173
9	798	2084.258596457029	174
9	813	2112.210501391338	175
9	818	2133.288301169451	176
9	819	2133.587369684773	177
9	822	2143.071550099815	178
9	832	2153.629819192482	179
9	833	2154.636336511046	180
9	834	2155.116133415066	181
9	837	2173.546953395477	182
9	845	2186.194602847422	183
9	846	2187.893916552947	184
9	849	2200.243169670013	185
9	856	2205.096777573093	186
9	884	2249.519166024353	187
9	887	2252.442589474487	188
9	888	2253.586643040355	189
9	889	2255.279068193417	190
9	890	2257.048052116828	191
9	891	2258.752739373658	192
9	892	2258.984546069991	193
9	893	2262.71424393339	194
9	894	2269.647727105692	195
9	908	2293.331009191134	196
9	909	2293.551345274345	197
9	912	2300.362660519771	198
9	915	2302.367406351598	199
9	923	2332.77835665299	200
9	926	2336.873112823699	201
9	927	2337.849439317102	202
9	930	2342.204917542424	203
9	933	2344.392835624996	204
9	936	2351.356520822079	205
9	939	2352.857003902843	206
9	947	2385.977027706755	207
9	948	2387.068660226566	208
9	951	2397.455314502498	209
9	962	2444.961457861609	210
9	963	2445.489497418476	211
9	966	2448.52776012469	212
9	969	2455.002370285654	213
9	972	2459.261053675652	214
9	975	2465.655907130208	215
9	980	2470.877919718399	216
9	993	2478.164820189564	217
10	137	354.513996514194	27.687354898528
10	138	354.813886988336	26.476425023551
10	139	354.86115582417	15.600858421015
10	140	356.223472799339	5.312377451154
10	143	357.70460543179	6.077572242192
10	144	359.602500821002	2.830004358842
10	159	396.332772734063	16.520172506083
10	162	404.269324280032	1.305586563485
10	171	420.688709213159	10.086797483384
10	179	427.380747420206	3.352607990672
10	180	429.219416863547	2.350474834978
10	183	432.773940705828	2.692210730928
10	186	442.209753614045	0.986502567326
10	189	448.974856411711	1.123779002065
10	192	459.103418010419	3.003159853123
10	195	464.670624940675	0.912380887449
10	201	472.720158896645	1.140822073193
10	210	508.73602280702	5.941345209332
10	213	529.711299277984	4.525437669264
10	216	531.996338479181	0.741259360053
10	219	551.397423179316	1.641280979775
10	222	554.683664925975	0.658334707057
10	225	559.495116527686	1.816771768019
10	234	574.079890208891	8.136267143591
10	237	577.125222133578	1.207410653822
10	240	584.721443652587	1.623043567834
10	245	609.520100969384	15.01989088446
10	246	612.017743314299	13.265058061672
10	260	639.20321495957	5.241406117488
10	261	643.940628585751	5.75002008221
10	264	662.640096749858	2.047078046356
10	273	690.756896683735	0.932475705799
10	279	726.559509622667	8.188271854611
10	288	745.9908082034	2.326350239326
10	294	759.54567763348	2.916471722537
10	300	786.14223698141	1.531240505253
10	303	795.513114929621	1.366147308851
10	306	824.011832144004	2.552627971565
10	311	825.478710455605	1.435901057807
10	312	829.503818049257	4.307547220661
10	315	832.679383594093	0.827172560604
10	318	834.342629751422	0.404663657421
10	323	856.16331663331	5.763330594914
10	324	856.818924147163	1.930023244833
10	327	876.250736807837	2.768720979971
10	339	908.099722977575	6.878567817763
10	344	910.393804313899	1.522331049137
10	345	912.138541767334	2.536448566572
10	348	924.63746392055	0.855536923175
10	354	937.107925730991	5.683998212733
10	357	940.21435445031	1.865415249202
10	360	945.632241391987	2.389853816427
10	363	964.283619593461	2.048148604829
10	366	972.007255241359	5.677132093323
10	371	979.417000501403	3.419013526623
10	372	981.814415868006	3.108594109599
10	378	1003.540735522562	0.917279307439
10	381	1006.332783137976	0.411952732577
10	386	1012.895385653161	4.338841722449
10	392	1021.689936415532	5.805301143442
10	393	1021.890631625294	4.358628924496
10	396	1033.598609184127	1.593706026421
10	402	1044.442684680159	2.646139996891
10	421	1078.587475883583	32.196217092651
10	424	1082.90205891621	32.755802408976
10	425	1084.69004404084	26.767840652782
10	426	1086.547220506079	27.314831738136
10	429	1089.104718896898	23.528541991562
10	430	1097.035435238663	26.066494494961
10	433	1100.582909301844	20.819543630648
10	434	1105.95116021189	18.048580652196
10	435	1108.694088497046	11.301333212168
10	447	1132.068280331371	6.302047236115
10	453	1146.140838043411	3.05218073023
10	458	1150.147960361783	1.795526618668
10	459	1150.284314273911	0.141995491291
10	462	1163.721099477852	0.232214449927
10	465	1182.360062887169	8.740814262268
10	474	1230.113080378949	2.566078366894
10	480	1249.228308969934	2.742999647726
10	486	1271.68921839551	0.355120478217
10	493	1279.664194384613	4.909492831639
10	494	1283.300475474699	8.525520680429
10	495	1285.452228974496	10.156978950687
10	501	1311.014495570338	0.199617056146
10	510	1390.111718330991	0.323861828798
10	518	1422.792505484303	11.018056715624
10	519	1426.267316309805	10.044903158608
10	522	1431.092535668977	2.847426526932
10	527	1436.313522157987	1.314509734199
10	528	1438.092885178457	2.067733537705
10	531	1444.008218000975	2.247972460654
10	537	1457.115480287936	6.835469303894
10	558	1503.281879313976	38.180359046279
10	559	1505.58589365521	23.334326993931
10	562	1506.897087689502	14.716579471393
10	563	1510.071074696444	9.660489189333
10	564	1510.127269731803	3.307633115488
10	567	1512.480498504746	1.341295664654
10	573	1522.486909572785	3.460220385622
10	584	1535.322912357629	4.520447748598
10	585	1537.202304932626	4.686919490543
10	588	1558.043245995429	4.359409264465
10	591	1559.938363798597	0.033518819863
10	594	1564.23309931101	3.116781136052
10	601	1575.019959383909	1.533531778044
10	602	1575.277637110202	1.471773326647
10	603	1575.400427675341	1.210494670858
10	617	1614.130867905326	9.405189305811
10	618	1614.723049644841	2.682402485058
10	623	1616.901082873397	1.453214494948
10	624	1621.548825727496	5.009111474927
10	627	1623.543735765575	1.170969302682
10	638	1640.067714769303	8.338383553108
10	644	1647.320947225547	6.773939710225
10	645	1649.950165770536	6.940014281812
10	648	1654.079600565319	1.983955265278
10	651	1662.763834842905	4.875494935093
10	654	1669.264414273844	0.725671092653
10	657	1671.889872866101	0.049713910326
10	660	1675.135238421736	0.069646015662
10	663	1690.973906648274	11.634459668827
10	669	1699.434279173518	0.577489811925
10	678	1746.516219018096	0.370007593414
10	684	1775.242269247298	4.997410526293
10	687	1785.059129264103	3.236323588312
10	690	1785.625155284869	0.446774805611
10	699	1808.151928886492	2.169202919821
10	702	1821.29181317856	4.53391116443
10	714	1852.900352133591	9.325697788635
10	717	1883.104600339888	3.731395679763
10	720	1888.61555522224	1.145859270093
10	723	1903.871927960948	0.462938444514
10	736	1931.845117696918	6.424171354241
10	737	1935.486848905385	8.087922696064
10	738	1936.257685634316	6.839709690841
10	741	1945.795246011968	1.02129635728
10	744	1949.488705918984	0.930298075299
10	752	1985.265241863776	1.598532479066
10	753	1985.83382685998	1.39755379114
10	756	1989.548558727416	0.605383913863
10	759	1993.622596912411	0.750116867851
10	762	1999.871101751427	6.07871810349
10	770	2025.67629009571	4.040345116057
10	771	2029.235841011864	3.902394226122
10	774	2054.199069248481	0.145997793957
10	781	2065.340475869752	2.821864648055
10	782	2066.159683813173	2.768649161059
10	783	2066.213703955255	1.013291908506
10	786	2073.624135927199	6.254475620046
10	789	2080.059413966531	2.703461272274
10	794	2083.280181920146	2.619007714394
10	797	2083.528185149658	2.188873063435
10	798	2084.258596457029	0.899163593625
10	813	2112.210501391338	4.447047436105
10	818	2133.288301169451	3.140904018565
10	819	2133.587369684773	2.511646256474
10	822	2143.071550099815	0.909982109253
10	832	2153.629819192482	7.747739445152
10	833	2154.636336511046	8.35309653771
10	834	2155.116133415066	2.447199426624
10	837	2173.546953395477	2.398676836549
10	845	2186.194602847422	8.735152361235
10	846	2187.893916552947	2.241595136979
10	849	2200.243169670013	0.085657828811
10	856	2205.096777573093	3.227738797498
10	884	2249.519166024353	42.668396891493
10	887	2252.442589474487	37.574654910791
10	888	2253.586643040355	29.929542124004
10	889	2255.279068193417	28.397815224543
10	890	2257.048052116828	28.407307374971
10	891	2258.752739373658	28.289389569274
10	892	2258.984546069991	21.080900153546
10	893	2262.71424393339	20.236586745503
10	894	2269.647727105692	19.274087253027
10	908	2293.331009191134	9.447107959643
10	909	2293.551345274345	7.312880983676
10	912	2300.362660519771	1.042837322829
10	915	2302.367406351598	1.584337238371
10	923	2332.77835665299	13.773312787379
10	926	2336.873112823699	8.408470744634
10	927	2337.849439317102	2.30402111343
10	930	2342.204917542424	0.223844919927
10	933	2344.392835624996	1.058088139913
10	936	2351.356520822079	0.700540087637
10	939	2352.857003902843	1.321322334127
10	947	2385.977027706755	5.582777895631
10	948	2387.068660226566	1.556414924828
10	951	2397.455314502498	1.628147543561
10	962	2444.961457861609	2.353667499347
10	963	2445.489497418476	1.362924009474
10	966	2448.52776012469	0.48701446826
10	969	2455.002370285654	0.729373277461
10	972	2459.261053675652	0.058676333053
10	975	2465.655907130208	3.59227758579
10	980	2470.877919718399	3.906400757761
10	993	2478.164820189564	5.759091425251
11	1002	2500	0.0868
12	1002	2500	0.0456

