file 63283 1678273426                                           
version 2
run experiments_easy_game_mode1-535-20230308-12:03:46-21084
attr configname experiments_easy_game_mode1
attr datetime 20230308-12:03:46
attr experiment experiments_easy_game_mode1
attr inifile omnetpp.ini
attr iterationvars "$0=5.5, $1=2, $2=100"
attr iterationvarsf 5.5,2,100-
attr measurement "$0=5.5, $1=2, $2=100"
attr network Network
attr processid 21084
attr repetition 25
attr replication #25
attr resultdir results
attr runnumber 535
attr seedset 25
param *.boss.arrival_mean 20
param *.boss.service_mean 5.5
param *.minion.arrival_mean 10
param *.minion.service_mean 2
param *.player.recover_rate_x 100
param **.minion.arrival_distribution 0
param **.minion.service_distribution 0
param **.boss.arrival_distribution 0
param **.boss.service_distribution 0

vector 0 Network.player minion_jobs_number_stat:vector ETV
attr source signal_minion_jobs_number
vector 1 Network.player minion_jobs_queue_number_stat:vector ETV
attr source signal_minion_jobs_queue_number
vector 2 Network.player minion_waiting_time_stat:vector ETV
attr source signal_minion_waiting_time
vector 3 Network.player minion_defeated_stat:vector ETV
attr source signal_minion_defeated
vector 4 Network.player minion_response_time_stat:vector ETV
attr source signal_minion_response_time
vector 5 Network.player boss_jobs_number_stat:vector ETV
attr source signal_boss_jobs_number
vector 6 Network.player boss_jobs_queue_number_stat:vector ETV
attr source signal_boss_jobs_queue_number
vector 7 Network.player boss_waiting_time_stat:vector ETV
attr source signal_boss_waiting_time
vector 8 Network.player boss_defeated_stat:vector ETV
attr source signal_boss_defeated
vector 9 Network.player boss_response_time_stat:vector ETV
attr source signal_boss_response_time
vector 10 Network.player minion_recovered_stat:vector ETV
attr source signal_minion_recovered
vector 11 Network.player minion_throughput:vector ETV
attr source signal_minion_throughput
vector 12 Network.player boss_throughput:vector ETV
attr source signal_boss_throughput
0	2021 5942 191 1211 362.268301555052 2498.954044201238 231 1 8 404 1078
1	7963 11881 191 1211 362.268301555052 2498.954044201238 461 0 7 346 1002
2	19844 8405 191 1211 362.268301555052 2498.954044201238 259 0 45.654580416184 1108.5097307397 19026.465974695
3	28249 6342 192 1209 363.727374047053 2496.94213384546 230 43 272 36225 6719335
4	34591 8953 192 1209 363.727374047053 2496.94213384546 230 0.018545009601 47.031024031299 1401.1810873481 22171.146159145
5	43544 2838 200 1200 407.023051346512 2475.119593842137 110 1 4 141 219
6	46382 5671 200 1201 407.023051346512 2487.611502266645 220 0 3 62 94
7	52053 3162 200 1200 407.023051346512 2475.119593842137 110 0 19.849670879118 159.17389078681 2029.6380822616
8	55215 2975 201 1201 409.394924368223 2487.611502266645 110 22 131 8415 754655
9	58190 4270 201 1201 409.394924368223 2487.611502266645 110 0.014751053964 26.63788372064 718.7595146486 8935.6435860231
10	62460 782 231 1200 451.986862219571 2475.119593842137 28 13 40 742 21490
11	63242 20 1212 1212 2500 2500 1 0.1088 0.1088 0.1088 0.01183744
12	63262 20 1212 1212 2500 2500 1 0.0524 0.0524 0.0524 0.00274576

