version 2
run experiments_easy_game_mode1-931-20230308-12:05:11-23436
attr configname experiments_easy_game_mode1
attr datetime 20230308-12:05:11
attr experiment experiments_easy_game_mode1
attr inifile omnetpp.ini
attr iterationvars "$0=6, $1=2.5, $2=100"
attr iterationvarsf 6,2.5,100-
attr measurement "$0=6, $1=2.5, $2=100"
attr network Network
attr processid 23436
attr repetition 1
attr replication #1
attr resultdir results
attr runnumber 931
attr seedset 1
param *.boss.arrival_mean 20
param *.boss.service_mean 6
param *.minion.arrival_mean 10
param *.minion.service_mean 2.5
param *.player.recover_rate_x 100
param **.minion.arrival_distribution 0
param **.minion.service_distribution 0
param **.boss.arrival_distribution 0
param **.boss.service_distribution 0

vector 0 Network.player minion_jobs_number_stat:vector ETV
attr source signal_minion_jobs_number
vector 1 Network.player minion_jobs_queue_number_stat:vector ETV
attr source signal_minion_jobs_queue_number
vector 2 Network.player minion_waiting_time_stat:vector ETV
attr source signal_minion_waiting_time
vector 3 Network.player minion_defeated_stat:vector ETV
attr source signal_minion_defeated
vector 4 Network.player minion_response_time_stat:vector ETV
attr source signal_minion_response_time
vector 5 Network.player boss_jobs_number_stat:vector ETV
attr source signal_boss_jobs_number
vector 6 Network.player boss_jobs_queue_number_stat:vector ETV
attr source signal_boss_jobs_queue_number
vector 7 Network.player minion_recovered_stat:vector ETV
attr source signal_minion_recovered
vector 8 Network.player boss_waiting_time_stat:vector ETV
attr source signal_boss_waiting_time
vector 9 Network.player boss_defeated_stat:vector ETV
attr source signal_boss_defeated
vector 10 Network.player boss_response_time_stat:vector ETV
attr source signal_boss_response_time
vector 11 Network.player minion_throughput:vector ETV
attr source signal_minion_throughput
vector 12 Network.player boss_throughput:vector ETV
attr source signal_boss_throughput
0	134	354.557151855681	1
0	137	363.823894831212	1
0	139	365.613274632813	2
0	144	370.585233872072	2
0	149	379.681710898725	1
0	152	396.392065199602	1
0	154	396.482332329256	2
0	160	405.963380670505	1
0	164	410.850292778012	1
0	167	413.949212177533	1
0	169	414.400860177836	2
0	174	424.726697612854	3
0	182	456.111867721576	1
0	187	472.775236854993	1
0	189	478.504847620427	2
0	191	478.696928021011	3
0	206	508.451775855767	1
0	208	508.857708167273	2
0	217	524.28980936815	1
0	224	553.294729384193	1
0	229	573.415496850299	1
0	233	579.327708019238	1
0	235	581.229214307217	2
0	239	587.051509254189	1
0	241	587.830568865482	2
0	243	588.51024789307	3
0	248	597.69174064835	1
0	251	599.625904239714	1
0	253	601.464798297421	2
0	257	621.555207288251	1
0	260	634.774522045433	1
0	263	653.323311617842	1
0	266	658.573298451177	1
0	272	684.49641219479	1
0	274	692.002243623595	2
0	280	712.428054766382	1
0	284	740.165402144317	1
0	292	758.199070333875	1
0	296	765.574160589746	1
0	300	768.598356354349	2
0	302	769.743416064392	3
0	304	770.107547801784	4
0	307	771.829954097869	5
0	310	774.42754541804	5
0	314	782.306578941402	4
0	318	784.678757195726	3
0	325	792.11062420985	1
0	327	794.103925195273	2
0	329	804.254275049714	3
0	333	808.053947914704	3
0	337	813.187159306011	2
0	340	815.945202965973	2
0	344	826.437857566554	1
0	346	831.143790537557	2
0	350	836.200513181557	3
0	352	846.215295774186	4
0	357	855.994726423543	3
0	360	858.518294259223	3
0	368	873.102858222541	1
0	370	874.596576772936	2
0	372	876.56858066659	3
0	377	885.172340007252	1
0	380	889.881592834636	1
0	383	894.21520461275	1
0	389	901.197466405341	1
0	392	907.503892790405	1
0	399	919.108782958971	1
0	402	923.552397120488	2
0	405	926.478400633381	3
0	407	927.346722870158	4
0	411	935.437711264658	5
0	417	938.35340222437	3
0	422	948.159850924412	1
0	424	948.645510515757	2
0	432	971.23130375891	1
0	440	997.739497752726	1
0	443	1002.247055797812	1
0	448	1004.940780636881	1
0	452	1015.089663101238	1
0	457	1031.744717209477	1
0	459	1033.869800367338	2
0	461	1035.218628114189	3
0	464	1042.10607936867	4
0	468	1042.89333419035	3
0	472	1044.907710098221	2
0	478	1056.478227078671	1
0	484	1081.535408919244	1
0	493	1110.924019657824	2
0	497	1116.577226252923	1
0	502	1120.370427437659	1
0	512	1138.101066537554	1
0	515	1158.997769375823	1
0	517	1164.389614103138	2
0	521	1176.368381827385	1
0	530	1199.872236254162	1
0	534	1204.278596782078	2
0	539	1209.467598345595	3
0	548	1232.961859612421	1
0	551	1236.984180589291	1
0	553	1241.706954241873	2
0	560	1250.196517913514	1
0	563	1268.951555771959	1
0	571	1287.623521008735	1
0	575	1300.845123160787	1
0	578	1320.578965987141	1
0	581	1332.584785782388	1
0	584	1341.640472899657	1
0	587	1352.712257866263	1
0	589	1353.596872460635	2
0	593	1354.430462899995	1
0	596	1363.525267817574	1
0	598	1363.98202022208	2
0	602	1366.79840673552	1
0	604	1367.798799028257	2
0	608	1380.988650301259	1
0	611	1383.440373029984	1
0	619	1405.945167179226	1
0	626	1422.396675441742	1
0	629	1429.627255756317	1
0	631	1430.685088772856	2
0	635	1439.937483048556	1
0	639	1440.601567088654	2
0	641	1441.274379830186	3
0	650	1470.089611214683	1
0	653	1477.856523929648	1
0	656	1479.634303538207	1
0	659	1481.017581247421	1
0	664	1489.97936585555	1
0	667	1499.513136980461	2
0	674	1529.541644465283	1
0	679	1534.061715485615	1
0	683	1538.630925993558	1
0	686	1553.230681240834	1
0	688	1553.449239273142	2
0	690	1553.946754001386	3
0	694	1561.300505661371	4
0	696	1562.463800429604	5
0	698	1566.131236080638	6
0	702	1577.652101419888	6
0	711	1595.558615324041	3
0	715	1602.787541439405	2
0	719	1629.290346216222	1
0	722	1637.768291493497	1
0	725	1639.148682106153	1
0	731	1657.708909622613	1
0	734	1675.495492245268	1
0	737	1682.1846757928	1
0	744	1697.637724245331	1
0	749	1714.252640392117	1
0	752	1725.952996459446	1
0	758	1733.091468649534	1
0	764	1743.602300963212	1
0	773	1769.737070293725	1
0	779	1797.429649869354	1
0	782	1808.423608925901	1
0	786	1811.117469180127	2
0	788	1812.727691339913	3
0	794	1819.29507133408	1
0	798	1823.829339928366	2
0	806	1850.05842958545	1
0	814	1870.140801328938	1
0	816	1872.093750590139	2
0	819	1876.405968623866	3
0	821	1878.066848027262	4
0	824	1880.162037838015	4
0	833	1914.482613606068	1
0	835	1920.880977758516	2
0	838	1924.746660298332	2
0	842	1929.7353207484	1
0	845	1951.433106009163	1
0	848	1961.080825932835	1
0	851	1968.963691792235	1
0	854	1974.704298001108	1
0	857	1979.34222648922	1
0	860	1982.36574677823	1
0	862	1983.838293113229	2
0	867	1989.156610482477	3
0	869	1990.350194517302	4
0	874	1995.780825651345	4
0	876	1996.531113902884	5
0	884	2019.802131646665	4
0	886	2021.949410744452	5
0	895	2060.879589853667	1
0	897	2060.908898717302	2
0	904	2070.679099586889	1
0	908	2091.617982071237	1
0	910	2092.486468161446	2
0	919	2120.154046587702	1
0	927	2133.359064701743	1
0	929	2140.34363870594	2
0	934	2151.696984518615	3
0	941	2165.460219418262	4
0	948	2182.948533678196	3
0	953	2189.646182425831	3
0	955	2193.914878067786	4
0	957	2193.954164107906	5
0	959	2194.561011312908	6
0	962	2200.766102351387	7
0	966	2210.22901050779	6
0	969	2211.800957408794	6
0	972	2213.125016198576	6
0	975	2216.818198176185	6
0	985	2231.069777978458	2
0	989	2245.062037414236	1
0	995	2260.881398963393	1
0	1001	2274.961049532209	1
0	1005	2280.214129127697	2
0	1018	2305.165130442435	1
0	1025	2333.953071763477	1
0	1034	2360.789919575655	1
0	1037	2362.698859064813	1
0	1039	2363.643523370556	2
0	1046	2392.218169230268	1
0	1048	2394.39108518217	2
0	1054	2400.655127529596	2
0	1060	2408.898363050178	3
0	1068	2423.295046423066	3
0	1070	2423.399860528197	4
0	1075	2437.376253249859	5
0	1078	2439.988562019943	5
0	1088	2479.732826589049	1
0	1090	2480.108407740282	2
1	134	354.557151855681	0
1	135	354.988010212333	0
1	137	363.823894831212	0
1	139	365.613274632813	1
1	140	367.437653693906	1
1	144	370.585233872072	1
1	146	378.12363020478	1
1	147	378.417496270199	0
1	149	379.681710898725	0
1	150	380.48252182178	0
1	152	396.392065199602	0
1	154	396.482332329256	1
1	155	396.962941503147	1
1	156	398.300033093933	0
1	160	405.963380670505	0
1	162	409.077257395656	0
1	164	410.850292778012	0
1	165	411.728018954802	0
1	167	413.949212177533	0
1	169	414.400860177836	1
1	174	424.726697612854	2
1	175	425.088315708701	2
1	176	429.702066444783	1
1	177	431.556205165862	0
1	182	456.111867721576	0
1	183	458.279653902308	0
1	187	472.775236854993	0
1	189	478.504847620427	1
1	191	478.696928021011	2
1	196	485.132665963085	2
1	197	488.423384559096	1
1	198	490.109394803045	0
1	206	508.451775855767	0
1	208	508.857708167273	1
1	209	509.224275486798	1
1	210	509.260995722956	0
1	217	524.28980936815	0
1	219	528.761053008641	0
1	224	553.294729384193	0
1	225	553.539762304426	0
1	229	573.415496850299	0
1	231	575.121376605637	0
1	233	579.327708019238	0
1	235	581.229214307217	1
1	236	583.707434073908	1
1	237	584.699554704639	0
1	239	587.051509254189	0
1	241	587.830568865482	1
1	243	588.51024789307	2
1	244	591.533300242239	2
1	245	591.922492378734	1
1	246	597.496084991993	0
1	248	597.69174064835	0
1	249	598.14438510257	0
1	251	599.625904239714	0
1	253	601.464798297421	1
1	254	607.55192205565	1
1	255	615.857693202351	0
1	257	621.555207288251	0
1	258	623.615267506405	0
1	260	634.774522045433	0
1	261	642.835922032726	0
1	263	653.323311617842	0
1	264	653.560596173901	0
1	266	658.573298451177	0
1	267	659.095212753318	0
1	272	684.49641219479	0
1	274	692.002243623595	1
1	275	698.293145496156	1
1	276	698.354662597259	0
1	280	712.428054766382	0
1	282	718.094625974451	0
1	284	740.165402144317	0
1	285	740.73753779065	0
1	292	758.199070333875	0
1	294	761.893862121013	0
1	296	765.574160589746	0
1	300	768.598356354349	1
1	302	769.743416064392	2
1	304	770.107547801784	3
1	307	771.829954097869	4
1	308	772.944600266556	4
1	310	774.42754541804	4
1	311	777.579356629492	4
1	312	781.35916593074	3
1	314	782.306578941402	3
1	315	783.752760587652	3
1	316	783.81076095062	2
1	318	784.678757195726	2
1	319	785.881389075609	2
1	320	788.036267524528	1
1	321	789.184073930471	0
1	325	792.11062420985	0
1	327	794.103925195273	1
1	329	804.254275049714	2
1	331	805.735153418988	2
1	333	808.053947914704	2
1	334	808.67063182024	2
1	335	810.482085094153	1
1	337	813.187159306011	1
1	338	814.71641321728	1
1	340	815.945202965973	1
1	341	817.269119306364	1
1	342	823.766329322044	0
1	344	826.437857566554	0
1	346	831.143790537557	1
1	350	836.200513181557	2
1	352	846.215295774186	3
1	354	847.682693600454	3
1	355	855.767371683006	2
1	357	855.994726423543	2
1	358	856.517087604433	2
1	360	858.518294259223	2
1	361	859.704502984973	2
1	362	863.759505317392	1
1	366	868.531039776144	0
1	368	873.102858222541	0
1	370	874.596576772936	1
1	372	876.56858066659	2
1	373	878.21271781633	2
1	374	878.769843689547	1
1	375	885.171601988687	0
1	377	885.172340007252	0
1	378	888.154633140129	0
1	380	889.881592834636	0
1	381	889.887134510209	0
1	383	894.21520461275	0
1	384	896.356804644753	0
1	389	901.197466405341	0
1	390	902.782249917931	0
1	392	907.503892790405	0
1	393	909.670986416698	0
1	399	919.108782958971	0
1	402	923.552397120488	1
1	405	926.478400633381	2
1	407	927.346722870158	3
1	411	935.437711264658	4
1	413	936.40416153138	4
1	414	937.676832811004	3
1	415	938.164578271313	2
1	417	938.35340222437	2
1	418	938.72743745927	2
1	419	942.928865805936	1
1	420	943.973445521422	0
1	422	948.159850924412	0
1	424	948.645510515757	1
1	425	950.136511138446	1
1	426	952.482229521585	0
1	432	971.23130375891	0
1	435	992.942466291641	0
1	440	997.739497752726	0
1	441	998.283255708979	0
1	443	1002.247055797812	0
1	444	1003.905692199028	0
1	448	1004.940780636881	0
1	450	1005.747531964485	0
1	452	1015.089663101238	0
1	453	1015.163522370448	0
1	457	1031.744717209477	0
1	459	1033.869800367338	1
1	461	1035.218628114189	2
1	464	1042.10607936867	3
1	465	1042.535222020346	3
1	466	1042.761472075044	2
1	468	1042.89333419035	2
1	469	1043.692684238405	2
1	470	1043.988105858625	1
1	472	1044.907710098221	1
1	473	1045.595746079592	1
1	474	1046.319105091295	0
1	478	1056.478227078671	0
1	480	1059.6565639237	0
1	484	1081.535408919244	0
1	493	1110.924019657824	1
1	494	1115.078195237742	1
1	495	1115.883341106838	0
1	497	1116.577226252923	0
1	498	1119.074818282855	0
1	502	1120.370427437659	0
1	510	1130.798367236066	0
1	512	1138.101066537554	0
1	513	1142.342101542927	0
1	515	1158.997769375823	0
1	517	1164.389614103138	1
1	518	1166.16187848017	1
1	519	1168.249127734746	0
1	521	1176.368381827385	0
1	522	1177.552506042201	0
1	530	1199.872236254162	0
1	534	1204.278596782078	1
1	539	1209.467598345595	2
1	541	1210.429581270759	2
1	542	1211.640456843912	1
1	546	1219.997218247508	0
1	548	1232.961859612421	0
1	549	1233.860707085106	0
1	551	1236.984180589291	0
1	553	1241.706954241873	1
1	554	1243.516574591763	1
1	555	1244.059263907245	0
1	560	1250.196517913514	0
1	561	1256.290433616611	0
1	563	1268.951555771959	0
1	567	1273.667299873724	0
1	571	1287.623521008735	0
1	573	1292.917574535375	0
1	575	1300.845123160787	0
1	576	1307.398728639172	0
1	578	1320.578965987141	0
1	579	1320.826315397655	0
1	581	1332.584785782388	0
1	582	1335.466660530231	0
1	584	1341.640472899657	0
1	585	1342.760289391144	0
1	587	1352.712257866263	0
1	589	1353.596872460635	1
1	590	1354.092269908751	1
1	591	1354.182656941885	0
1	593	1354.430462899995	0
1	594	1356.519264633322	0
1	596	1363.525267817574	0
1	598	1363.98202022208	1
1	599	1365.501387112406	1
1	600	1366.106499844448	0
1	602	1366.79840673552	0
1	604	1367.798799028257	1
1	605	1370.774244644749	1
1	606	1371.201307713588	0
1	608	1380.988650301259	0
1	609	1381.119892724894	0
1	611	1383.440373029984	0
1	615	1392.307848208998	0
1	619	1405.945167179226	0
1	624	1412.559329984627	0
1	626	1422.396675441742	0
1	627	1427.058391822751	0
1	629	1429.627255756317	0
1	631	1430.685088772856	1
1	632	1430.764463135407	1
1	633	1433.344292828527	0
1	635	1439.937483048556	0
1	639	1440.601567088654	1
1	641	1441.274379830186	2
1	643	1458.938570748912	2
1	644	1459.298941766575	1
1	648	1467.736115683476	0
1	650	1470.089611214683	0
1	651	1470.575765931667	0
1	653	1477.856523929648	0
1	654	1478.94155168459	0
1	656	1479.634303538207	0
1	657	1480.594301159943	0
1	659	1481.017581247421	0
1	660	1483.563927611195	0
1	664	1489.97936585555	0
1	667	1499.513136980461	1
1	668	1499.870973162969	1
1	669	1501.571131305514	0
1	674	1529.541644465283	0
1	675	1530.18399382206	0
1	679	1534.061715485615	0
1	681	1537.36024369569	0
1	683	1538.630925993558	0
1	684	1544.164804676477	0
1	686	1553.230681240834	0
1	688	1553.449239273142	1
1	690	1553.946754001386	2
1	694	1561.300505661371	3
1	696	1562.463800429604	4
1	698	1566.131236080638	5
1	700	1576.158674611917	5
1	702	1577.652101419888	5
1	703	1583.344235551709	5
1	704	1586.38749761097	4
1	705	1586.60986262601	3
1	706	1586.905955691646	2
1	711	1595.558615324041	2
1	712	1598.657386555912	2
1	713	1599.780178999574	1
1	715	1602.787541439405	1
1	716	1612.756635662762	1
1	717	1613.818363091151	0
1	719	1629.290346216222	0
1	720	1630.37779912547	0
1	722	1637.768291493497	0
1	723	1638.033991821878	0
1	725	1639.148682106153	0
1	726	1640.803095538066	0
1	731	1657.708909622613	0
1	732	1658.917783276086	0
1	734	1675.495492245268	0
1	735	1678.883742509487	0
1	737	1682.1846757928	0
1	738	1683.969861344494	0
1	744	1697.637724245331	0
1	747	1711.033820841669	0
1	749	1714.252640392117	0
1	750	1722.369741487663	0
1	752	1725.952996459446	0
1	753	1726.042472481391	0
1	758	1733.091468649534	0
1	759	1734.252566979127	0
1	764	1743.602300963212	0
1	765	1744.01644327937	0
1	773	1769.737070293725	0
1	774	1769.768186665026	0
1	779	1797.429649869354	0
1	780	1798.400052286211	0
1	782	1808.423608925901	0
1	786	1811.117469180127	1
1	788	1812.727691339913	2
1	790	1818.024410037779	2
1	791	1818.336923465147	1
1	792	1818.631380039001	0
1	794	1819.29507133408	0
1	798	1823.829339928366	1
1	800	1825.442179939683	1
1	801	1827.069023472974	0
1	806	1850.05842958545	0
1	807	1853.048427542868	0
1	814	1870.140801328938	0
1	816	1872.093750590139	1
1	819	1876.405968623866	2
1	821	1878.066848027262	3
1	822	1879.862194620603	3
1	824	1880.162037838015	3
1	825	1883.790639783603	3
1	826	1885.59830542536	2
1	827	1887.075549728241	1
1	828	1888.554770616148	0
1	833	1914.482613606068	0
1	835	1920.880977758516	1
1	836	1923.312119684253	1
1	838	1924.746660298332	1
1	839	1927.341676801771	1
1	840	1929.128694585068	0
1	842	1929.7353207484	0
1	843	1929.786826133163	0
1	845	1951.433106009163	0
1	846	1953.097417406819	0
1	848	1961.080825932835	0
1	849	1963.206022366897	0
1	851	1968.963691792235	0
1	852	1969.100922047782	0
1	854	1974.704298001108	0
1	855	1976.029249534202	0
1	857	1979.34222648922	0
1	858	1980.049237733523	0
1	860	1982.36574677823	0
1	862	1983.838293113229	1
1	867	1989.156610482477	2
1	869	1990.350194517302	3
1	870	1990.65444869082	3
1	874	1995.780825651345	3
1	876	1996.531113902884	4
1	881	2016.397347618659	4
1	882	2018.866121375833	3
1	884	2019.802131646665	3
1	886	2021.949410744452	4
1	887	2028.248322061766	4
1	888	2028.387003674053	3
1	889	2031.833072585081	2
1	890	2032.361350206711	1
1	891	2043.355985306677	0
1	895	2060.879589853667	0
1	897	2060.908898717302	1
1	899	2062.742901482881	1
1	900	2064.971511179908	0
1	904	2070.679099586889	0
1	906	2077.849169564785	0
1	908	2091.617982071237	0
1	910	2092.486468161446	1
1	911	2093.382934122175	1
1	915	2097.780331228801	0
1	919	2120.154046587702	0
1	921	2122.081254234789	0
1	927	2133.359064701743	0
1	929	2140.34363870594	1
1	934	2151.696984518615	2
1	941	2165.460219418262	3
1	945	2178.084537476969	3
1	946	2180.218258559632	2
1	948	2182.948533678196	2
1	949	2186.578962891873	2
1	953	2189.646182425831	2
1	955	2193.914878067786	3
1	957	2193.954164107906	4
1	959	2194.561011312908	5
1	962	2200.766102351387	6
1	963	2204.998609744483	6
1	964	2206.984076331907	5
1	966	2210.22901050779	5
1	967	2211.41713976999	5
1	969	2211.800957408794	5
1	970	2212.7264345881	5
1	972	2213.125016198576	5
1	973	2213.416051125005	5
1	975	2216.818198176185	5
1	976	2219.137045493467	5
1	977	2223.96397294204	4
1	978	2224.966112022324	3
1	979	2225.350786905093	2
1	980	2225.566693773813	1
1	985	2231.069777978458	1
1	986	2232.045262546086	1
1	987	2233.915419909154	0
1	989	2245.062037414236	0
1	990	2251.840053384935	0
1	995	2260.881398963393	0
1	996	2263.584639572516	0
1	1001	2274.961049532209	0
1	1005	2280.214129127697	1
1	1007	2282.111477040299	1
1	1008	2287.698426245438	0
1	1018	2305.165130442435	0
1	1020	2311.012627296743	0
1	1025	2333.953071763477	0
1	1026	2342.345368620805	0
1	1034	2360.789919575655	0
1	1035	2361.116096914229	0
1	1037	2362.698859064813	0
1	1039	2363.643523370556	1
1	1040	2366.372317285231	1
1	1041	2368.69645625085	0
1	1046	2392.218169230268	0
1	1048	2394.39108518217	1
1	1049	2395.77659346854	1
1	1054	2400.655127529596	1
1	1060	2408.898363050178	2
1	1063	2414.979774164528	2
1	1068	2423.295046423066	2
1	1070	2423.399860528197	3
1	1075	2437.376253249859	4
1	1076	2437.41569137377	4
1	1078	2439.988562019943	4
1	1079	2440.438597247897	4
1	1080	2441.194863033881	3
1	1084	2456.211564960014	2
1	1085	2458.481943613035	1
1	1086	2458.63184463142	0
1	1088	2479.732826589049	0
1	1090	2480.108407740282	1
1	1094	2486.09582318377	1
1	1095	2495.167620587084	0
2	134	354.557151855681	0
2	137	363.823894831212	0
2	140	367.437653693906	1.824379061093
2	145	373.532728548564	4.157473231292
2	146	378.12363020478	7.538396332708
2	149	379.681710898725	0
2	152	396.392065199602	0
2	155	396.962941503147	0.480609173891
2	161	408.760242648329	2.796861977824
2	164	410.850292778012	0
2	167	413.949212177533	0
2	172	422.610861457018	8.210001279182
2	175	425.088315708701	9.2996396169
2	176	429.702066444783	4.975368831929
2	182	456.111867721576	0
2	192	480.316730593902	7.541493738909
2	195	482.842381605759	4.337533985332
2	196	485.132665963085	6.435737942074
2	197	488.423384559096	7.99138871894
2	206	508.451775855767	0
2	209	509.224275486798	0.366567319525
2	218	527.923469235577	3.633659867427
2	224	553.294729384193	0
2	230	574.390182052135	0.974685201836
2	233	579.327708019238	0
2	236	583.707434073908	2.478219766691
2	239	587.051509254189	0
2	244	591.533300242239	3.702731376757
2	245	591.922492378734	3.412244485664
2	248	597.69174064835	0
2	251	599.625904239714	0
2	254	607.55192205565	6.087123758229
2	257	621.555207288251	0
2	260	634.774522045433	0
2	263	653.323311617842	0
2	266	658.573298451177	0
2	272	684.49641219479	0
2	275	698.293145496156	6.290901872561
2	281	716.472270417634	4.044215651252
2	284	740.165402144317	0
2	293	759.006575221405	0.80750488753
2	296	765.574160589746	0
2	305	770.730629714038	3.610237288822
2	308	772.944600266556	4.346243912207
2	311	777.579356629492	7.8359405651
2	312	781.35916593074	11.251618128956
2	315	783.752760587652	11.922806489783
2	316	783.81076095062	9.38321553258
2	319	785.881389075609	3.574810134207
2	320	788.036267524528	3.357510328802
2	330	805.731044619066	13.620420409216
2	331	805.735153418988	11.631228223715
2	334	808.67063182024	4.416356770526
2	335	810.482085094153	2.428137179449
2	338	814.71641321728	1.529253911269
2	341	817.269119306364	1.323916340391
2	344	826.437857566554	0
2	353	847.668314676681	16.524524139124
2	354	847.682693600454	16.074213440609
2	355	855.767371683006	19.566858501449
2	358	856.517087604433	10.301791830247
2	361	859.704502984973	3.70977656143
2	362	863.759505317392	5.241211058169
2	365	865.797690153552	1.827616744377
2	368	873.102858222541	0
2	373	878.21271781633	3.616141043394
2	374	878.769843689547	2.201263022957
2	377	885.172340007252	0
2	380	889.881592834636	0
2	383	894.21520461275	0
2	389	901.197466405341	0
2	392	907.503892790405	0
2	403	924.786861598966	5.678078639995
2	412	936.237457766188	12.6850606457
2	413	936.40416153138	9.925760897999
2	414	937.676832811004	10.330109940846
2	415	938.164578271313	3.692493738885
2	418	938.72743745927	3.289726194612
2	419	942.928865805936	4.575463581566
2	422	948.159850924412	0
2	425	950.136511138446	1.491000622689
2	434	989.258975485873	18.027671726963
2	440	997.739497752726	0
2	443	1002.247055797812	0
2	449	1005.423545601315	0.482764964434
2	452	1015.089663101238	0
2	462	1035.714098039197	3.96938082972
2	465	1042.535222020346	8.665421653008
2	466	1042.761472075044	7.542843960855
2	469	1043.692684238405	1.586604869735
2	470	1043.988105858625	1.094771668275
2	473	1045.595746079592	0.688035981371
2	479	1059.495986691178	3.017759612507
2	491	1106.703220066303	25.167811147059
2	494	1115.078195237742	4.154175579918
2	497	1116.577226252923	0
2	509	1130.157946247366	9.787518809707
2	512	1138.101066537554	0
2	515	1158.997769375823	0
2	518	1166.16187848017	1.772264377032
2	521	1176.368381827385	0
2	530	1199.872236254162	0
2	540	1210.200186493487	7.923295746795
2	541	1210.429581270759	6.150984488681
2	542	1211.640456843912	2.172858498317
2	545	1215.867182327111	3.783884080513
2	548	1232.961859612421	0
2	551	1236.984180589291	0
2	554	1243.516574591763	1.80962034989
2	560	1250.196517913514	0
2	563	1268.951555771959	0
2	566	1273.651466709896	1.375340164421
2	572	1288.562853887181	0.939332878446
2	575	1300.845123160787	0
2	578	1320.578965987141	0
2	581	1332.584785782388	0
2	584	1341.640472899657	0
2	587	1352.712257866263	0
2	590	1354.092269908751	0.495397448116
2	593	1354.430462899995	0
2	596	1363.525267817574	0
2	599	1365.501387112406	1.519366890326
2	602	1366.79840673552	0
2	605	1370.774244644749	2.975445616492
2	608	1380.988650301259	0
2	611	1383.440373029984	0
2	614	1391.681483838542	4.049084577639
2	620	1409.118913672285	3.173746493059
2	623	1412.110893656107	2.794967172102
2	626	1422.396675441742	0
2	629	1429.627255756317	0
2	632	1430.764463135407	0.079374362551
2	635	1439.937483048556	0
2	642	1458.428622185384	18.126097025347
2	643	1458.938570748912	18.337003660258
2	644	1459.298941766575	18.024561936389
2	647	1466.448941538257	3.893646803184
2	650	1470.089611214683	0
2	653	1477.856523929648	0
2	656	1479.634303538207	0
2	659	1481.017581247421	0
2	665	1492.059295781577	2.079929926027
2	668	1499.870973162969	0.357836182508
2	674	1529.541644465283	0
2	680	1535.170573202428	1.108857716813
2	683	1538.630925993558	0
2	686	1553.230681240834	0
2	699	1569.416094424424	15.966855151282
2	700	1576.158674611917	22.211920610531
2	703	1583.344235551709	24.846058213166
2	704	1586.38749761097	25.086991949599
2	705	1586.60986262601	24.146062196406
2	706	1586.905955691646	20.774719611008
2	709	1594.019760224002	16.367658804114
2	712	1598.657386555912	8.186651333863
2	713	1599.780178999574	4.221563675533
2	716	1612.756635662762	9.969094223357
2	719	1629.290346216222	0
2	722	1637.768291493497	0
2	725	1639.148682106153	0
2	731	1657.708909622613	0
2	734	1675.495492245268	0
2	737	1682.1846757928	0
2	746	1709.867698733043	12.229974487712
2	749	1714.252640392117	0
2	752	1725.952996459446	0
2	758	1733.091468649534	0
2	764	1743.602300963212	0
2	773	1769.737070293725	0
2	779	1797.429649869354	0
2	782	1808.423608925901	0
2	789	1813.624697345306	3.618116209066
2	790	1818.024410037779	6.906940857652
2	791	1818.336923465147	5.609232125234
2	794	1819.29507133408	0
2	799	1824.588501197051	4.754293955249
2	800	1825.442179939683	1.612840011317
2	806	1850.05842958545	0
2	817	1875.119727454448	4.97892612551
2	822	1879.862194620603	7.768444030464
2	825	1883.790639783603	7.384671159737
2	826	1885.59830542536	7.531457398098
2	827	1887.075549728241	6.913511890226
2	833	1914.482613606068	0
2	836	1923.312119684253	2.431141925737
2	839	1927.341676801771	2.595016503439
2	842	1929.7353207484	0
2	845	1951.433106009163	0
2	848	1961.080825932835	0
2	851	1968.963691792235	0
2	854	1974.704298001108	0
2	857	1979.34222648922	0
2	860	1982.36574677823	0
2	865	1987.128733739562	3.290440626333
2	870	1990.65444869082	6.30127226512
2	880	2012.356172050053	23.199561567576
2	881	2016.397347618659	26.047153101357
2	882	2018.866121375833	25.426350741678
2	887	2028.248322061766	32.467496410421
2	888	2028.387003674053	31.855889771169
2	889	2031.833072585081	12.030940938416
2	890	2032.361350206711	10.411939462259
2	898	2061.237289987611	0.357700133944
2	899	2062.742901482881	1.834002765579
2	905	2074.814599264897	4.135499678008
2	908	2091.617982071237	0
2	911	2093.382934122175	0.896465960729
2	914	2096.796125237238	3.255520553637
2	920	2121.468794396419	1.314747808717
2	944	2176.96888535555	43.609820653807
2	945	2178.084537476969	37.740898771029
2	946	2180.218258559632	28.521274041017
2	949	2186.578962891873	21.118743473611
2	960	2197.320825971369	14.372292293173
2	963	2204.998609744483	15.786101637043
2	964	2206.984076331907	17.337893906076
2	967	2211.41713976999	17.502261702204
2	970	2212.7264345881	18.772270480194
2	973	2213.416051125005	18.855039812097
2	976	2219.137045493467	18.37094314208
2	977	2223.96397294204	13.73496243425
2	978	2224.966112022324	13.16515461353
2	979	2225.350786905093	12.225770706517
2	980	2225.566693773813	8.748495597628
2	983	2230.154369015752	2.142956769166
2	986	2232.045262546086	0.975484567628
2	989	2245.062037414236	0
2	995	2260.881398963393	0
2	1001	2274.961049532209	0
2	1006	2280.480633000732	3.335498343349
2	1007	2282.111477040299	1.897347912602
2	1019	2310.670065361896	5.504934919461
2	1025	2333.953071763477	0
2	1034	2360.789919575655	0
2	1037	2362.698859064813	0
2	1040	2366.372317285231	2.728793914675
2	1046	2392.218169230268	0
2	1049	2395.77659346854	1.38550828637
2	1052	2398.97702002172	0.00856738967
2	1062	2411.884665466817	11.229537937221
2	1063	2414.979774164528	10.278285048347
2	1066	2422.441897161037	13.543534110859
2	1073	2434.425592283015	15.457265368994
2	1076	2437.41569137377	14.120644950704
2	1079	2440.438597247897	17.0387367197
2	1080	2441.194863033881	14.184000089665
2	1083	2452.566214809497	15.189961559638
2	1084	2456.211564960014	16.223002940071
2	1085	2458.481943613035	15.048015019363
2	1088	2479.732826589049	0
2	1093	2485.079602460126	4.971194719844
2	1094	2486.09582318377	5.474603086978
3	135	354.988010212333	27
3	140	367.437653693906	28
3	146	378.12363020478	29
3	147	378.417496270199	30
3	150	380.48252182178	31
3	155	396.962941503147	32
3	156	398.300033093933	33
3	162	409.077257395656	34
3	165	411.728018954802	35
3	175	425.088315708701	36
3	176	429.702066444783	37
3	177	431.556205165862	38
3	183	458.279653902308	39
3	196	485.132665963085	40
3	197	488.423384559096	41
3	198	490.109394803045	42
3	209	509.224275486798	43
3	210	509.260995722956	44
3	219	528.761053008641	45
3	225	553.539762304426	46
3	231	575.121376605637	47
3	236	583.707434073908	48
3	237	584.699554704639	49
3	244	591.533300242239	50
3	245	591.922492378734	51
3	246	597.496084991993	52
3	249	598.14438510257	53
3	254	607.55192205565	54
3	255	615.857693202351	55
3	258	623.615267506405	56
3	261	642.835922032726	57
3	264	653.560596173901	58
3	267	659.095212753318	59
3	275	698.293145496156	60
3	276	698.354662597259	61
3	282	718.094625974451	62
3	285	740.73753779065	63
3	294	761.893862121013	64
3	308	772.944600266556	65
3	311	777.579356629492	66
3	312	781.35916593074	67
3	315	783.752760587652	68
3	316	783.81076095062	69
3	319	785.881389075609	70
3	320	788.036267524528	71
3	321	789.184073930471	72
3	331	805.735153418988	73
3	334	808.67063182024	74
3	335	810.482085094153	75
3	338	814.71641321728	76
3	341	817.269119306364	77
3	342	823.766329322044	78
3	354	847.682693600454	79
3	355	855.767371683006	80
3	358	856.517087604433	81
3	361	859.704502984973	82
3	362	863.759505317392	83
3	366	868.531039776144	84
3	373	878.21271781633	85
3	374	878.769843689547	86
3	375	885.171601988687	87
3	378	888.154633140129	88
3	381	889.887134510209	89
3	384	896.356804644753	90
3	390	902.782249917931	91
3	393	909.670986416698	92
3	413	936.40416153138	93
3	414	937.676832811004	94
3	415	938.164578271313	95
3	418	938.72743745927	96
3	419	942.928865805936	97
3	420	943.973445521422	98
3	425	950.136511138446	99
3	426	952.482229521585	100
3	435	992.942466291641	101
3	441	998.283255708979	102
3	444	1003.905692199028	103
3	450	1005.747531964485	104
3	453	1015.163522370448	105
3	465	1042.535222020346	106
3	466	1042.761472075044	107
3	469	1043.692684238405	108
3	470	1043.988105858625	109
3	473	1045.595746079592	110
3	474	1046.319105091295	111
3	480	1059.6565639237	112
3	494	1115.078195237742	113
3	495	1115.883341106838	114
3	498	1119.074818282855	115
3	510	1130.798367236066	116
3	513	1142.342101542927	117
3	518	1166.16187848017	118
3	519	1168.249127734746	119
3	522	1177.552506042201	120
3	541	1210.429581270759	121
3	542	1211.640456843912	122
3	546	1219.997218247508	123
3	549	1233.860707085106	124
3	554	1243.516574591763	125
3	555	1244.059263907245	126
3	561	1256.290433616611	127
3	567	1273.667299873724	128
3	573	1292.917574535375	129
3	576	1307.398728639172	130
3	579	1320.826315397655	131
3	582	1335.466660530231	132
3	585	1342.760289391144	133
3	590	1354.092269908751	134
3	591	1354.182656941885	135
3	594	1356.519264633322	136
3	599	1365.501387112406	137
3	600	1366.106499844448	138
3	605	1370.774244644749	139
3	606	1371.201307713588	140
3	609	1381.119892724894	141
3	615	1392.307848208998	142
3	624	1412.559329984627	143
3	627	1427.058391822751	144
3	632	1430.764463135407	145
3	633	1433.344292828527	146
3	643	1458.938570748912	147
3	644	1459.298941766575	148
3	648	1467.736115683476	149
3	651	1470.575765931667	150
3	654	1478.94155168459	151
3	657	1480.594301159943	152
3	660	1483.563927611195	153
3	668	1499.870973162969	154
3	669	1501.571131305514	155
3	675	1530.18399382206	156
3	681	1537.36024369569	157
3	684	1544.164804676477	158
3	700	1576.158674611917	159
3	703	1583.344235551709	160
3	704	1586.38749761097	161
3	705	1586.60986262601	162
3	706	1586.905955691646	163
3	712	1598.657386555912	164
3	713	1599.780178999574	165
3	716	1612.756635662762	166
3	717	1613.818363091151	167
3	720	1630.37779912547	168
3	723	1638.033991821878	169
3	726	1640.803095538066	170
3	732	1658.917783276086	171
3	735	1678.883742509487	172
3	738	1683.969861344494	173
3	747	1711.033820841669	174
3	750	1722.369741487663	175
3	753	1726.042472481391	176
3	759	1734.252566979127	177
3	765	1744.01644327937	178
3	774	1769.768186665026	179
3	780	1798.400052286211	180
3	790	1818.024410037779	181
3	791	1818.336923465147	182
3	792	1818.631380039001	183
3	800	1825.442179939683	184
3	801	1827.069023472974	185
3	807	1853.048427542868	186
3	822	1879.862194620603	187
3	825	1883.790639783603	188
3	826	1885.59830542536	189
3	827	1887.075549728241	190
3	828	1888.554770616148	191
3	836	1923.312119684253	192
3	839	1927.341676801771	193
3	840	1929.128694585068	194
3	843	1929.786826133163	195
3	846	1953.097417406819	196
3	849	1963.206022366897	197
3	852	1969.100922047782	198
3	855	1976.029249534202	199
3	858	1980.049237733523	200
3	870	1990.65444869082	201
3	881	2016.397347618659	202
3	882	2018.866121375833	203
3	887	2028.248322061766	204
3	888	2028.387003674053	205
3	889	2031.833072585081	206
3	890	2032.361350206711	207
3	891	2043.355985306677	208
3	899	2062.742901482881	209
3	900	2064.971511179908	210
3	906	2077.849169564785	211
3	911	2093.382934122175	212
3	915	2097.780331228801	213
3	921	2122.081254234789	214
3	945	2178.084537476969	215
3	946	2180.218258559632	216
3	949	2186.578962891873	217
3	963	2204.998609744483	218
3	964	2206.984076331907	219
3	967	2211.41713976999	220
3	970	2212.7264345881	221
3	973	2213.416051125005	222
3	976	2219.137045493467	223
3	977	2223.96397294204	224
3	978	2224.966112022324	225
3	979	2225.350786905093	226
3	980	2225.566693773813	227
3	986	2232.045262546086	228
3	987	2233.915419909154	229
3	990	2251.840053384935	230
3	996	2263.584639572516	231
3	1007	2282.111477040299	232
3	1008	2287.698426245438	233
3	1020	2311.012627296743	234
3	1026	2342.345368620805	235
3	1035	2361.116096914229	236
3	1040	2366.372317285231	237
3	1041	2368.69645625085	238
3	1049	2395.77659346854	239
3	1063	2414.979774164528	240
3	1076	2437.41569137377	241
3	1079	2440.438597247897	242
3	1080	2441.194863033881	243
3	1084	2456.211564960014	244
3	1085	2458.481943613035	245
3	1086	2458.63184463142	246
3	1094	2486.09582318377	247
3	1095	2495.167620587084	248
4	135	354.988010212333	0.430858356652
4	140	367.437653693906	3.613758862694
4	146	378.12363020478	8.748374887508
4	147	378.417496270199	7.832262398127
4	150	380.48252182178	0.800810923055
4	155	396.962941503147	0.570876303545
4	156	398.300033093933	1.817700764677
4	162	409.077257395656	3.113876725151
4	165	411.728018954802	0.87772617679
4	175	425.088315708701	10.687455530865
4	176	429.702066444783	13.913390352982
4	177	431.556205165862	6.829507553008
4	183	458.279653902308	2.167786180732
4	196	485.132665963085	6.627818342658
4	197	488.423384559096	9.726456538085
4	198	490.109394803045	9.677398962889
4	209	509.224275486798	0.772499631031
4	210	509.260995722956	0.403287555683
4	219	528.761053008641	4.471243640491
4	225	553.539762304426	0.245032920233
4	231	575.121376605637	1.705879755338
4	236	583.707434073908	4.37972605467
4	237	584.699554704639	3.470340397422
4	244	591.533300242239	4.48179098805
4	245	591.922492378734	4.091923513252
4	246	597.496084991993	8.985837098923
4	249	598.14438510257	0.45264445422
4	254	607.55192205565	7.926017815936
4	255	615.857693202351	14.39289490493
4	258	623.615267506405	2.060060218154
4	261	642.835922032726	8.061399987293
4	264	653.560596173901	0.237284556059
4	267	659.095212753318	0.521914302141
4	275	698.293145496156	13.796733301366
4	276	698.354662597259	6.352418973664
4	282	718.094625974451	5.666571208069
4	285	740.73753779065	0.572135646333
4	294	761.893862121013	3.694791787138
4	308	772.944600266556	5.82420784134
4	311	777.579356629492	8.981000275143
4	312	781.35916593074	11.615749866348
4	315	783.752760587652	13.645212785868
4	316	783.81076095062	11.980806852751
4	319	785.881389075609	11.453843657569
4	320	788.036267524528	5.729688583126
4	321	789.184073930471	4.505316734745
4	331	805.735153418988	13.624529209138
4	334	808.67063182024	14.566706624967
4	335	810.482085094153	6.227810044439
4	338	814.71641321728	6.662465302576
4	341	817.269119306364	4.081960000353
4	342	823.766329322044	7.821126356071
4	354	847.682693600454	16.538903062897
4	355	855.767371683006	24.158891523161
4	358	856.517087604433	20.316574422876
4	361	859.704502984973	13.489207210787
4	362	863.759505317392	7.764778893849
4	366	868.531039776144	4.560966366969
4	373	878.21271781633	5.109859593789
4	374	878.769843689547	4.173266916611
4	375	885.171601988687	8.603021322097
4	378	888.154633140129	2.982293132877
4	381	889.887134510209	0.005541675573
4	384	896.356804644753	2.141600032003
4	390	902.782249917931	1.58478351259
4	393	909.670986416698	2.167093626293
4	413	936.40416153138	12.851764410892
4	414	937.676832811004	11.198432177623
4	415	938.164578271313	10.817855401155
4	418	938.72743745927	4.255352926842
4	419	942.928865805936	7.491154541278
4	420	943.973445521422	5.620043297052
4	425	950.136511138446	1.976660214034
4	426	952.482229521585	3.836719005828
4	435	992.942466291641	21.711162532731
4	441	998.283255708979	0.543757956253
4	444	1003.905692199028	1.658636401216
4	450	1005.747531964485	0.806751327604
4	453	1015.163522370448	0.07385926921
4	465	1042.535222020346	10.790504810869
4	466	1042.761472075044	8.891671707706
4	469	1043.692684238405	8.474056124216
4	470	1043.988105858625	1.882026489955
4	473	1045.595746079592	2.702411889242
4	474	1046.319105091295	1.411394993074
4	480	1059.6565639237	3.178336845029
4	494	1115.078195237742	33.542786318498
4	495	1115.883341106838	4.959321449014
4	498	1119.074818282855	2.497592029932
4	510	1130.798367236066	10.427939798407
4	513	1142.342101542927	4.241035005373
4	518	1166.16187848017	7.164109104347
4	519	1168.249127734746	3.859513631608
4	522	1177.552506042201	1.184124214816
4	541	1210.429581270759	8.152690524067
4	542	1211.640456843912	7.361860061834
4	546	1219.997218247508	7.91392000091
4	549	1233.860707085106	0.898847472685
4	554	1243.516574591763	6.532394002472
4	555	1244.059263907245	2.352309665372
4	561	1256.290433616611	6.093915703097
4	567	1273.667299873724	1.391173328249
4	573	1292.917574535375	5.29405352664
4	576	1307.398728639172	6.553605478385
4	579	1320.826315397655	0.247349410514
4	582	1335.466660530231	2.881874747843
4	585	1342.760289391144	1.119816491487
4	590	1354.092269908751	1.380012042488
4	591	1354.182656941885	0.58578448125
4	594	1356.519264633322	2.088801733327
4	599	1365.501387112406	1.976119294832
4	600	1366.106499844448	2.124479622368
4	605	1370.774244644749	3.975837909229
4	606	1371.201307713588	3.402508685331
4	609	1381.119892724894	0.131242423635
4	615	1392.307848208998	4.675448948095
4	624	1412.559329984627	3.243403500622
4	627	1427.058391822751	4.661716381009
4	632	1430.764463135407	1.13720737909
4	633	1433.344292828527	2.659204055671
4	643	1458.938570748912	18.636045588875
4	644	1459.298941766575	18.697374677921
4	648	1467.736115683476	5.180820948403
4	651	1470.575765931667	0.486154716984
4	654	1478.94155168459	1.085027754942
4	657	1480.594301159943	0.959997621736
4	660	1483.563927611195	2.546346363774
4	668	1499.870973162969	9.891607307419
4	669	1501.571131305514	2.057994325053
4	675	1530.18399382206	0.642349356777
4	681	1537.36024369569	3.298528210075
4	684	1544.164804676477	5.533878682919
4	700	1576.158674611917	22.709435338775
4	703	1583.344235551709	29.397481550323
4	704	1586.38749761097	27.889320272427
4	705	1586.60986262601	25.309356964639
4	706	1586.905955691646	24.442155262042
4	712	1598.657386555912	21.005285136024
4	713	1599.780178999574	9.309443777525
4	716	1612.756635662762	17.198020338721
4	717	1613.818363091151	11.030821651746
4	720	1630.37779912547	1.087452909248
4	723	1638.033991821878	0.265700328381
4	726	1640.803095538066	1.654413431913
4	732	1658.917783276086	1.208873653473
4	735	1678.883742509487	3.388250264219
4	738	1683.969861344494	1.785185551694
4	747	1711.033820841669	13.396096596338
4	750	1722.369741487663	8.117101095546
4	753	1726.042472481391	0.089476021945
4	759	1734.252566979127	1.161098329593
4	765	1744.01644327937	0.414142316158
4	774	1769.768186665026	0.031116371301
4	780	1798.400052286211	0.970402416857
4	790	1818.024410037779	8.017828901539
4	791	1818.336923465147	7.21945428502
4	792	1818.631380039001	5.903688699088
4	800	1825.442179939683	5.607972697881
4	801	1827.069023472974	3.239683544608
4	807	1853.048427542868	2.989997957418
4	822	1879.862194620603	9.721393291665
4	825	1883.790639783603	11.696889193464
4	826	1885.59830542536	9.192336801494
4	827	1887.075549728241	9.008701700979
4	828	1888.554770616148	8.392732778133
4	836	1923.312119684253	8.829506078185
4	839	1927.341676801771	6.460699043255
4	840	1929.128694585068	4.382034286736
4	843	1929.786826133163	0.051505384763
4	846	1953.097417406819	1.664311397656
4	849	1963.206022366897	2.125196434062
4	852	1969.100922047782	0.137230255547
4	855	1976.029249534202	1.324951533094
4	858	1980.049237733523	0.707011244303
4	870	1990.65444869082	6.816155577591
4	881	2016.397347618659	27.240737136182
4	882	2018.866121375833	28.515926858531
4	887	2028.248322061766	34.808551427611
4	888	2028.387003674053	32.606178022708
4	889	2031.833072585081	35.301958682197
4	890	2032.361350206711	12.559218560046
4	891	2043.355985306677	21.406574562225
4	899	2062.742901482881	1.863311629214
4	900	2064.971511179908	4.062612462606
4	906	2077.849169564785	7.170069977896
4	911	2093.382934122175	1.764952050938
4	915	2097.780331228801	4.2397265452
4	921	2122.081254234789	1.927207647087
4	945	2178.084537476969	44.725472775226
4	946	2180.218258559632	39.874619853692
4	949	2186.578962891873	34.881978373258
4	963	2204.998609744483	22.050076066287
4	964	2206.984076331907	17.771568224467
4	967	2211.41713976999	21.770957344159
4	970	2212.7264345881	18.811556520314
4	973	2213.416051125005	19.461887017099
4	976	2219.137045493467	24.576034180559
4	977	2223.96397294204	23.197870590653
4	978	2224.966112022324	14.737101514534
4	979	2225.350786905093	13.549829496299
4	980	2225.566693773813	12.441677575237
4	986	2232.045262546086	4.0338502995
4	987	2233.915419909154	2.845641930696
4	990	2251.840053384935	6.778015970699
4	996	2263.584639572516	2.703240609123
4	1007	2282.111477040299	4.966342382916
4	1008	2287.698426245438	7.484297117741
4	1020	2311.012627296743	5.847496854308
4	1026	2342.345368620805	8.392296857328
4	1035	2361.116096914229	0.326177338574
4	1040	2366.372317285231	3.673458220418
4	1041	2368.69645625085	5.052932880294
4	1049	2395.77659346854	3.558424238272
4	1063	2414.979774164528	14.324646634932
4	1076	2437.41569137377	18.447364459749
4	1079	2440.438597247897	17.143550824831
4	1080	2441.194863033881	17.795002505684
4	1084	2456.211564960014	18.835311710155
4	1085	2458.481943613035	18.493381593092
4	1086	2458.63184463142	15.197916037748
4	1094	2486.09582318377	5.987415443488
4	1095	2495.167620587084	14.546400490292
5	142	369.375255317272	1
5	158	404.258574086135	1
5	171	415.788676091801	1
5	179	443.919676013075	1
5	185	470.546870107225	1
5	194	480.431995840156	1
5	200	495.029730108993	1
5	203	500.513567475372	1
5	212	517.809300423735	1
5	215	521.192237302952	1
5	221	541.925002229654	1
5	227	567.695925539455	1
5	269	660.252978140038	1
5	278	709.366630100926	1
5	287	743.646848964604	1
5	290	756.458935907148	1
5	298	767.120392425216	1
5	323	789.815789590426	1
5	348	831.608480159845	1
5	364	863.970073409175	1
5	386	898.688180290939	1
5	395	910.944778126664	1
5	397	912.065066633432	2
5	409	934.472084532428	1
5	428	959.834294333765	1
5	430	963.034023953894	2
5	437	995.44102465029	1
5	446	1004.276199296497	1
5	455	1030.943152599568	1
5	476	1050.110245986447	1
5	482	1074.807943387107	1
5	486	1086.494175780376	2
5	489	1102.06552599861	2
5	500	1119.223715317434	1
5	504	1121.890324746436	2
5	507	1123.663479696237	2
5	524	1186.897939430832	1
5	526	1191.951539220539	2
5	532	1202.276890746692	1
5	536	1207.192094069512	2
5	544	1212.083298246598	1
5	557	1247.010455122903	1
5	565	1272.276126545475	1
5	569	1284.608791838486	1
5	613	1387.632399260903	1
5	617	1403.412013724196	1
5	622	1409.315926484005	1
5	637	1440.302525160037	1
5	646	1462.555294735073	1
5	662	1489.486066902343	1
5	671	1507.762238717833	1
5	677	1533.228522866138	1
5	692	1558.498177338543	1
5	708	1590.470735222049	1
5	728	1645.874418155944	1
5	740	1688.598277283569	1
5	742	1697.269698461538	2
5	755	1731.744765826945	1
5	761	1737.595552176882	1
5	767	1744.899527686484	1
5	770	1755.198627303625	1
5	776	1782.557906561692	1
5	784	1810.00658113624	1
5	796	1819.834207241802	1
5	803	1845.586409673488	1
5	809	1858.271437782732	1
5	812	1868.692586631094	1
5	830	1893.453134115984	1
5	864	1984.3531764257	1
5	872	1993.439770634155	1
5	878	2005.414674315447	2
5	893	2057.829292268349	1
5	902	2067.19127090892	1
5	913	2093.540604683601	1
5	917	2118.272495163052	1
5	923	2123.862463980623	1
5	925	2125.583614538701	2
5	931	2148.351335550223	3
5	936	2158.513685384924	3
5	938	2159.742235841395	4
5	951	2189.21250810744	1
5	982	2228.011412246586	1
5	992	2256.953625658148	1
5	998	2270.467559923692	1
5	1003	2277.145134657383	1
5	1010	2292.356304954715	1
5	1012	2296.559424856657	2
5	1015	2299.848805152245	2
5	1022	2312.593632662147	1
5	1028	2345.24593224152	1
5	1031	2353.399464487008	1
5	1043	2372.427930054302	1
5	1051	2398.96845263205	1
5	1056	2404.701489116181	1
5	1058	2408.893875339512	2
5	1065	2418.968326914021	1
5	1072	2427.010862944216	1
5	1082	2443.433928593672	1
5	1092	2480.621220096792	1
5	1097	2496.852317827315	1
6	142	369.375255317272	0
6	145	373.532728548564	0
6	158	404.258574086135	0
6	161	408.760242648329	0
6	171	415.788676091801	0
6	172	422.610861457018	0
6	179	443.919676013075	0
6	180	456.105937011118	0
6	185	470.546870107225	0
6	192	480.316730593902	0
6	194	480.431995840156	0
6	195	482.842381605759	0
6	200	495.029730108993	0
6	201	497.907059573083	0
6	203	500.513567475372	0
6	204	503.508356176756	0
6	212	517.809300423735	0
6	213	518.21856455998	0
6	215	521.192237302952	0
6	218	527.923469235577	0
6	221	541.925002229654	0
6	222	543.964293529809	0
6	227	567.695925539455	0
6	230	574.390182052135	0
6	269	660.252978140038	0
6	270	674.673614599201	0
6	278	709.366630100926	0
6	281	716.472270417634	0
6	287	743.646848964604	0
6	288	745.086949761749	0
6	290	756.458935907148	0
6	293	759.006575221405	0
6	298	767.120392425216	0
6	305	770.730629714038	0
6	323	789.815789590426	0
6	330	805.731044619066	0
6	348	831.608480159845	0
6	353	847.668314676681	0
6	364	863.970073409175	0
6	365	865.797690153552	0
6	386	898.688180290939	0
6	387	898.839467028406	0
6	395	910.944778126664	0
6	397	912.065066633432	1
6	400	919.280877725115	1
6	403	924.786861598966	0
6	409	934.472084532428	0
6	412	936.237457766188	0
6	428	959.834294333765	0
6	430	963.034023953894	1
6	433	977.824247420878	1
6	434	989.258975485873	0
6	437	995.44102465029	0
6	438	997.011573829107	0
6	446	1004.276199296497	0
6	449	1005.423545601315	0
6	455	1030.943152599568	0
6	462	1035.714098039197	0
6	476	1050.110245986447	0
6	479	1059.495986691178	0
6	482	1074.807943387107	0
6	486	1086.494175780376	1
6	487	1089.197787876334	1
6	489	1102.06552599861	1
6	490	1105.845749512119	1
6	491	1106.703220066303	0
6	500	1119.223715317434	0
6	504	1121.890324746436	1
6	505	1122.79794148703	1
6	507	1123.663479696237	1
6	508	1127.244566128022	1
6	509	1130.157946247366	0
6	524	1186.897939430832	0
6	526	1191.951539220539	1
6	527	1195.225550268829	1
6	528	1197.879649829272	0
6	532	1202.276890746692	0
6	536	1207.192094069512	1
6	537	1208.910952230562	1
6	540	1210.200186493487	0
6	544	1212.083298246598	0
6	545	1215.867182327111	0
6	557	1247.010455122903	0
6	558	1247.645778875184	0
6	565	1272.276126545475	0
6	566	1273.651466709896	0
6	569	1284.608791838486	0
6	572	1288.562853887181	0
6	613	1387.632399260903	0
6	614	1391.681483838542	0
6	617	1403.412013724196	0
6	620	1409.118913672285	0
6	622	1409.315926484005	0
6	623	1412.110893656107	0
6	637	1440.302525160037	0
6	642	1458.428622185384	0
6	646	1462.555294735073	0
6	647	1466.448941538257	0
6	662	1489.486066902343	0
6	665	1492.059295781577	0
6	671	1507.762238717833	0
6	672	1510.495439398762	0
6	677	1533.228522866138	0
6	680	1535.170573202428	0
6	692	1558.498177338543	0
6	699	1569.416094424424	0
6	708	1590.470735222049	0
6	709	1594.019760224002	0
6	728	1645.874418155944	0
6	729	1654.657294860339	0
6	740	1688.598277283569	0
6	742	1697.269698461538	1
6	745	1707.606479345181	1
6	746	1709.867698733043	0
6	755	1731.744765826945	0
6	756	1732.932376368941	0
6	761	1737.595552176882	0
6	762	1742.696117493326	0
6	767	1744.899527686484	0
6	768	1745.823442059798	0
6	770	1755.198627303625	0
6	771	1757.136817150218	0
6	776	1782.557906561692	0
6	777	1783.081118844034	0
6	784	1810.00658113624	0
6	789	1813.624697345306	0
6	796	1819.834207241802	0
6	799	1824.588501197051	0
6	803	1845.586409673488	0
6	804	1848.198662943838	0
6	809	1858.271437782732	0
6	810	1860.499639654195	0
6	812	1868.692586631094	0
6	817	1875.119727454448	0
6	830	1893.453134115984	0
6	831	1895.446865799659	0
6	864	1984.3531764257	0
6	865	1987.128733739562	0
6	872	1993.439770634155	0
6	878	2005.414674315447	1
6	879	2008.669124808008	1
6	880	2012.356172050053	0
6	893	2057.829292268349	0
6	898	2061.237289987611	0
6	902	2067.19127090892	0
6	905	2074.814599264897	0
6	913	2093.540604683601	0
6	914	2096.796125237238	0
6	917	2118.272495163052	0
6	920	2121.468794396419	0
6	923	2123.862463980623	0
6	925	2125.583614538701	1
6	931	2148.351335550223	2
6	932	2149.571055458005	2
6	936	2158.513685384924	2
6	938	2159.742235841395	3
6	939	2163.784896325074	3
6	942	2173.251659740016	2
6	943	2174.445670844145	1
6	944	2176.96888535555	0
6	951	2189.21250810744	0
6	960	2197.320825971369	0
6	982	2228.011412246586	0
6	983	2230.154369015752	0
6	992	2256.953625658148	0
6	993	2260.246598148717	0
6	998	2270.467559923692	0
6	999	2274.674093462579	0
6	1003	2277.145134657383	0
6	1006	2280.480633000732	0
6	1010	2292.356304954715	0
6	1012	2296.559424856657	1
6	1013	2298.213438343872	1
6	1015	2299.848805152245	1
6	1016	2304.250400605821	1
6	1019	2310.670065361896	0
6	1022	2312.593632662147	0
6	1023	2317.033885629925	0
6	1028	2345.24593224152	0
6	1029	2347.045559619656	0
6	1031	2353.399464487008	0
6	1032	2356.615155770678	0
6	1043	2372.427930054302	0
6	1044	2375.545100977132	0
6	1051	2398.96845263205	0
6	1052	2398.97702002172	0
6	1056	2404.701489116181	0
6	1058	2408.893875339512	1
6	1061	2411.303866228197	1
6	1062	2411.884665466817	0
6	1065	2418.968326914021	0
6	1066	2422.441897161037	0
6	1072	2427.010862944216	0
6	1073	2434.425592283015	0
6	1082	2443.433928593672	0
6	1083	2452.566214809497	0
6	1092	2480.621220096792	0
6	1093	2485.079602460126	0
6	1097	2496.852317827315	0
7	142	369.375255317272	6
7	171	415.788676091801	7
7	194	480.431995840156	8
7	298	767.120392425216	9
7	348	831.608480159845	10
7	364	863.970073409175	11
7	409	934.472084532428	12
7	532	1202.276890746692	13
7	544	1212.083298246598	14
7	565	1272.276126545475	15
7	613	1387.632399260903	16
7	622	1409.315926484005	17
7	637	1440.302525160037	18
7	646	1462.555294735073	19
7	692	1558.498177338543	20
7	708	1590.470735222049	21
7	784	1810.00658113624	22
7	796	1819.834207241802	23
7	864	1984.3531764257	24
7	872	1993.439770634155	25
7	913	2093.540604683601	26
7	951	2189.21250810744	27
7	982	2228.011412246586	28
7	1003	2277.145134657383	29
7	1051	2398.96845263205	30
7	1056	2404.701489116181	31
7	1065	2418.968326914021	32
7	1072	2427.010862944216	33
7	1082	2443.433928593672	34
7	1092	2480.621220096792	35
8	142	369.375255317272	0
8	158	404.258574086135	0
8	171	415.788676091801	0
8	179	443.919676013075	0
8	185	470.546870107225	0
8	194	480.431995840156	0
8	200	495.029730108993	0
8	203	500.513567475372	0
8	212	517.809300423735	0
8	215	521.192237302952	0
8	221	541.925002229654	0
8	227	567.695925539455	0
8	269	660.252978140038	0
8	278	709.366630100926	0
8	287	743.646848964604	0
8	290	756.458935907148	0
8	298	767.120392425216	0
8	323	789.815789590426	0
8	348	831.608480159845	0
8	364	863.970073409175	0
8	386	898.688180290939	0
8	395	910.944778126664	0
8	400	919.280877725115	7.215811091683
8	409	934.472084532428	0
8	428	959.834294333765	0
8	433	977.824247420878	14.790223466984
8	437	995.44102465029	0
8	446	1004.276199296497	0
8	455	1030.943152599568	0
8	476	1050.110245986447	0
8	482	1074.807943387107	0
8	487	1089.197787876334	2.703612095958
8	490	1105.845749512119	3.780223513509
8	500	1119.223715317434	0
8	505	1122.79794148703	0.907616740594
8	508	1127.244566128022	3.581086431785
8	524	1186.897939430832	0
8	527	1195.225550268829	3.27401104829
8	532	1202.276890746692	0
8	537	1208.910952230562	1.71885816105
8	544	1212.083298246598	0
8	557	1247.010455122903	0
8	565	1272.276126545475	0
8	569	1284.608791838486	0
8	613	1387.632399260903	0
8	617	1403.412013724196	0
8	622	1409.315926484005	0
8	637	1440.302525160037	0
8	646	1462.555294735073	0
8	662	1489.486066902343	0
8	671	1507.762238717833	0
8	677	1533.228522866138	0
8	692	1558.498177338543	0
8	708	1590.470735222049	0
8	728	1645.874418155944	0
8	740	1688.598277283569	0
8	745	1707.606479345181	10.336780883643
8	755	1731.744765826945	0
8	761	1737.595552176882	0
8	767	1744.899527686484	0
8	770	1755.198627303625	0
8	776	1782.557906561692	0
8	784	1810.00658113624	0
8	796	1819.834207241802	0
8	803	1845.586409673488	0
8	809	1858.271437782732	0
8	812	1868.692586631094	0
8	830	1893.453134115984	0
8	864	1984.3531764257	0
8	872	1993.439770634155	0
8	879	2008.669124808008	3.254450492561
8	893	2057.829292268349	0
8	902	2067.19127090892	0
8	913	2093.540604683601	0
8	917	2118.272495163052	0
8	923	2123.862463980623	0
8	932	2149.571055458005	23.987440919304
8	939	2163.784896325074	15.433560774851
8	942	2173.251659740016	14.737974355092
8	943	2174.445670844145	14.70343500275
8	951	2189.21250810744	0
8	982	2228.011412246586	0
8	992	2256.953625658148	0
8	998	2270.467559923692	0
8	1003	2277.145134657383	0
8	1010	2292.356304954715	0
8	1013	2298.213438343872	1.654013487215
8	1016	2304.250400605821	4.401595453576
8	1022	2312.593632662147	0
8	1028	2345.24593224152	0
8	1031	2353.399464487008	0
8	1043	2372.427930054302	0
8	1051	2398.96845263205	0
8	1056	2404.701489116181	0
8	1061	2411.303866228197	2.409990888685
8	1065	2418.968326914021	0
8	1072	2427.010862944216	0
8	1082	2443.433928593672	0
8	1092	2480.621220096792	0
8	1097	2496.852317827315	0
9	145	373.532728548564	19
9	161	408.760242648329	20
9	172	422.610861457018	21
9	180	456.105937011118	22
9	192	480.316730593902	23
9	195	482.842381605759	24
9	201	497.907059573083	25
9	204	503.508356176756	26
9	213	518.21856455998	27
9	218	527.923469235577	28
9	222	543.964293529809	29
9	230	574.390182052135	30
9	270	674.673614599201	31
9	281	716.472270417634	32
9	288	745.086949761749	33
9	293	759.006575221405	34
9	305	770.730629714038	35
9	330	805.731044619066	36
9	353	847.668314676681	37
9	365	865.797690153552	38
9	387	898.839467028406	39
9	400	919.280877725115	40
9	403	924.786861598966	41
9	412	936.237457766188	42
9	433	977.824247420878	43
9	434	989.258975485873	44
9	438	997.011573829107	45
9	449	1005.423545601315	46
9	462	1035.714098039197	47
9	479	1059.495986691178	48
9	487	1089.197787876334	49
9	490	1105.845749512119	50
9	491	1106.703220066303	51
9	505	1122.79794148703	52
9	508	1127.244566128022	53
9	509	1130.157946247366	54
9	527	1195.225550268829	55
9	528	1197.879649829272	56
9	537	1208.910952230562	57
9	540	1210.200186493487	58
9	545	1215.867182327111	59
9	558	1247.645778875184	60
9	566	1273.651466709896	61
9	572	1288.562853887181	62
9	614	1391.681483838542	63
9	620	1409.118913672285	64
9	623	1412.110893656107	65
9	642	1458.428622185384	66
9	647	1466.448941538257	67
9	665	1492.059295781577	68
9	672	1510.495439398762	69
9	680	1535.170573202428	70
9	699	1569.416094424424	71
9	709	1594.019760224002	72
9	729	1654.657294860339	73
9	745	1707.606479345181	74
9	746	1709.867698733043	75
9	756	1732.932376368941	76
9	762	1742.696117493326	77
9	768	1745.823442059798	78
9	771	1757.136817150218	79
9	777	1783.081118844034	80
9	789	1813.624697345306	81
9	799	1824.588501197051	82
9	804	1848.198662943838	83
9	810	1860.499639654195	84
9	817	1875.119727454448	85
9	831	1895.446865799659	86
9	865	1987.128733739562	87
9	879	2008.669124808008	88
9	880	2012.356172050053	89
9	898	2061.237289987611	90
9	905	2074.814599264897	91
9	914	2096.796125237238	92
9	920	2121.468794396419	93
9	932	2149.571055458005	94
9	939	2163.784896325074	95
9	942	2173.251659740016	96
9	943	2174.445670844145	97
9	944	2176.96888535555	98
9	960	2197.320825971369	99
9	983	2230.154369015752	100
9	993	2260.246598148717	101
9	999	2274.674093462579	102
9	1006	2280.480633000732	103
9	1013	2298.213438343872	104
9	1016	2304.250400605821	105
9	1019	2310.670065361896	106
9	1023	2317.033885629925	107
9	1029	2347.045559619656	108
9	1032	2356.615155770678	109
9	1044	2375.545100977132	110
9	1052	2398.97702002172	111
9	1061	2411.303866228197	112
9	1062	2411.884665466817	113
9	1066	2422.441897161037	114
9	1073	2434.425592283015	115
9	1083	2452.566214809497	116
9	1093	2485.079602460126	117
10	145	373.532728548564	4.157473231292
10	161	408.760242648329	4.501668562194
10	172	422.610861457018	6.822185365217
10	180	456.105937011118	12.186260998043
10	192	480.316730593902	9.769860486677
10	195	482.842381605759	2.410385765603
10	201	497.907059573083	2.87732946409
10	204	503.508356176756	2.994788701384
10	213	518.21856455998	0.409264136245
10	218	527.923469235577	6.731231932625
10	222	543.964293529809	2.039291300155
10	230	574.390182052135	6.69425651268
10	270	674.673614599201	14.420636459163
10	281	716.472270417634	7.105640316708
10	288	745.086949761749	1.440100797145
10	293	759.006575221405	2.547639314257
10	305	770.730629714038	3.610237288822
10	330	805.731044619066	15.91525502864
10	353	847.668314676681	16.059834516836
10	365	865.797690153552	1.827616744377
10	387	898.839467028406	0.151286737467
10	400	919.280877725115	8.336099598451
10	403	924.786861598966	12.721794965534
10	412	936.237457766188	1.76537323376
10	433	977.824247420878	17.989953087113
10	434	989.258975485873	26.224951531979
10	438	997.011573829107	1.570549178817
10	449	1005.423545601315	1.147346304818
10	462	1035.714098039197	4.770945439629
10	479	1059.495986691178	9.385740704731
10	487	1089.197787876334	14.389844489227
10	490	1105.845749512119	19.351573731743
10	491	1106.703220066303	4.637694067693
10	505	1122.79794148703	3.574226169596
10	508	1127.244566128022	5.354241381586
10	509	1130.157946247366	6.494466551129
10	527	1195.225550268829	8.327610837997
10	528	1197.879649829272	5.928110608733
10	537	1208.910952230562	6.63406148387
10	540	1210.200186493487	3.008092423975
10	545	1215.867182327111	3.783884080513
10	558	1247.645778875184	0.635323752281
10	566	1273.651466709896	1.375340164421
10	572	1288.562853887181	3.954062048695
10	614	1391.681483838542	4.049084577639
10	620	1409.118913672285	5.706899948089
10	623	1412.110893656107	2.794967172102
10	642	1458.428622185384	18.126097025347
10	647	1466.448941538257	3.893646803184
10	665	1492.059295781577	2.573228879234
10	672	1510.495439398762	2.733200680929
10	680	1535.170573202428	1.94205033629
10	699	1569.416094424424	10.917917085881
10	709	1594.019760224002	3.549025001953
10	729	1654.657294860339	8.782876704395
10	745	1707.606479345181	19.008202061612
10	746	1709.867698733043	12.598000271505
10	756	1732.932376368941	1.187610541996
10	762	1742.696117493326	5.100565316444
10	768	1745.823442059798	0.923914373314
10	771	1757.136817150218	1.938189846593
10	777	1783.081118844034	0.523212282342
10	789	1813.624697345306	3.618116209066
10	799	1824.588501197051	4.754293955249
10	804	1848.198662943838	2.61225327035
10	810	1860.499639654195	2.228201871463
10	817	1875.119727454448	6.427140823354
10	831	1895.446865799659	1.993731683675
10	865	1987.128733739562	2.775557313862
10	879	2008.669124808008	15.229354173853
10	880	2012.356172050053	6.941497734606
10	898	2061.237289987611	3.407997719262
10	905	2074.814599264897	7.623328355977
10	914	2096.796125237238	3.255520553637
10	920	2121.468794396419	3.196299233367
10	932	2149.571055458005	25.708591477382
10	939	2163.784896325074	38.201281786373
10	942	2173.251659740016	24.900324189793
10	943	2174.445670844145	15.931985459221
10	944	2176.96888535555	17.226649514155
10	960	2197.320825971369	8.108317863929
10	983	2230.154369015752	2.142956769166
10	993	2260.246598148717	3.292972490569
10	999	2274.674093462579	4.206533538887
10	1006	2280.480633000732	3.335498343349
10	1013	2298.213438343872	5.857133389157
10	1016	2304.250400605821	7.690975749164
10	1019	2310.670065361896	10.821260209651
10	1023	2317.033885629925	4.440252967778
10	1029	2347.045559619656	1.799627378136
10	1032	2356.615155770678	3.21569128367
10	1044	2375.545100977132	3.11717092283
10	1052	2398.97702002172	0.00856738967
10	1061	2411.303866228197	6.602377112016
10	1062	2411.884665466817	2.990790127305
10	1066	2422.441897161037	3.473570247016
10	1073	2434.425592283015	7.414729338799
10	1083	2452.566214809497	9.132286215825
10	1093	2485.079602460126	4.458382363334
11	1098	2500	0.0992
12	1098	2500	0.0468

