file 65795 1678273543                                           
version 2
run experiments_easy_game_mode1-1076-20230308-12:05:43-24161
attr configname experiments_easy_game_mode1
attr datetime 20230308-12:05:43
attr experiment experiments_easy_game_mode1
attr inifile omnetpp.ini
attr iterationvars "$0=6, $1=3.5, $2=100"
attr iterationvarsf 6,3.5,100-
attr measurement "$0=6, $1=3.5, $2=100"
attr network Network
attr processid 24161
attr repetition 26
attr replication #26
attr resultdir results
attr runnumber 1076
attr seedset 26
param *.boss.arrival_mean 20
param *.boss.service_mean 6
param *.minion.arrival_mean 10
param *.minion.service_mean 3.5
param *.player.recover_rate_x 100
param **.minion.arrival_distribution 0
param **.minion.service_distribution 0
param **.boss.arrival_distribution 0
param **.boss.service_distribution 0

vector 0 Network.player minion_jobs_number_stat:vector ETV
attr source signal_minion_jobs_number
vector 1 Network.player minion_jobs_queue_number_stat:vector ETV
attr source signal_minion_jobs_queue_number
vector 2 Network.player minion_waiting_time_stat:vector ETV
attr source signal_minion_waiting_time
vector 3 Network.player minion_defeated_stat:vector ETV
attr source signal_minion_defeated
vector 4 Network.player minion_response_time_stat:vector ETV
attr source signal_minion_response_time
vector 5 Network.player boss_jobs_number_stat:vector ETV
attr source signal_boss_jobs_number
vector 6 Network.player boss_jobs_queue_number_stat:vector ETV
attr source signal_boss_jobs_queue_number
vector 7 Network.player boss_waiting_time_stat:vector ETV
attr source signal_boss_waiting_time
vector 8 Network.player boss_defeated_stat:vector ETV
attr source signal_boss_defeated
vector 9 Network.player boss_response_time_stat:vector ETV
attr source signal_boss_response_time
vector 10 Network.player minion_recovered_stat:vector ETV
attr source signal_minion_recovered
vector 11 Network.player minion_throughput:vector ETV
attr source signal_minion_throughput
vector 12 Network.player boss_throughput:vector ETV
attr source signal_boss_throughput
0	2023 6063 131 1139 353.474320604805 2481.059061575314 234 1 24 1491 18075
1	8086 12124 131 1143 353.474320604805 2488.214618144895 468 0 23 2514 30654
2	20210 10395 131 1142 353.474320604805 2486.925958050829 283 0 129.90557942047 10447.232121009 832198.89687948
3	30605 6413 132 1143 359.452794290623 2488.214618144895 234 33 266 34983 6297681
4	37018 9186 132 1143 359.452794290623 2488.214618144895 234 0.018030481857 131.96043361297 9137.5955660395 746623.72552843
5	46204 2711 134 1145 360.864535828211 2497.285207450237 105 1 4 152 282
6	48915 5417 134 1146 360.864535828211 2497.986260687729 210 0 3 94 166
7	54332 3138 134 1145 360.864535828211 2497.285207450237 105 0 30.799317907847 357.52702470536 6546.360524595
8	57470 2828 135 1146 360.969120175314 2497.986260687729 105 12 116 6720 526540
9	60298 4099 135 1146 360.969120175314 2497.986260687729 105 0.104584347103 38.747913199682 1021.4493168164 19437.275389104
10	64397 1357 169 1132 434.192491993633 2464.026288258992 49 4 52 1372 48216
11	65754 20 1147 1147 2500 2500 1 0.1064 0.1064 0.1064 0.01132096
12	65774 20 1147 1147 2500 2500 1 0.0464 0.0464 0.0464 0.00215296

