version 2
run experiments_easy_game_mode1-1263-20230308-12:06:24-25100
attr configname experiments_easy_game_mode1
attr datetime 20230308-12:06:24
attr experiment experiments_easy_game_mode1
attr inifile omnetpp.ini
attr iterationvars "$0=6.5, $1=2.5, $2=0"
attr iterationvarsf 6.5,2.5,0-
attr measurement "$0=6.5, $1=2.5, $2=0"
attr network Network
attr processid 25100
attr repetition 3
attr replication #3
attr resultdir results
attr runnumber 1263
attr seedset 3
param *.boss.arrival_mean 20
param *.boss.service_mean 6.5
param *.minion.arrival_mean 10
param *.minion.service_mean 2.5
param *.player.recover_rate_x 0
param **.minion.arrival_distribution 0
param **.minion.service_distribution 0
param **.boss.arrival_distribution 0
param **.boss.service_distribution 0

vector 0 Network.player boss_defeated_stat:vector ETV
attr source signal_boss_defeated
vector 1 Network.player boss_jobs_queue_number_stat:vector ETV
attr source signal_boss_jobs_queue_number
vector 2 Network.player boss_response_time_stat:vector ETV
attr source signal_boss_response_time
vector 3 Network.player minion_jobs_number_stat:vector ETV
attr source signal_minion_jobs_number
vector 4 Network.player minion_jobs_queue_number_stat:vector ETV
attr source signal_minion_jobs_queue_number
vector 5 Network.player minion_waiting_time_stat:vector ETV
attr source signal_minion_waiting_time
vector 6 Network.player minion_defeated_stat:vector ETV
attr source signal_minion_defeated
vector 7 Network.player minion_response_time_stat:vector ETV
attr source signal_minion_response_time
vector 8 Network.player boss_jobs_number_stat:vector ETV
attr source signal_boss_jobs_number
vector 9 Network.player minion_recovered_stat:vector ETV
attr source signal_minion_recovered
vector 10 Network.player boss_waiting_time_stat:vector ETV
attr source signal_boss_waiting_time
vector 11 Network.player minion_throughput:vector ETV
attr source signal_minion_throughput
vector 12 Network.player boss_throughput:vector ETV
attr source signal_boss_throughput
0	159	361.195902021312	20
0	174	396.886936755524	21
0	175	397.101665789208	22
0	178	406.344152868729	23
0	182	414.569089808401	24
0	192	433.742478062024	25
0	217	498.543963978429	26
0	226	511.594606160073	27
0	239	538.656451095875	28
0	246	549.352051591863	29
0	247	552.919625744556	30
0	248	554.456352606729	31
0	251	566.111014019662	32
0	269	590.861825451736	33
0	280	606.100006866747	34
0	285	607.831537773002	35
0	315	712.175541556846	36
0	318	730.671786194026	37
0	324	736.354981981309	38
0	331	765.807081731922	39
0	363	841.798664799362	40
0	379	922.197615843223	41
0	386	933.468863451406	42
0	389	936.500912251907	43
0	390	938.450672000144	44
0	393	947.740763039195	45
0	394	948.335246454658	46
0	395	952.504706532458	47
0	415	1012.338480894336	48
0	418	1017.894046080508	49
0	430	1030.624274626011	50
0	439	1053.360310577255	51
0	440	1055.042466561105	52
0	446	1061.444560251327	53
0	452	1067.415112842335	54
0	471	1088.661140120729	55
0	474	1093.516316923217	56
0	479	1095.764330189018	57
0	488	1123.128869395286	58
0	494	1132.920345080876	59
0	503	1141.39057139398	60
0	527	1177.644280712018	61
0	571	1259.410679535928	62
0	572	1264.426333440626	63
0	573	1270.273573285833	64
0	586	1293.463049747374	65
0	591	1304.648575737828	66
0	592	1307.593555621522	67
0	611	1349.875722954647	68
0	619	1369.861537889318	69
0	641	1412.288982740775	70
0	653	1440.338595437782	71
0	660	1451.730334503103	72
0	663	1455.270857392725	73
0	671	1477.407234086467	74
0	696	1568.129605730834	75
0	710	1590.761169909	76
0	717	1603.448447051271	77
0	743	1683.141306191972	78
0	747	1689.807613869253	79
0	756	1719.74201884328	80
0	757	1720.281640679435	81
0	762	1727.645785148444	82
0	778	1746.0282368387	83
0	796	1788.033472898866	84
0	799	1788.825155217367	85
0	812	1803.077297275414	86
0	815	1810.810141293955	87
0	816	1811.974448645548	88
0	817	1812.166800098544	89
0	848	1922.218213421388	90
0	890	2057.00795585495	91
0	909	2083.801551725536	92
0	910	2084.726466701822	93
0	920	2118.601730336486	94
0	923	2121.279259911768	95
0	930	2144.660834229266	96
0	948	2175.935958537087	97
0	953	2178.271670256907	98
0	986	2238.600779362909	99
0	999	2261.332285851402	100
0	1016	2288.716623259516	101
0	1017	2291.417485597371	102
0	1020	2294.018319414662	103
0	1021	2295.589438780122	104
0	1022	2297.002804442403	105
0	1029	2306.456852012425	106
0	1040	2313.945887524828	107
0	1041	2317.995926490343	108
0	1092	2423.832277259087	109
0	1114	2462.936287583907	110
0	1121	2472.518528980841	111
0	1122	2475.203120997708	112
0	1127	2485.403270240541	113
1	159	361.195902021312	0
1	169	380.659473743649	0
1	173	395.971694417465	1
1	174	396.886936755524	1
1	175	397.101665789208	0
1	177	404.35044228479	0
1	178	406.344152868729	0
1	181	410.037356174797	0
1	182	414.569089808401	0
1	185	425.519679098172	0
1	192	433.742478062024	0
1	212	493.340900375065	0
1	214	493.458722537011	1
1	216	496.742594609582	2
1	217	498.543963978429	2
1	226	511.594606160073	1
1	228	519.107824800269	1
1	232	524.050395342014	2
1	234	528.76545634016	3
1	238	535.742612840699	4
1	239	538.656451095875	4
1	246	549.352051591863	3
1	247	552.919625744556	2
1	248	554.456352606729	1
1	251	566.111014019662	0
1	268	589.672238161967	0
1	269	590.861825451736	0
1	279	598.144708626378	0
1	280	606.100006866747	0
1	284	607.520627601297	0
1	285	607.831537773002	0
1	314	702.49001005566	0
1	315	712.175541556846	0
1	317	730.410353463151	0
1	318	730.671786194026	0
1	323	735.549137058382	0
1	324	736.354981981309	0
1	330	764.354773011734	0
1	331	765.807081731922	0
1	362	838.86047744023	0
1	363	841.798664799362	0
1	368	879.741882111558	0
1	370	882.113317559985	1
1	372	884.446492488943	2
1	374	888.24560307094	3
1	376	895.381730109802	4
1	379	922.197615843223	4
1	381	927.517978306195	4
1	386	933.468863451406	4
1	389	936.500912251907	3
1	390	938.450672000144	2
1	392	940.401529101434	2
1	393	947.740763039195	2
1	394	948.335246454658	1
1	395	952.504706532458	0
1	412	990.909014986853	0
1	415	1012.338480894336	0
1	417	1013.261047276616	0
1	418	1017.894046080508	0
1	425	1028.545887104851	0
1	430	1030.624274626011	0
1	436	1034.503025313914	0
1	438	1036.534772003394	1
1	439	1053.360310577255	1
1	440	1055.042466561105	0
1	443	1060.691130510771	0
1	446	1061.444560251327	0
1	449	1063.19383248497	0
1	452	1067.415112842335	0
1	470	1084.594332712561	0
1	471	1088.661140120729	0
1	473	1090.754167319039	0
1	474	1093.516316923217	0
1	476	1094.772215871149	0
1	479	1095.764330189018	0
1	485	1120.122180825996	0
1	488	1123.128869395286	0
1	491	1127.896198946203	0
1	493	1131.632484755457	1
1	494	1132.920345080876	1
1	503	1141.39057139398	0
1	526	1175.335185131008	0
1	527	1177.644280712018	0
1	566	1256.60543472736	0
1	568	1258.346007673972	1
1	570	1258.889412571991	2
1	571	1259.410679535928	2
1	572	1264.426333440626	1
1	573	1270.273573285833	0
1	581	1286.342301461403	0
1	583	1286.57494181929	1
1	585	1287.862513521532	2
1	586	1293.463049747374	2
1	591	1304.648575737828	1
1	592	1307.593555621522	0
1	610	1337.223720075614	0
1	611	1349.875722954647	0
1	616	1363.520401318974	0
1	619	1369.861537889318	0
1	638	1406.512882744487	0
1	641	1412.288982740775	0
1	650	1433.648475926042	0
1	652	1435.347326120521	1
1	653	1440.338595437782	1
1	657	1445.829455077947	1
1	660	1451.730334503103	1
1	663	1455.270857392725	0
1	668	1469.693661528508	0
1	671	1477.407234086467	0
1	695	1564.774017558306	0
1	696	1568.129605730834	0
1	707	1588.196429206383	0
1	710	1590.761169909	0
1	716	1600.231040489507	0
1	717	1603.448447051271	0
1	740	1682.208424127058	0
1	743	1683.141306191972	0
1	746	1686.419845939918	0
1	747	1689.807613869253	0
1	749	1707.679710106683	0
1	755	1716.345476470025	1
1	756	1719.74201884328	1
1	757	1720.281640679435	0
1	759	1720.55581185757	0
1	762	1727.645785148444	0
1	777	1745.64792178764	0
1	778	1746.0282368387	0
1	791	1779.449199170603	0
1	796	1788.033472898866	0
1	798	1788.294956596051	0
1	799	1788.825155217367	0
1	805	1797.29918631301	0
1	809	1798.359156213276	1
1	811	1799.172771781991	2
1	812	1803.077297275414	2
1	814	1806.766350733902	2
1	815	1810.810141293955	2
1	816	1811.974448645548	1
1	817	1812.166800098544	0
1	845	1917.923427135827	0
1	848	1922.218213421388	0
1	889	2052.509094390919	0
1	890	2057.00795585495	0
1	906	2075.308674587472	0
1	908	2082.099549429316	1
1	909	2083.801551725536	1
1	910	2084.726466701822	0
1	917	2108.685862315649	0
1	920	2118.601730336486	0
1	922	2121.076209533676	0
1	923	2121.279259911768	0
1	929	2142.723683495446	0
1	930	2144.660834229266	0
1	947	2169.304437475917	0
1	948	2175.935958537087	0
1	952	2177.228225124877	0
1	953	2178.271670256907	0
1	983	2234.76196218177	0
1	986	2238.600779362909	0
1	998	2260.983183628547	0
1	999	2261.332285851402	0
1	1003	2264.84038493309	0
1	1007	2268.90144810621	1
1	1009	2273.677289607649	2
1	1013	2285.719432706355	3
1	1015	2288.561711981572	4
1	1016	2288.716623259516	4
1	1017	2291.417485597371	3
1	1019	2293.558850252091	3
1	1020	2294.018319414662	3
1	1021	2295.589438780122	2
1	1022	2297.002804442403	1
1	1026	2298.239937262922	1
1	1029	2306.456852012425	1
1	1037	2312.094400186417	1
1	1040	2313.945887524828	1
1	1041	2317.995926490343	0
1	1091	2421.021190455418	0
1	1092	2423.832277259087	0
1	1103	2446.030079873069	0
1	1107	2451.694476261001	1
1	1111	2455.678417661446	2
1	1113	2458.010288498061	3
1	1114	2462.936287583907	3
1	1121	2472.518528980841	2
1	1122	2475.203120997708	1
1	1127	2485.403270240541	0
2	159	361.195902021312	13.384057012715
2	174	396.886936755524	16.227463011875
2	175	397.101665789208	1.129971371743
2	178	406.344152868729	1.993710583939
2	182	414.569089808401	4.531733633604
2	192	433.742478062024	8.222798963852
2	217	498.543963978429	5.203063603364
2	226	511.594606160073	18.135883623062
2	239	538.656451095875	41.913856486293
2	246	549.352051591863	30.244226791594
2	247	552.919625744556	28.869230402542
2	248	554.456352606729	25.690896266569
2	251	566.111014019662	30.368401178963
2	269	590.861825451736	1.189587289769
2	280	606.100006866747	7.955298240369
2	285	607.831537773002	0.310910171705
2	315	712.175541556846	9.685531501186
2	318	730.671786194026	0.261432730875
2	324	736.354981981309	0.805844922927
2	331	765.807081731922	1.452308720188
2	363	841.798664799362	2.938187359132
2	379	922.197615843223	42.455733731665
2	386	933.468863451406	51.355545891421
2	389	936.500912251907	52.054419762964
2	390	938.450672000144	50.205068929204
2	393	947.740763039195	52.359032929393
2	394	948.335246454658	20.817268148463
2	395	952.504706532458	12.103177431024
2	415	1012.338480894336	21.429465907483
2	418	1017.894046080508	4.632998803892
2	430	1030.624274626011	2.07838752116
2	439	1053.360310577255	18.857285263341
2	440	1055.042466561105	18.507694557711
2	446	1061.444560251327	0.753429740556
2	452	1067.415112842335	4.221280357365
2	471	1088.661140120729	4.066807408168
2	474	1093.516316923217	2.762149604178
2	479	1095.764330189018	0.992114317869
2	488	1123.128869395286	3.00668856929
2	494	1132.920345080876	5.024146134673
2	503	1141.39057139398	9.758086638523
2	527	1177.644280712018	2.30909558101
2	571	1259.410679535928	2.805244808568
2	572	1264.426333440626	6.080325766654
2	573	1270.273573285833	11.384160713842
2	586	1293.463049747374	7.120748285971
2	591	1304.648575737828	18.073633918538
2	592	1307.593555621522	19.73104209999
2	611	1349.875722954647	12.652002879033
2	619	1369.861537889318	6.341136570344
2	641	1412.288982740775	5.776099996288
2	653	1440.338595437782	6.69011951174
2	660	1451.730334503103	16.383008382582
2	663	1455.270857392725	9.441402314778
2	671	1477.407234086467	7.713572557959
2	696	1568.129605730834	3.355588172528
2	710	1590.761169909	2.564740702617
2	717	1603.448447051271	3.217406561764
2	743	1683.141306191972	0.932882064914
2	747	1689.807613869253	3.387767929335
2	756	1719.74201884328	12.062308736597
2	757	1720.281640679435	3.93616420941
2	762	1727.645785148444	7.089973290874
2	778	1746.0282368387	0.38031505106
2	796	1788.033472898866	8.584273728263
2	799	1788.825155217367	0.530198621316
2	812	1803.077297275414	5.778110962404
2	815	1810.810141293955	12.450985080679
2	816	1811.974448645548	12.801676863557
2	817	1812.166800098544	5.400449364642
2	848	1922.218213421388	4.294786285561
2	890	2057.00795585495	4.498861464031
2	909	2083.801551725536	8.492877138064
2	910	2084.726466701822	2.626917272506
2	920	2118.601730336486	9.915868020837
2	923	2121.279259911768	0.203050378092
2	930	2144.660834229266	1.93715073382
2	948	2175.935958537087	6.63152106117
2	953	2178.271670256907	1.04344513203
2	986	2238.600779362909	3.838817181139
2	999	2261.332285851402	0.349102222855
2	1016	2288.716623259516	23.876238326426
2	1017	2291.417485597371	22.516037491161
2	1020	2294.018319414662	20.341029807013
2	1021	2295.589438780122	9.870006073767
2	1022	2297.002804442403	8.441092460831
2	1029	2306.456852012425	12.898001760334
2	1040	2313.945887524828	15.705950261906
2	1041	2317.995926490343	5.901526303926
2	1092	2423.832277259087	2.811086803669
2	1114	2462.936287583907	16.906207710838
2	1121	2472.518528980841	20.82405271984
2	1122	2475.203120997708	19.524703336262
2	1127	2485.403270240541	27.39298174248
3	161	361.339663494602	1
3	164	367.9828784262	1
3	167	379.513301138535	1
3	171	394.129264259982	2
3	187	425.765741351908	1
3	189	427.517811650595	2
3	191	433.606808067719	3
3	197	448.069818965425	1
3	200	456.351270045832	1
3	202	456.561563782591	2
3	206	472.719413120029	1
3	208	474.172100886485	2
3	219	502.850351250119	1
3	221	504.086422382937	2
3	223	506.614196716074	3
3	225	510.323349281481	4
3	230	522.461553090038	5
3	236	533.592296136414	6
3	241	540.522669763452	7
3	243	546.894682894063	8
3	245	549.159432880295	9
3	250	566.096778961453	10
3	257	576.022142600914	7
3	261	579.441227499843	6
3	263	580.999566973229	7
3	273	594.209352549086	3
3	275	594.753402569665	4
3	282	606.880926727436	3
3	288	608.676596580058	3
3	291	612.645161330649	3
3	296	632.76123856948	1
3	299	636.83562207702	1
3	301	637.217093321776	2
3	305	675.410655830787	1
3	308	677.865079647084	1
3	311	687.662234629069	1
3	320	730.758287029875	1
3	326	760.778512054772	1
3	328	762.676109818951	2
3	335	777.263713199375	1
3	338	778.560288534075	1
3	341	795.990510267887	1
3	344	803.875283134171	1
3	347	809.094828093027	1
3	350	814.571875706268	1
3	353	820.574063313727	1
3	356	829.945582910592	1
3	359	835.06437174103	1
3	365	850.643575561551	1
3	378	903.906946611633	1
3	383	930.044493005324	2
3	385	931.999341308693	3
3	388	935.126957832346	4
3	401	967.986976557275	1
3	404	971.614401115977	1
3	407	977.048754828475	1
3	410	990.426205312561	1
3	414	995.943592048176	2
3	422	1022.382591948731	1
3	427	1028.602936522879	1
3	429	1028.810805650015	2
3	433	1033.490433093267	2
3	445	1061.002901677937	1
3	451	1067.267288635778	1
3	455	1075.724465931961	1
3	457	1076.082481560829	2
3	461	1077.735018370196	1
3	464	1078.615384691453	1
3	467	1081.67931445012	1
3	478	1094.866445323894	1
3	482	1111.881230236583	1
3	487	1121.992740047389	1
3	496	1134.933958298035	1
3	498	1135.217004455986	2
3	500	1135.363051972741	3
3	502	1138.932231129405	4
3	507	1144.787715153364	3
3	511	1147.283264483279	2
3	515	1155.69337419801	1
3	517	1156.259289260176	2
3	519	1163.204706882349	3
3	522	1170.612254816977	3
3	530	1186.949025027116	1
3	532	1192.333899696592	2
3	534	1197.613977193519	3
3	536	1198.108177697727	4
3	538	1198.606263427609	5
3	545	1207.102040070224	1
3	548	1215.572599614181	1
3	551	1231.844375578986	1
3	554	1234.910810938707	1
3	557	1236.116699961997	1
3	560	1247.942971155498	1
3	563	1251.188053035955	1
3	575	1275.249598754447	1
3	578	1285.512833833394	1
3	588	1294.031758144982	1
3	590	1300.819020909668	2
3	596	1310.93961002616	1
3	599	1318.003070602428	1
3	602	1326.696373353387	1
3	605	1332.884941883537	1
3	608	1336.650535836356	1
3	614	1359.16404557901	1
3	618	1366.636648785843	2
3	621	1375.945051716496	3
3	626	1386.322276825134	1
3	629	1395.569428066275	1
3	632	1398.224964158521	1
3	634	1404.092529556116	2
3	636	1404.723363852476	3
3	640	1411.263528282476	4
3	646	1420.224574092024	2
3	655	1442.157175674872	1
3	659	1450.186517457622	2
3	662	1452.524777592798	3
3	670	1471.364551841377	1
3	674	1500.292962552547	1
3	677	1514.628496105396	1
3	679	1515.391585098206	2
3	683	1520.075491215183	1
3	686	1529.117938344292	1
3	689	1536.955543686046	1
3	692	1537.272009496688	1
3	698	1568.170486611142	1
3	701	1579.114421679445	1
3	703	1580.500100178335	2
3	709	1590.644250055458	1
3	712	1590.825644943243	2
3	719	1610.664425130129	1
3	722	1618.936633049524	1
3	725	1647.347486492507	1
3	728	1651.645264029249	1
3	731	1657.544440275635	1
3	734	1667.875743443595	1
3	737	1678.961085905515	1
3	742	1682.270965130991	1
3	751	1708.084792584536	1
3	753	1713.623104352338	2
3	761	1723.283784264192	3
3	764	1728.055282631709	4
3	766	1731.950005401017	5
3	768	1733.335643327318	6
3	770	1737.184569819368	7
3	780	1746.430995735594	3
3	782	1749.876436639148	4
3	784	1750.623721910651	5
3	793	1782.186823052272	1
3	795	1786.678947997071	2
3	802	1791.887006369677	2
3	807	1797.950978938951	2
3	821	1827.242154249278	1
3	824	1850.542439783431	1
3	827	1870.004880988581	1
3	830	1873.144783037164	1
3	833	1884.822081319794	1
3	835	1885.778595246252	2
3	837	1885.811529056579	3
3	842	1897.708087929202	1
3	847	1920.744293764123	1
3	851	1932.417776871576	1
3	854	1957.658186564513	1
3	856	1958.145638604626	2
3	858	1958.20490747963	3
3	862	1962.041132941032	2
3	866	1972.339259434377	1
3	869	1996.972662773382	1
3	872	2001.837521535633	1
3	875	2022.651661072584	1
3	878	2031.708678368501	1
3	880	2039.16582307412	2
3	884	2048.602623725115	1
3	887	2051.296746386859	1
3	893	2060.450138024586	1
3	896	2061.864559880863	1
3	898	2065.608353002928	2
3	902	2073.528318068424	1
3	904	2074.252666708182	2
3	914	2094.944618720664	1
3	919	2111.075776948067	1
3	925	2121.523496411099	2
3	932	2145.763574788525	1
3	935	2151.397617746221	1
3	938	2153.562706682703	1
3	941	2158.8277209331	1
3	944	2161.192638793574	1
3	950	2176.623459025381	1
3	955	2181.362624258206	2
3	958	2184.414138255062	2
3	962	2189.569960956599	1
3	965	2192.862153177103	1
3	968	2214.505848794852	1
3	970	2214.739026256483	2
3	974	2216.997427399395	1
3	977	2228.158970210153	1
3	980	2233.589270654671	1
3	985	2235.134555999138	1
3	989	2245.5746372874	1
3	992	2246.434071313046	1
3	995	2253.60115613332	1
3	1001	2264.722149296945	1
3	1005	2268.784290434962	2
3	1011	2282.192260561595	3
3	1024	2297.26438804666	4
3	1028	2306.451312004043	5
3	1031	2307.906601523895	6
3	1033	2308.451575159593	7
3	1035	2310.57992847033	8
3	1039	2313.938378685859	9
3	1043	2319.089880690129	10
3	1053	2332.875221144699	3
3	1057	2348.332552859931	2
3	1060	2353.692697809273	2
3	1063	2356.62042384619	2
3	1065	2358.091024437805	3
3	1067	2359.250582496203	4
3	1069	2366.186839445675	5
3	1076	2392.876483049199	1
3	1078	2394.55395121754	2
3	1080	2395.905132468107	3
3	1082	2396.699003818489	4
3	1088	2405.987835363148	1
3	1094	2431.543350033688	1
3	1097	2434.969970675909	1
3	1100	2436.854714053433	1
3	1105	2446.703873746544	1
3	1109	2453.818389630889	2
3	1116	2464.591085000307	3
3	1118	2466.762044446235	4
3	1120	2467.46333134511	5
3	1124	2475.219092225462	6
3	1126	2479.611011255182	7
3	1131	2495.728823675633	6
3	1134	2499.804357768263	6
4	161	361.339663494602	0
4	162	363.230282621067	0
4	164	367.9828784262	0
4	165	369.050549957252	0
4	167	379.513301138535	0
4	171	394.129264259982	1
4	179	406.367796239064	1
4	183	414.998872738695	0
4	187	425.765741351908	0
4	189	427.517811650595	1
4	191	433.606808067719	2
4	193	436.125215628727	2
4	194	437.234433187499	1
4	195	437.731495910976	0
4	197	448.069818965425	0
4	198	455.51426408519	0
4	200	456.351270045832	0
4	202	456.561563782591	1
4	203	459.559429102439	1
4	204	460.173857601064	0
4	206	472.719413120029	0
4	208	474.172100886485	1
4	209	479.715987329143	1
4	210	480.677906899618	0
4	219	502.850351250119	0
4	221	504.086422382937	1
4	223	506.614196716074	2
4	225	510.323349281481	3
4	230	522.461553090038	4
4	236	533.592296136414	5
4	241	540.522669763452	6
4	243	546.894682894063	7
4	245	549.159432880295	8
4	250	566.096778961453	9
4	252	568.043591122642	9
4	253	574.289251293043	8
4	254	575.877097353482	7
4	255	575.958156549183	6
4	257	576.022142600914	6
4	258	578.406449425104	6
4	259	578.574697345629	5
4	261	579.441227499843	5
4	263	580.999566973229	6
4	264	581.500866238653	6
4	265	583.985341789693	5
4	266	584.837226375974	4
4	270	590.997534495351	3
4	271	591.019419329297	2
4	273	594.209352549086	2
4	275	594.753402569665	3
4	276	594.893455848071	3
4	277	595.233428842673	2
4	282	606.880926727436	2
4	286	608.35199842872	2
4	288	608.676596580058	2
4	289	612.541492664234	2
4	291	612.645161330649	2
4	292	612.986418415045	2
4	293	613.534395637931	1
4	294	613.73123929206	0
4	296	632.76123856948	0
4	297	635.022168289666	0
4	299	636.83562207702	0
4	301	637.217093321776	1
4	302	639.506717463818	1
4	303	641.464853932074	0
4	305	675.410655830787	0
4	306	677.190269101719	0
4	308	677.865079647084	0
4	309	679.366459651396	0
4	311	687.662234629069	0
4	312	689.296490248929	0
4	320	730.758287029875	0
4	321	732.549731265938	0
4	326	760.778512054772	0
4	328	762.676109818951	1
4	332	768.56506699801	1
4	333	772.773640153975	0
4	335	777.263713199375	0
4	336	777.263743294663	0
4	338	778.560288534075	0
4	339	778.875205926719	0
4	341	795.990510267887	0
4	342	796.699664698797	0
4	344	803.875283134171	0
4	345	804.170908908033	0
4	347	809.094828093027	0
4	348	812.208835652159	0
4	350	814.571875706268	0
4	351	819.101503544624	0
4	353	820.574063313727	0
4	354	821.555122316781	0
4	356	829.945582910592	0
4	357	830.739065794245	0
4	359	835.06437174103	0
4	360	835.875224271467	0
4	365	850.643575561551	0
4	366	853.050153262367	0
4	378	903.906946611633	0
4	383	930.044493005324	1
4	385	931.999341308693	2
4	388	935.126957832346	3
4	396	955.476969208008	3
4	397	957.703887049983	2
4	398	963.973355410407	1
4	399	966.873862980165	0
4	401	967.986976557275	0
4	402	968.687834902845	0
4	404	971.614401115977	0
4	405	972.506870280541	0
4	407	977.048754828475	0
4	408	978.580373882338	0
4	410	990.426205312561	0
4	414	995.943592048176	1
4	419	1018.623246840069	1
4	420	1019.662690296111	0
4	422	1022.382591948731	0
4	423	1022.615423219539	0
4	427	1028.602936522879	0
4	429	1028.810805650015	1
4	431	1031.816677217716	1
4	433	1033.490433093267	1
4	434	1033.745091777641	1
4	441	1056.603789744537	0
4	445	1061.002901677937	0
4	447	1061.617211057878	0
4	451	1067.267288635778	0
4	453	1071.115293485058	0
4	455	1075.724465931961	0
4	457	1076.082481560829	1
4	458	1076.544971048347	1
4	459	1076.720805917898	0
4	461	1077.735018370196	0
4	462	1078.029707993335	0
4	464	1078.615384691453	0
4	465	1081.511967875027	0
4	467	1081.67931445012	0
4	468	1083.638205123404	0
4	478	1094.866445323894	0
4	480	1097.750951949173	0
4	482	1111.881230236583	0
4	483	1114.336815133975	0
4	487	1121.992740047389	0
4	489	1123.50007895611	0
4	496	1134.933958298035	0
4	498	1135.217004455986	1
4	500	1135.363051972741	2
4	502	1138.932231129405	3
4	504	1143.107994286076	3
4	505	1143.367934693911	2
4	507	1144.787715153364	2
4	508	1146.500580758694	2
4	509	1147.205026626729	1
4	511	1147.283264483279	1
4	512	1147.782928112844	1
4	513	1148.194485853109	0
4	515	1155.69337419801	0
4	517	1156.259289260176	1
4	519	1163.204706882349	2
4	520	1168.024274674257	2
4	522	1170.612254816977	2
4	523	1174.533313793852	2
4	524	1175.022498499081	1
4	528	1180.181000306418	0
4	530	1186.949025027116	0
4	532	1192.333899696592	1
4	534	1197.613977193519	2
4	536	1198.108177697727	3
4	538	1198.606263427609	4
4	539	1200.666442004388	4
4	540	1201.34484504405	3
4	541	1203.251734516097	2
4	542	1205.355186988585	1
4	543	1205.593293739535	0
4	545	1207.102040070224	0
4	546	1209.135428257309	0
4	548	1215.572599614181	0
4	549	1216.378299539085	0
4	551	1231.844375578986	0
4	552	1232.033171265153	0
4	554	1234.910810938707	0
4	555	1235.425157077958	0
4	557	1236.116699961997	0
4	558	1240.693603260626	0
4	560	1247.942971155498	0
4	561	1249.438970312884	0
4	563	1251.188053035955	0
4	564	1252.487380477014	0
4	575	1275.249598754447	0
4	576	1276.628959994665	0
4	578	1285.512833833394	0
4	579	1285.904091169378	0
4	588	1294.031758144982	0
4	590	1300.819020909668	1
4	593	1307.600842877659	1
4	594	1308.130486748456	0
4	596	1310.93961002616	0
4	597	1312.691837334097	0
4	599	1318.003070602428	0
4	600	1319.689571873288	0
4	602	1326.696373353387	0
4	603	1328.248414014258	0
4	605	1332.884941883537	0
4	606	1335.997140478998	0
4	608	1336.650535836356	0
4	612	1353.233178300008	0
4	614	1359.16404557901	0
4	618	1366.636648785843	1
4	621	1375.945051716496	2
4	622	1375.994209497143	2
4	623	1376.02553852395	1
4	624	1381.219875957908	0
4	626	1386.322276825134	0
4	627	1389.767553986163	0
4	629	1395.569428066275	0
4	630	1397.297509004933	0
4	632	1398.224964158521	0
4	634	1404.092529556116	1
4	636	1404.723363852476	2
4	640	1411.263528282476	3
4	642	1412.57128865857	3
4	643	1413.097132330107	2
4	644	1416.44306107102	1
4	646	1420.224574092024	1
4	647	1422.553801637897	1
4	648	1422.915361696446	0
4	655	1442.157175674872	0
4	659	1450.186517457622	1
4	662	1452.524777592798	2
4	664	1456.405852261542	2
4	665	1456.905317310936	1
4	666	1457.547675385915	0
4	670	1471.364551841377	0
4	672	1477.482827981128	0
4	674	1500.292962552547	0
4	675	1505.440724145768	0
4	677	1514.628496105396	0
4	679	1515.391585098206	1
4	680	1515.900615764433	1
4	681	1516.267109167691	0
4	683	1520.075491215183	0
4	684	1520.532144436237	0
4	686	1529.117938344292	0
4	687	1529.792151375307	0
4	689	1536.955543686046	0
4	690	1537.05756659174	0
4	692	1537.272009496688	0
4	693	1539.534145719603	0
4	698	1568.170486611142	0
4	699	1576.488790620989	0
4	701	1579.114421679445	0
4	703	1580.500100178335	1
4	704	1581.189260560008	1
4	705	1582.298647722121	0
4	709	1590.644250055458	0
4	712	1590.825644943243	1
4	713	1598.74265166064	1
4	714	1598.811303421752	0
4	719	1610.664425130129	0
4	720	1612.17378541258	0
4	722	1618.936633049524	0
4	723	1620.908062225404	0
4	725	1647.347486492507	0
4	726	1647.692649403091	0
4	728	1651.645264029249	0
4	729	1655.398811853531	0
4	731	1657.544440275635	0
4	732	1661.118151461303	0
4	734	1667.875743443595	0
4	735	1669.962275355371	0
4	737	1678.961085905515	0
4	738	1679.524056491338	0
4	742	1682.270965130991	0
4	744	1684.632255438677	0
4	751	1708.084792584536	0
4	753	1713.623104352338	1
4	761	1723.283784264192	2
4	764	1728.055282631709	3
4	766	1731.950005401017	4
4	768	1733.335643327318	5
4	770	1737.184569819368	6
4	771	1737.720552839179	6
4	772	1737.929524058199	5
4	773	1739.36623728148	4
4	774	1741.2319064555	3
4	775	1742.271683150796	2
4	780	1746.430995735594	2
4	782	1749.876436639148	3
4	784	1750.623721910651	4
4	785	1754.575604808544	4
4	786	1756.621454892866	3
4	787	1759.120207641951	2
4	788	1759.506077130157	1
4	789	1759.801478800384	0
4	793	1782.186823052272	0
4	795	1786.678947997071	1
4	800	1790.258018996328	1
4	802	1791.887006369677	1
4	803	1794.650250364287	1
4	807	1797.950978938951	1
4	818	1812.285025837788	1
4	819	1812.898034009678	0
4	821	1827.242154249278	0
4	822	1827.531537058022	0
4	824	1850.542439783431	0
4	825	1851.911533201148	0
4	827	1870.004880988581	0
4	828	1870.235864315852	0
4	830	1873.144783037164	0
4	831	1875.635054595207	0
4	833	1884.822081319794	0
4	835	1885.778595246252	1
4	837	1885.811529056579	2
4	838	1893.309774694632	2
4	839	1894.498797172364	1
4	840	1895.038898920883	0
4	842	1897.708087929202	0
4	843	1897.762177195284	0
4	847	1920.744293764123	0
4	849	1922.431835973348	0
4	851	1932.417776871576	0
4	852	1942.04344367816	0
4	854	1957.658186564513	0
4	856	1958.145638604626	1
4	858	1958.20490747963	2
4	859	1958.442857097254	2
4	860	1961.994405332682	1
4	862	1962.041132941032	1
4	863	1964.619893115943	1
4	864	1964.699099318915	0
4	866	1972.339259434377	0
4	867	1974.317688284873	0
4	869	1996.972662773382	0
4	870	1999.215470073525	0
4	872	2001.837521535633	0
4	873	2004.820308483007	0
4	875	2022.651661072584	0
4	876	2024.839161850987	0
4	878	2031.708678368501	0
4	880	2039.16582307412	1
4	881	2039.957407130269	1
4	882	2044.393992777227	0
4	884	2048.602623725115	0
4	885	2049.415985026919	0
4	887	2051.296746386859	0
4	891	2059.136852708343	0
4	893	2060.450138024586	0
4	894	2061.115351954193	0
4	896	2061.864559880863	0
4	898	2065.608353002928	1
4	899	2067.882003110027	1
4	900	2072.553691674325	0
4	902	2073.528318068424	0
4	904	2074.252666708182	1
4	911	2085.361158193406	1
4	912	2087.426888105691	0
4	914	2094.944618720664	0
4	915	2096.207244837426	0
4	919	2111.075776948067	0
4	925	2121.523496411099	1
4	926	2121.723933564194	1
4	927	2122.731309341609	0
4	932	2145.763574788525	0
4	933	2146.180171642644	0
4	935	2151.397617746221	0
4	936	2152.826809500059	0
4	938	2153.562706682703	0
4	939	2154.131835107388	0
4	941	2158.8277209331	0
4	942	2159.579931800966	0
4	944	2161.192638793574	0
4	945	2161.367619245815	0
4	950	2176.623459025381	0
4	955	2181.362624258206	1
4	956	2183.823373341599	1
4	958	2184.414138255062	1
4	959	2187.283971493972	1
4	960	2187.87258845165	0
4	962	2189.569960956599	0
4	963	2190.066330386395	0
4	965	2192.862153177103	0
4	966	2193.799321932159	0
4	968	2214.505848794852	0
4	970	2214.739026256483	1
4	971	2214.837565918653	1
4	972	2215.425008757457	0
4	974	2216.997427399395	0
4	975	2217.63403641094	0
4	977	2228.158970210153	0
4	978	2230.110706997627	0
4	980	2233.589270654671	0
4	981	2234.408654973398	0
4	985	2235.134555999138	0
4	987	2239.711082877799	0
4	989	2245.5746372874	0
4	990	2245.660654577447	0
4	992	2246.434071313046	0
4	993	2252.134283045893	0
4	995	2253.60115613332	0
4	996	2254.3350684391	0
4	1001	2264.722149296945	0
4	1005	2268.784290434962	1
4	1011	2282.192260561595	2
4	1024	2297.26438804666	3
4	1028	2306.451312004043	4
4	1031	2307.906601523895	5
4	1033	2308.451575159593	6
4	1035	2310.57992847033	7
4	1039	2313.938378685859	8
4	1043	2319.089880690129	9
4	1044	2320.305251659028	9
4	1045	2323.068246787854	8
4	1046	2323.21754415577	7
4	1047	2326.784492281896	6
4	1048	2328.347114592095	5
4	1049	2328.987619667704	4
4	1050	2329.47801000437	3
4	1051	2331.843915908283	2
4	1053	2332.875221144699	2
4	1054	2335.380724422037	2
4	1055	2341.464056134756	1
4	1057	2348.332552859931	1
4	1058	2353.360291828574	1
4	1060	2353.692697809273	1
4	1061	2355.310382563709	1
4	1063	2356.62042384619	1
4	1065	2358.091024437805	2
4	1067	2359.250582496203	3
4	1069	2366.186839445675	4
4	1070	2366.451392308449	4
4	1071	2367.622185313463	3
4	1072	2368.585141501042	2
4	1073	2368.618362812202	1
4	1074	2377.512950351484	0
4	1076	2392.876483049199	0
4	1078	2394.55395121754	1
4	1080	2395.905132468107	2
4	1082	2396.699003818489	3
4	1083	2397.296361301494	3
4	1084	2400.750621961283	2
4	1085	2404.990311880569	1
4	1086	2405.045735425021	0
4	1088	2405.987835363148	0
4	1089	2406.195528953737	0
4	1094	2431.543350033688	0
4	1095	2431.754882803725	0
4	1097	2434.969970675909	0
4	1098	2435.440845796025	0
4	1100	2436.854714053433	0
4	1101	2438.16513612185	0
4	1105	2446.703873746544	0
4	1109	2453.818389630889	1
4	1116	2464.591085000307	2
4	1118	2466.762044446235	3
4	1120	2467.46333134511	4
4	1124	2475.219092225462	5
4	1126	2479.611011255182	6
4	1128	2489.955968554364	6
4	1129	2494.387352340985	5
4	1131	2495.728823675633	5
4	1132	2496.463554111289	5
4	1134	2499.804357768263	5
5	161	361.339663494602	0
5	164	367.9828784262	0
5	167	379.513301138535	0
5	175	397.101665789208	16.442192045559
5	178	406.344152868729	12.214888608747
5	179	406.367796239064	2.017353954274
5	182	414.569089808401	4.531733633604
5	192	433.742478062024	7.976736710116
5	193	436.125215628727	8.607403978132
5	194	437.234433187499	3.62762511978
5	197	448.069818965425	0
5	200	456.351270045832	0
5	203	459.559429102439	2.997865319848
5	206	472.719413120029	0
5	209	479.715987329143	5.543886442658
5	251	566.111014019662	63.260662769543
5	252	568.043591122642	63.957168739705
5	253	574.289251293043	67.675054576969
5	254	575.877097353482	65.553748072001
5	255	575.958156549183	53.496603459145
5	258	578.406449425104	44.81415328869
5	259	578.574697345629	38.052027582177
5	264	581.500866238653	34.60618334459
5	265	583.985341789693	34.825908909398
5	266	584.837226375974	18.740447414521
5	269	590.861825451736	14.839682850822
5	270	590.997534495351	11.556306995508
5	271	591.019419329297	10.019852356068
5	276	594.893455848071	5.221217686104
5	277	595.233428842673	1.024076293587
5	280	606.100006866747	11.346604297082
5	285	607.831537773002	9.686829146624
5	286	608.35199842872	1.471071701284
5	289	612.541492664234	5.020865062937
5	292	612.986418415045	4.309821834987
5	293	613.534395637931	0.889234307282
5	296	632.76123856948	0
5	299	636.83562207702	0
5	302	639.506717463818	2.289624142042
5	305	675.410655830787	0
5	308	677.865079647084	0
5	311	687.662234629069	0
5	320	730.758287029875	0
5	326	760.778512054772	0
5	331	765.807081731922	3.130971912971
5	332	768.56506699801	4.210293986276
5	335	777.263713199375	0
5	338	778.560288534075	0
5	341	795.990510267887	0
5	344	803.875283134171	0
5	347	809.094828093027	0
5	350	814.571875706268	0
5	353	820.574063313727	0
5	356	829.945582910592	0
5	359	835.06437174103	0
5	365	850.643575561551	0
5	395	952.504706532458	48.597759920825
5	396	955.476969208008	25.432476202684
5	397	957.703887049983	25.70454574129
5	398	963.973355410407	28.846397578061
5	401	967.986976557275	0
5	404	971.614401115977	0
5	407	977.048754828475	0
5	410	990.426205312561	0
5	415	1012.338480894336	21.429465907483
5	418	1017.894046080508	21.950454032332
5	419	1018.623246840069	5.362199563453
5	422	1022.382591948731	0
5	430	1030.624274626011	2.021338103132
5	431	1031.816677217716	3.005871567701
5	434	1033.745091777641	0.254658684374
5	440	1055.042466561105	20.539441247191
5	446	1061.444560251327	0.44165857339
5	452	1067.415112842335	0.147824206557
5	455	1075.724465931961	0
5	458	1076.544971048347	0.462489487518
5	461	1077.735018370196	0
5	464	1078.615384691453	0
5	467	1081.67931445012	0
5	479	1095.764330189018	0.897884865124
5	482	1111.881230236583	0
5	488	1123.128869395286	1.136129347897
5	503	1141.39057139398	6.456613095945
5	504	1143.107994286076	7.89098983009
5	505	1143.367934693911	8.00488272117
5	508	1146.500580758694	7.568349629289
5	509	1147.205026626729	2.417311473365
5	512	1147.782928112844	0.499663629565
5	515	1155.69337419801	0
5	520	1168.024274674257	11.764985414081
5	523	1174.533313793852	11.328606911503
5	524	1175.022498499081	4.410243682104
5	527	1177.644280712018	2.30909558101
5	530	1186.949025027116	0
5	539	1200.666442004388	8.332542307796
5	540	1201.34484504405	3.730867850531
5	541	1203.251734516097	5.14355681837
5	542	1205.355186988585	6.748923560976
5	545	1207.102040070224	0
5	548	1215.572599614181	0
5	551	1231.844375578986	0
5	554	1234.910810938707	0
5	557	1236.116699961997	0
5	560	1247.942971155498	0
5	563	1251.188053035955	0
5	575	1275.249598754447	0
5	578	1285.512833833394	0
5	592	1307.593555621522	13.56179747654
5	593	1307.600842877659	6.781821967991
5	596	1310.93961002616	0
5	599	1318.003070602428	0
5	602	1326.696373353387	0
5	605	1332.884941883537	0
5	608	1336.650535836356	0
5	611	1349.875722954647	12.652002879033
5	614	1359.16404557901	0
5	619	1369.861537889318	6.341136570344
5	622	1375.994209497143	9.3575607113
5	623	1376.02553852395	0.080486807454
5	626	1386.322276825134	0
5	629	1395.569428066275	0
5	632	1398.224964158521	0
5	641	1412.288982740775	8.196453184659
5	642	1412.57128865857	7.847924806094
5	643	1413.097132330107	6.58424958562
5	644	1416.44306107102	5.179532788544
5	647	1422.553801637897	2.329227545873
5	663	1455.270857392725	13.113681717853
5	664	1456.405852261542	6.21933480392
5	665	1456.905317310936	4.380539718138
5	671	1477.407234086467	6.04268224509
5	674	1500.292962552547	0
5	677	1514.628496105396	0
5	680	1515.900615764433	0.509030666227
5	683	1520.075491215183	0
5	686	1529.117938344292	0
5	689	1536.955543686046	0
5	692	1537.272009496688	0
5	698	1568.170486611142	0
5	701	1579.114421679445	0
5	704	1581.189260560008	0.689160381673
5	710	1590.761169909	0.116919853542
5	713	1598.74265166064	7.917006717397
5	719	1610.664425130129	0
5	722	1618.936633049524	0
5	725	1647.347486492507	0
5	728	1651.645264029249	0
5	731	1657.544440275635	0
5	734	1667.875743443595	0
5	737	1678.961085905515	0
5	743	1683.141306191972	0.870341060981
5	757	1720.281640679435	12.196848094899
5	762	1727.645785148444	14.022680796106
5	771	1737.720552839179	17.164740981609
5	772	1737.929524058199	14.645739794007
5	773	1739.36623728148	11.310954649771
5	774	1741.2319064555	9.281901054483
5	775	1742.271683150796	8.936039823478
5	778	1746.0282368387	8.843667019332
5	785	1754.575604808544	8.927683020904
5	786	1756.621454892866	10.190459157272
5	787	1759.120207641951	9.243771002803
5	788	1759.506077130157	8.882355219506
5	796	1788.033472898866	5.846649846594
5	799	1788.825155217367	2.146207220296
5	800	1790.258018996328	1.963062400277
5	803	1794.650250364287	2.76324399461
5	817	1812.166800098544	14.867613785534
5	818	1812.285025837788	14.334046898837
5	821	1827.242154249278	0
5	824	1850.542439783431	0
5	827	1870.004880988581	0
5	830	1873.144783037164	0
5	833	1884.822081319794	0
5	838	1893.309774694632	7.53117944838
5	839	1894.498797172364	8.687268115785
5	842	1897.708087929202	0
5	848	1922.218213421388	1.473919657265
5	851	1932.417776871576	0
5	854	1957.658186564513	0
5	859	1958.442857097254	0.297218492628
5	860	1961.994405332682	3.789497853052
5	863	1964.619893115943	2.578760174911
5	866	1972.339259434377	0
5	869	1996.972662773382	0
5	872	2001.837521535633	0
5	875	2022.651661072584	0
5	878	2031.708678368501	0
5	881	2039.957407130269	0.791584056149
5	884	2048.602623725115	0
5	887	2051.296746386859	0
5	890	2057.00795585495	4.498861464031
5	893	2060.450138024586	0
5	896	2061.864559880863	0
5	899	2067.882003110027	2.273650107099
5	902	2073.528318068424	0
5	910	2084.726466701822	10.47379999364
5	911	2085.361158193406	10.052483605934
5	914	2094.944618720664	0
5	920	2118.601730336486	7.525953388419
5	923	2121.279259911768	0.203050378092
5	926	2121.723933564194	0.200437153095
5	932	2145.763574788525	0
5	935	2151.397617746221	0
5	938	2153.562706682703	0
5	941	2158.8277209331	0
5	944	2161.192638793574	0
5	950	2176.623459025381	0
5	953	2178.271670256907	1.04344513203
5	956	2183.823373341599	2.460749083393
5	959	2187.283971493972	2.86983323891
5	962	2189.569960956599	0
5	965	2192.862153177103	0
5	968	2214.505848794852	0
5	971	2214.837565918653	0.09853966217
5	974	2216.997427399395	0
5	977	2228.158970210153	0
5	980	2233.589270654671	0
5	986	2238.600779362909	3.466223363771
5	989	2245.5746372874	0
5	992	2246.434071313046	0
5	995	2253.60115613332	0
5	1001	2264.722149296945	0
5	1041	2317.995926490343	53.155541557253
5	1044	2320.305251659028	51.520961224066
5	1045	2323.068246787854	40.875986226259
5	1046	2323.21754415577	25.95315610911
5	1047	2326.784492281896	20.333180277853
5	1048	2328.347114592095	20.4405130682
5	1049	2328.987619667704	20.536044508111
5	1050	2329.47801000437	18.89808153404
5	1051	2331.843915908283	17.905537222424
5	1054	2335.380724422037	16.290843731908
5	1055	2341.464056134756	8.588834990057
5	1058	2353.360291828574	5.027738968643
5	1061	2355.310382563709	1.617684754436
5	1070	2366.451392308449	9.830968462259
5	1071	2367.622185313463	9.531160875658
5	1072	2368.585141501042	9.334559004839
5	1073	2368.618362812202	2.431523366527
5	1076	2392.876483049199	0
5	1083	2397.296361301494	2.742410083954
5	1084	2400.750621961283	4.845489493176
5	1085	2404.990311880569	8.29130806208
5	1088	2405.987835363148	0
5	1094	2431.543350033688	0
5	1097	2434.969970675909	0
5	1100	2436.854714053433	0
5	1127	2485.403270240541	38.699396493997
5	1128	2489.955968554364	36.137578923475
5	1129	2494.387352340985	29.796267340678
5	1132	2496.463554111289	29.701509665054
6	162	363.230282621067	34
6	165	369.050549957252	35
6	179	406.367796239064	36
6	183	414.998872738695	37
6	193	436.125215628727	38
6	194	437.234433187499	39
6	195	437.731495910976	40
6	198	455.51426408519	41
6	203	459.559429102439	42
6	204	460.173857601064	43
6	209	479.715987329143	44
6	210	480.677906899618	45
6	252	568.043591122642	46
6	253	574.289251293043	47
6	254	575.877097353482	48
6	255	575.958156549183	49
6	258	578.406449425104	50
6	259	578.574697345629	51
6	264	581.500866238653	52
6	265	583.985341789693	53
6	266	584.837226375974	54
6	270	590.997534495351	55
6	271	591.019419329297	56
6	276	594.893455848071	57
6	277	595.233428842673	58
6	286	608.35199842872	59
6	289	612.541492664234	60
6	292	612.986418415045	61
6	293	613.534395637931	62
6	294	613.73123929206	63
6	297	635.022168289666	64
6	302	639.506717463818	65
6	303	641.464853932074	66
6	306	677.190269101719	67
6	309	679.366459651396	68
6	312	689.296490248929	69
6	321	732.549731265938	70
6	332	768.56506699801	71
6	333	772.773640153975	72
6	336	777.263743294663	73
6	339	778.875205926719	74
6	342	796.699664698797	75
6	345	804.170908908033	76
6	348	812.208835652159	77
6	351	819.101503544624	78
6	354	821.555122316781	79
6	357	830.739065794245	80
6	360	835.875224271467	81
6	366	853.050153262367	82
6	396	955.476969208008	83
6	397	957.703887049983	84
6	398	963.973355410407	85
6	399	966.873862980165	86
6	402	968.687834902845	87
6	405	972.506870280541	88
6	408	978.580373882338	89
6	419	1018.623246840069	90
6	420	1019.662690296111	91
6	423	1022.615423219539	92
6	431	1031.816677217716	93
6	434	1033.745091777641	94
6	441	1056.603789744537	95
6	447	1061.617211057878	96
6	453	1071.115293485058	97
6	458	1076.544971048347	98
6	459	1076.720805917898	99
6	462	1078.029707993335	100
6	465	1081.511967875027	101
6	468	1083.638205123404	102
6	480	1097.750951949173	103
6	483	1114.336815133975	104
6	489	1123.50007895611	105
6	504	1143.107994286076	106
6	505	1143.367934693911	107
6	508	1146.500580758694	108
6	509	1147.205026626729	109
6	512	1147.782928112844	110
6	513	1148.194485853109	111
6	520	1168.024274674257	112
6	523	1174.533313793852	113
6	524	1175.022498499081	114
6	528	1180.181000306418	115
6	539	1200.666442004388	116
6	540	1201.34484504405	117
6	541	1203.251734516097	118
6	542	1205.355186988585	119
6	543	1205.593293739535	120
6	546	1209.135428257309	121
6	549	1216.378299539085	122
6	552	1232.033171265153	123
6	555	1235.425157077958	124
6	558	1240.693603260626	125
6	561	1249.438970312884	126
6	564	1252.487380477014	127
6	576	1276.628959994665	128
6	579	1285.904091169378	129
6	593	1307.600842877659	130
6	594	1308.130486748456	131
6	597	1312.691837334097	132
6	600	1319.689571873288	133
6	603	1328.248414014258	134
6	606	1335.997140478998	135
6	612	1353.233178300008	136
6	622	1375.994209497143	137
6	623	1376.02553852395	138
6	624	1381.219875957908	139
6	627	1389.767553986163	140
6	630	1397.297509004933	141
6	642	1412.57128865857	142
6	643	1413.097132330107	143
6	644	1416.44306107102	144
6	647	1422.553801637897	145
6	648	1422.915361696446	146
6	664	1456.405852261542	147
6	665	1456.905317310936	148
6	666	1457.547675385915	149
6	672	1477.482827981128	150
6	675	1505.440724145768	151
6	680	1515.900615764433	152
6	681	1516.267109167691	153
6	684	1520.532144436237	154
6	687	1529.792151375307	155
6	690	1537.05756659174	156
6	693	1539.534145719603	157
6	699	1576.488790620989	158
6	704	1581.189260560008	159
6	705	1582.298647722121	160
6	713	1598.74265166064	161
6	714	1598.811303421752	162
6	720	1612.17378541258	163
6	723	1620.908062225404	164
6	726	1647.692649403091	165
6	729	1655.398811853531	166
6	732	1661.118151461303	167
6	735	1669.962275355371	168
6	738	1679.524056491338	169
6	744	1684.632255438677	170
6	771	1737.720552839179	171
6	772	1737.929524058199	172
6	773	1739.36623728148	173
6	774	1741.2319064555	174
6	775	1742.271683150796	175
6	785	1754.575604808544	176
6	786	1756.621454892866	177
6	787	1759.120207641951	178
6	788	1759.506077130157	179
6	789	1759.801478800384	180
6	800	1790.258018996328	181
6	803	1794.650250364287	182
6	818	1812.285025837788	183
6	819	1812.898034009678	184
6	822	1827.531537058022	185
6	825	1851.911533201148	186
6	828	1870.235864315852	187
6	831	1875.635054595207	188
6	838	1893.309774694632	189
6	839	1894.498797172364	190
6	840	1895.038898920883	191
6	843	1897.762177195284	192
6	849	1922.431835973348	193
6	852	1942.04344367816	194
6	859	1958.442857097254	195
6	860	1961.994405332682	196
6	863	1964.619893115943	197
6	864	1964.699099318915	198
6	867	1974.317688284873	199
6	870	1999.215470073525	200
6	873	2004.820308483007	201
6	876	2024.839161850987	202
6	881	2039.957407130269	203
6	882	2044.393992777227	204
6	885	2049.415985026919	205
6	891	2059.136852708343	206
6	894	2061.115351954193	207
6	899	2067.882003110027	208
6	900	2072.553691674325	209
6	911	2085.361158193406	210
6	912	2087.426888105691	211
6	915	2096.207244837426	212
6	926	2121.723933564194	213
6	927	2122.731309341609	214
6	933	2146.180171642644	215
6	936	2152.826809500059	216
6	939	2154.131835107388	217
6	942	2159.579931800966	218
6	945	2161.367619245815	219
6	956	2183.823373341599	220
6	959	2187.283971493972	221
6	960	2187.87258845165	222
6	963	2190.066330386395	223
6	966	2193.799321932159	224
6	971	2214.837565918653	225
6	972	2215.425008757457	226
6	975	2217.63403641094	227
6	978	2230.110706997627	228
6	981	2234.408654973398	229
6	987	2239.711082877799	230
6	990	2245.660654577447	231
6	993	2252.134283045893	232
6	996	2254.3350684391	233
6	1044	2320.305251659028	234
6	1045	2323.068246787854	235
6	1046	2323.21754415577	236
6	1047	2326.784492281896	237
6	1048	2328.347114592095	238
6	1049	2328.987619667704	239
6	1050	2329.47801000437	240
6	1051	2331.843915908283	241
6	1054	2335.380724422037	242
6	1055	2341.464056134756	243
6	1058	2353.360291828574	244
6	1061	2355.310382563709	245
6	1070	2366.451392308449	246
6	1071	2367.622185313463	247
6	1072	2368.585141501042	248
6	1073	2368.618362812202	249
6	1074	2377.512950351484	250
6	1083	2397.296361301494	251
6	1084	2400.750621961283	252
6	1085	2404.990311880569	253
6	1086	2405.045735425021	254
6	1089	2406.195528953737	255
6	1095	2431.754882803725	256
6	1098	2435.440845796025	257
6	1101	2438.16513612185	258
6	1128	2489.955968554364	259
6	1129	2494.387352340985	260
6	1132	2496.463554111289	261
7	162	363.230282621067	1.890619126465
7	165	369.050549957252	1.067671531052
7	179	406.367796239064	12.238531979082
7	183	414.998872738695	4.961516563898
7	193	436.125215628727	10.359474276819
7	194	437.234433187499	9.716621536904
7	195	437.731495910976	4.124687843257
7	198	455.51426408519	7.444445119765
7	203	459.559429102439	3.208159056607
7	204	460.173857601064	3.612293818473
7	209	479.715987329143	6.996574209114
7	210	480.677906899618	6.505806013133
7	252	568.043591122642	65.193239872523
7	253	574.289251293043	70.202828910106
7	254	575.877097353482	69.262900637408
7	255	575.958156549183	65.634807267702
7	258	578.406449425104	55.944896335066
7	259	578.574697345629	44.982401209215
7	264	581.500866238653	40.978196475201
7	265	583.985341789693	37.09065889563
7	266	584.837226375974	35.677793495679
7	270	590.997534495351	14.975391894437
7	271	591.019419329297	11.578191829454
7	276	594.893455848071	13.893888874842
7	277	595.233428842673	5.561190680706
7	286	608.35199842872	10.207289802342
7	289	612.541492664234	5.660565936798
7	292	612.986418415045	5.465790813748
7	293	613.534395637931	4.857799057873
7	294	613.73123929206	1.086077961411
7	297	635.022168289666	2.260929720186
7	302	639.506717463818	2.671095386798
7	303	641.464853932074	4.247760610298
7	306	677.190269101719	1.779613270932
7	309	679.366459651396	1.501380004312
7	312	689.296490248929	1.63425561986
7	321	732.549731265938	1.791444236063
7	332	768.56506699801	5.888957179059
7	333	772.773640153975	8.418867142241
7	336	777.263743294663	3.0095288e-05
7	339	778.875205926719	0.314917392644
7	342	796.699664698797	0.70915443091
7	345	804.170908908033	0.295625773862
7	348	812.208835652159	3.114007559132
7	351	819.101503544624	4.529627838356
7	354	821.555122316781	0.981059003054
7	357	830.739065794245	0.793482883653
7	360	835.875224271467	0.810852530437
7	366	853.050153262367	2.406577700816
7	396	955.476969208008	51.570022596375
7	397	957.703887049983	27.659394044659
7	398	963.973355410407	31.974014101714
7	399	966.873862980165	31.746905147819
7	402	968.687834902845	0.70085834557
7	405	972.506870280541	0.892469164564
7	408	978.580373882338	1.531619053863
7	419	1018.623246840069	22.679654791893
7	420	1019.662690296111	6.401643019495
7	423	1022.615423219539	0.232831270808
7	431	1031.816677217716	3.213740694837
7	434	1033.745091777641	4.934286127626
7	441	1056.603789744537	22.100764430623
7	447	1061.617211057878	0.614309379941
7	453	1071.115293485058	3.84800484928
7	458	1076.544971048347	0.820505116386
7	459	1076.720805917898	0.638324357069
7	462	1078.029707993335	0.294689623139
7	465	1081.511967875027	2.896583183574
7	468	1083.638205123404	1.958890673284
7	480	1097.750951949173	2.884506625279
7	483	1114.336815133975	2.455584897392
7	489	1123.50007895611	1.507338908721
7	504	1143.107994286076	8.174035988041
7	505	1143.367934693911	8.150930237925
7	508	1146.500580758694	11.137528785953
7	509	1147.205026626729	8.272795497324
7	512	1147.782928112844	2.99521295948
7	513	1148.194485853109	0.91122136983
7	520	1168.024274674257	12.330900476247
7	523	1174.533313793852	18.274024533676
7	524	1175.022498499081	11.817791616732
7	528	1180.181000306418	4.84581517541
7	539	1200.666442004388	13.717416977272
7	540	1201.34484504405	9.010945347458
7	541	1203.251734516097	5.637757322578
7	542	1205.355186988585	7.247009290858
7	543	1205.593293739535	6.987030311926
7	546	1209.135428257309	2.033388187085
7	549	1216.378299539085	0.805699924904
7	552	1232.033171265153	0.188795686167
7	555	1235.425157077958	0.514346139251
7	558	1240.693603260626	4.576903298629
7	561	1249.438970312884	1.495999157386
7	564	1252.487380477014	1.299327441059
7	576	1276.628959994665	1.379361240218
7	579	1285.904091169378	0.391257335984
7	593	1307.600842877659	13.569084732677
7	594	1308.130486748456	7.311465838788
7	597	1312.691837334097	1.752227307937
7	600	1319.689571873288	1.68650127086
7	603	1328.248414014258	1.552040660871
7	606	1335.997140478998	3.112198595461
7	612	1353.233178300008	16.009458224394
7	622	1375.994209497143	12.473808178169
7	623	1376.02553852395	9.388889738107
7	624	1381.219875957908	5.274824241412
7	627	1389.767553986163	3.445277161029
7	630	1397.297509004933	1.728080938658
7	642	1412.57128865857	8.478759102454
7	643	1413.097132330107	8.373768477631
7	644	1416.44306107102	9.930178326533
7	647	1422.553801637897	11.290273355421
7	648	1422.915361696446	2.690787604422
7	664	1456.405852261542	14.24867658667
7	665	1456.905317310936	6.718799853314
7	666	1457.547675385915	5.022897793117
7	672	1477.482827981128	6.118276139751
7	675	1505.440724145768	5.147761593221
7	680	1515.900615764433	1.272119659037
7	681	1516.267109167691	0.875524069485
7	684	1520.532144436237	0.456653221054
7	687	1529.792151375307	0.674213031015
7	690	1537.05756659174	0.102022905694
7	693	1539.534145719603	2.262136222915
7	699	1576.488790620989	8.318304009847
7	704	1581.189260560008	2.074838880563
7	705	1582.298647722121	1.798547543786
7	713	1598.74265166064	8.098401605182
7	714	1598.811303421752	7.985658478509
7	720	1612.17378541258	1.509360282451
7	723	1620.908062225404	1.97142917588
7	726	1647.692649403091	0.345162910584
7	729	1655.398811853531	3.753547824282
7	732	1661.118151461303	3.573711185668
7	735	1669.962275355371	2.086531911776
7	738	1679.524056491338	0.562970585823
7	744	1684.632255438677	2.361290307686
7	771	1737.720552839179	24.097448486841
7	772	1737.929524058199	17.373712200629
7	773	1739.36623728148	16.082453017288
7	774	1741.2319064555	13.176623823791
7	775	1742.271683150796	10.321677749779
7	785	1754.575604808544	17.391034989176
7	786	1756.621454892866	10.973533105226
7	787	1759.120207641951	12.689211906357
7	788	1759.506077130157	9.629640491009
7	789	1759.801478800384	9.177756889733
7	800	1790.258018996328	3.579070999257
7	803	1794.650250364287	6.355293768236
7	818	1812.285025837788	14.985839524778
7	819	1812.898034009678	14.947055070727
7	822	1827.531537058022	0.289382808744
7	825	1851.911533201148	1.369093417717
7	828	1870.235864315852	0.230983327271
7	831	1875.635054595207	2.490271558043
7	838	1893.309774694632	8.487693374838
7	839	1894.498797172364	8.720201926112
7	840	1895.038898920883	9.227369864304
7	843	1897.762177195284	0.054089266082
7	849	1922.431835973348	1.687542209225
7	852	1942.04344367816	9.625666806584
7	859	1958.442857097254	0.784670532741
7	860	1961.994405332682	3.848766728056
7	863	1964.619893115943	6.414985636313
7	864	1964.699099318915	2.657966377883
7	867	1974.317688284873	1.978428850496
7	870	1999.215470073525	2.242807300143
7	873	2004.820308483007	2.982786947374
7	876	2024.839161850987	2.187500778403
7	881	2039.957407130269	8.248728761768
7	882	2044.393992777227	5.228169703107
7	885	2049.415985026919	0.813361301804
7	891	2059.136852708343	6.627758317424
7	894	2061.115351954193	0.665213929607
7	899	2067.882003110027	6.017443229164
7	900	2072.553691674325	6.945338671397
7	911	2085.361158193406	11.108491485224
7	912	2087.426888105691	12.118213518219
7	915	2096.207244837426	1.262626116762
7	926	2121.723933564194	0.647724030518
7	927	2122.731309341609	1.20781293051
7	933	2146.180171642644	0.416596854119
7	936	2152.826809500059	1.429191753838
7	939	2154.131835107388	0.569128424685
7	942	2159.579931800966	0.752210867866
7	945	2161.367619245815	0.174980452241
7	956	2183.823373341599	6.595148216722
7	959	2187.283971493972	5.921347235766
7	960	2187.87258845165	3.458450196588
7	963	2190.066330386395	0.496369429796
7	966	2193.799321932159	0.937168755056
7	971	2214.837565918653	0.331717123801
7	972	2215.425008757457	0.685982500974
7	975	2217.63403641094	0.636609011545
7	978	2230.110706997627	1.951736787474
7	981	2234.408654973398	0.819384318727
7	987	2239.711082877799	4.576526878661
7	990	2245.660654577447	0.086017290047
7	993	2252.134283045893	5.700211732847
7	996	2254.3350684391	0.73391230578
7	1044	2320.305251659028	55.464866725938
7	1045	2323.068246787854	54.283956352892
7	1046	2323.21754415577	41.025283594175
7	1047	2326.784492281896	29.520104235236
7	1048	2328.347114592095	21.895802588052
7	1049	2328.987619667704	21.081018143809
7	1050	2329.47801000437	21.026434844777
7	1051	2331.843915908283	21.263987437953
7	1054	2335.380724422037	21.442345736178
7	1055	2341.464056134756	22.374175444627
7	1058	2353.360291828574	20.485070683875
7	1061	2355.310382563709	6.977829703778
7	1070	2366.451392308449	12.758694499176
7	1071	2367.622185313463	11.001761467273
7	1072	2368.585141501042	10.494117063237
7	1073	2368.618362812202	9.367780315999
7	1074	2377.512950351484	11.326110905809
7	1083	2397.296361301494	4.419878252295
7	1084	2400.750621961283	6.196670743743
7	1085	2404.990311880569	9.085179412462
7	1086	2405.045735425021	8.346731606532
7	1089	2406.195528953737	0.207693590589
7	1095	2431.754882803725	0.211532770037
7	1098	2435.440845796025	0.470875120116
7	1101	2438.16513612185	1.310422068417
7	1128	2489.955968554364	43.25209480782
7	1129	2494.387352340985	40.568962710096
7	1132	2496.463554111289	31.872469110982
8	169	380.659473743649	1
8	173	395.971694417465	2
8	177	404.35044228479	1
8	181	410.037356174797	1
8	185	425.519679098172	1
8	212	493.340900375065	1
8	214	493.458722537011	2
8	216	496.742594609582	3
8	228	519.107824800269	2
8	232	524.050395342014	3
8	234	528.76545634016	4
8	238	535.742612840699	5
8	268	589.672238161967	1
8	279	598.144708626378	1
8	284	607.520627601297	1
8	314	702.49001005566	1
8	317	730.410353463151	1
8	323	735.549137058382	1
8	330	764.354773011734	1
8	362	838.86047744023	1
8	368	879.741882111558	1
8	370	882.113317559985	2
8	372	884.446492488943	3
8	374	888.24560307094	4
8	376	895.381730109802	5
8	381	927.517978306195	5
8	392	940.401529101434	3
8	412	990.909014986853	1
8	417	1013.261047276616	1
8	425	1028.545887104851	1
8	436	1034.503025313914	1
8	438	1036.534772003394	2
8	443	1060.691130510771	1
8	449	1063.19383248497	1
8	470	1084.594332712561	1
8	473	1090.754167319039	1
8	476	1094.772215871149	1
8	485	1120.122180825996	1
8	491	1127.896198946203	1
8	493	1131.632484755457	2
8	526	1175.335185131008	1
8	566	1256.60543472736	1
8	568	1258.346007673972	2
8	570	1258.889412571991	3
8	581	1286.342301461403	1
8	583	1286.57494181929	2
8	585	1287.862513521532	3
8	610	1337.223720075614	1
8	616	1363.520401318974	1
8	638	1406.512882744487	1
8	650	1433.648475926042	1
8	652	1435.347326120521	2
8	657	1445.829455077947	2
8	668	1469.693661528508	1
8	695	1564.774017558306	1
8	707	1588.196429206383	1
8	716	1600.231040489507	1
8	740	1682.208424127058	1
8	746	1686.419845939918	1
8	749	1707.679710106683	1
8	755	1716.345476470025	2
8	759	1720.55581185757	1
8	777	1745.64792178764	1
8	791	1779.449199170603	1
8	798	1788.294956596051	1
8	805	1797.29918631301	1
8	809	1798.359156213276	2
8	811	1799.172771781991	3
8	814	1806.766350733902	3
8	845	1917.923427135827	1
8	889	2052.509094390919	1
8	906	2075.308674587472	1
8	908	2082.099549429316	2
8	917	2108.685862315649	1
8	922	2121.076209533676	1
8	929	2142.723683495446	1
8	947	2169.304437475917	1
8	952	2177.228225124877	1
8	983	2234.76196218177	1
8	998	2260.983183628547	1
8	1003	2264.84038493309	1
8	1007	2268.90144810621	2
8	1009	2273.677289607649	3
8	1013	2285.719432706355	4
8	1015	2288.561711981572	5
8	1019	2293.558850252091	4
8	1026	2298.239937262922	2
8	1037	2312.094400186417	2
8	1091	2421.021190455418	1
8	1103	2446.030079873069	1
8	1107	2451.694476261001	2
8	1111	2455.678417661446	3
8	1113	2458.010288498061	4
9	169	380.659473743649	6
9	177	404.35044228479	7
9	181	410.037356174797	8
9	268	589.672238161967	9
9	279	598.144708626378	10
9	284	607.520627601297	11
9	330	764.354773011734	12
9	412	990.909014986853	13
9	417	1013.261047276616	14
9	436	1034.503025313914	15
9	526	1175.335185131008	16
9	610	1337.223720075614	17
9	616	1363.520401318974	18
9	638	1406.512882744487	19
9	759	1720.55581185757	20
9	777	1745.64792178764	21
9	798	1788.294956596051	22
9	805	1797.29918631301	23
9	889	2052.509094390919	24
9	906	2075.308674587472	25
9	922	2121.076209533676	26
9	952	2177.228225124877	27
9	1003	2264.84038493309	28
10	169	380.659473743649	0
10	174	396.886936755524	0.915242338059
10	177	404.35044228479	0
10	181	410.037356174797	0
10	185	425.519679098172	0
10	212	493.340900375065	0
10	217	498.543963978429	5.085241441418
10	226	511.594606160073	14.852011550491
10	239	538.656451095875	19.548626295606
10	246	549.352051591863	25.301656249849
10	247	552.919625744556	24.154169404396
10	248	554.456352606729	18.71373976603
10	268	589.672238161967	0
10	279	598.144708626378	0
10	284	607.520627601297	0
10	314	702.49001005566	0
10	317	730.410353463151	0
10	323	735.549137058382	0
10	330	764.354773011734	0
10	362	838.86047744023	0
10	368	879.741882111558	0
10	379	922.197615843223	40.084298283238
10	386	933.468863451406	49.022370962463
10	389	936.500912251907	48.255309180967
10	390	938.450672000144	43.068941890342
10	393	947.740763039195	20.222784733
10	394	948.335246454658	7.933717353224
10	412	990.909014986853	0
10	417	1013.261047276616	0
10	425	1028.545887104851	0
10	436	1034.503025313914	0
10	439	1053.360310577255	16.825538573861
10	443	1060.691130510771	0
10	449	1063.19383248497	0
10	470	1084.594332712561	0
10	473	1090.754167319039	0
10	476	1094.772215871149	0
10	485	1120.122180825996	0
10	491	1127.896198946203	0
10	494	1132.920345080876	1.287860325419
10	526	1175.335185131008	0
10	566	1256.60543472736	0
10	571	1259.410679535928	1.064671861956
10	572	1264.426333440626	5.536920868635
10	581	1286.342301461403	0
10	586	1293.463049747374	6.888107928084
10	591	1304.648575737828	16.786062216296
10	610	1337.223720075614	0
10	616	1363.520401318974	0
10	638	1406.512882744487	0
10	650	1433.648475926042	0
10	653	1440.338595437782	4.991269317261
10	660	1451.730334503103	5.900879425156
10	668	1469.693661528508	0
10	695	1564.774017558306	0
10	707	1588.196429206383	0
10	716	1600.231040489507	0
10	740	1682.208424127058	0
10	746	1686.419845939918	0
10	749	1707.679710106683	0
10	756	1719.74201884328	3.396542373255
10	759	1720.55581185757	0
10	777	1745.64792178764	0
10	791	1779.449199170603	0
10	798	1788.294956596051	0
10	805	1797.29918631301	0
10	812	1803.077297275414	4.718141062138
10	815	1810.810141293955	11.637369511964
10	816	1811.974448645548	5.208097911646
10	845	1917.923427135827	0
10	889	2052.509094390919	0
10	906	2075.308674587472	0
10	909	2083.801551725536	1.70200229622
10	917	2108.685862315649	0
10	922	2121.076209533676	0
10	929	2142.723683495446	0
10	947	2169.304437475917	0
10	952	2177.228225124877	0
10	983	2234.76196218177	0
10	998	2260.983183628547	0
10	1003	2264.84038493309	0
10	1016	2288.716623259516	19.815175153306
10	1017	2291.417485597371	17.740195989722
10	1020	2294.018319414662	8.298886708307
10	1021	2295.589438780122	7.02772679855
10	1022	2297.002804442403	3.443954190312
10	1029	2306.456852012425	8.216914749503
10	1040	2313.945887524828	1.851487338411
10	1091	2421.021190455418	0
10	1103	2446.030079873069	0
10	1114	2462.936287583907	11.241811322906
10	1121	2472.518528980841	16.840111319395
10	1122	2475.203120997708	17.192832499647
11	1135	2500	0.1044
12	1135	2500	0.0452

