file 62907 1678273405                                           
version 2
run experiments_easy_game_mode1-437-20230308-12:03:25-20593
attr configname experiments_easy_game_mode1
attr datetime 20230308-12:03:25
attr experiment experiments_easy_game_mode1
attr inifile omnetpp.ini
attr iterationvars "$0=5.5, $1=1.5, $2=0"
attr iterationvarsf 5.5,1.5,0-
attr measurement "$0=5.5, $1=1.5, $2=0"
attr network Network
attr processid 20593
attr repetition 17
attr replication #17
attr resultdir results
attr runnumber 437
attr seedset 17
param *.boss.arrival_mean 20
param *.boss.service_mean 5.5
param *.minion.arrival_mean 10
param *.minion.service_mean 1.5
param *.player.recover_rate_x 0
param **.minion.arrival_distribution 0
param **.minion.service_distribution 0
param **.boss.arrival_distribution 0
param **.boss.service_distribution 0

vector 0 Network.player boss_jobs_number_stat:vector ETV
attr source signal_boss_jobs_number
vector 1 Network.player boss_jobs_queue_number_stat:vector ETV
attr source signal_boss_jobs_queue_number
vector 2 Network.player boss_defeated_stat:vector ETV
attr source signal_boss_defeated
vector 3 Network.player boss_response_time_stat:vector ETV
attr source signal_boss_response_time
vector 4 Network.player boss_waiting_time_stat:vector ETV
attr source signal_boss_waiting_time
vector 5 Network.player minion_jobs_number_stat:vector ETV
attr source signal_minion_jobs_number
vector 6 Network.player minion_jobs_queue_number_stat:vector ETV
attr source signal_minion_jobs_queue_number
vector 7 Network.player minion_waiting_time_stat:vector ETV
attr source signal_minion_waiting_time
vector 8 Network.player minion_defeated_stat:vector ETV
attr source signal_minion_defeated
vector 9 Network.player minion_response_time_stat:vector ETV
attr source signal_minion_response_time
vector 10 Network.player minion_recovered_stat:vector ETV
attr source signal_minion_recovered
vector 11 Network.player minion_throughput:vector ETV
attr source signal_minion_throughput
vector 12 Network.player boss_throughput:vector ETV
attr source signal_boss_throughput
0	2021 3035 157 1168 350.171511211393 2489.726720628059 118 1 5 168 308
1	5056 6096 157 1169 350.171511211393 2492.379756541026 237 0 4 100 180
2	11152 3219 158 1169 357.544030458626 2492.379756541026 119 20 138 9401 883099
3	14371 4627 158 1169 357.544030458626 2492.379756541026 119 0.076296884028 37.546162703363 890.98385199249 13176.098828447
4	18998 3497 158 1168 357.544030458626 2489.726720628059 118 0 35.444046053234 270.71729612009 3853.3029171982
5	22495 5641 163 1166 361.587814466951 2488.977018924844 219 1 7 375 959
6	28136 11360 163 1170 361.587814466951 2495.030187060731 441 0 6 315 861
7	39496 8003 164 1169 363.65828712341 2492.379756541026 246 0 42.214779296616 1106.8663505135 20050.998707499
8	47499 6094 165 1170 364.255636133217 2495.030187060731 222 31 252 31413 5356675
9	53593 8617 165 1170 364.255636133217 2495.030187060731 222 0.001512668507 42.812128306423 1261.1298582394 21208.081155048
10	62210 656 168 1168 365.26094743687 2489.726720628059 24 4 27 372 6916
11	62866 20 1171 1171 2500 2500 1 0.1008 0.1008 0.1008 0.01016064
12	62886 20 1171 1171 2500 2500 1 0.0552 0.0552 0.0552 0.00304704

