version 2
run experiments_easy_game_mode1-899-20230308-12:05:05-23263
attr configname experiments_easy_game_mode1
attr datetime 20230308-12:05:05
attr experiment experiments_easy_game_mode1
attr inifile omnetpp.ini
attr iterationvars "$0=6, $1=2, $2=100"
attr iterationvarsf 6,2,100-
attr measurement "$0=6, $1=2, $2=100"
attr network Network
attr processid 23263
attr repetition 29
attr replication #29
attr resultdir results
attr runnumber 899
attr seedset 29
param *.boss.arrival_mean 20
param *.boss.service_mean 6
param *.minion.arrival_mean 10
param *.minion.service_mean 2
param *.player.recover_rate_x 100
param **.minion.arrival_distribution 0
param **.minion.service_distribution 0
param **.boss.arrival_distribution 0
param **.boss.service_distribution 0

vector 0 Network.player boss_jobs_number_stat:vector ETV
attr source signal_boss_jobs_number
vector 1 Network.player boss_jobs_queue_number_stat:vector ETV
attr source signal_boss_jobs_queue_number
vector 2 Network.player boss_waiting_time_stat:vector ETV
attr source signal_boss_waiting_time
vector 3 Network.player boss_defeated_stat:vector ETV
attr source signal_boss_defeated
vector 4 Network.player boss_response_time_stat:vector ETV
attr source signal_boss_response_time
vector 5 Network.player minion_jobs_number_stat:vector ETV
attr source signal_minion_jobs_number
vector 6 Network.player minion_jobs_queue_number_stat:vector ETV
attr source signal_minion_jobs_queue_number
vector 7 Network.player minion_waiting_time_stat:vector ETV
attr source signal_minion_waiting_time
vector 8 Network.player minion_defeated_stat:vector ETV
attr source signal_minion_defeated
vector 9 Network.player minion_response_time_stat:vector ETV
attr source signal_minion_response_time
vector 10 Network.player minion_recovered_stat:vector ETV
attr source signal_minion_recovered
vector 11 Network.player minion_throughput:vector ETV
attr source signal_minion_throughput
vector 12 Network.player boss_throughput:vector ETV
attr source signal_boss_throughput
0	149	361.021825549164	1
0	152	377.990665820572	1
0	154	378.253915431294	2
0	167	422.009642860919	1
0	171	440.507768153143	2
0	194	523.73951392862	1
0	197	530.555131859566	1
0	202	545.373125084985	1
0	218	589.35608943426	1
0	221	610.291214639623	1
0	224	615.800908427453	1
0	254	652.662135001111	1
0	259	662.997675276741	1
0	266	681.988222083014	1
0	284	722.609711117216	1
0	287	742.368989217759	1
0	290	751.111928766331	1
0	317	799.632860009152	1
0	329	814.853493710681	1
0	347	860.107364097815	1
0	350	863.381446274853	1
0	353	873.232163967375	1
0	355	875.141813991404	2
0	365	896.29040962463	1
0	371	900.777193276199	2
0	394	924.490335754125	1
0	398	944.436092298924	1
0	401	951.47929612701	1
0	431	1011.77198842037	1
0	434	1012.512646375906	1
0	448	1038.37111930574	1
0	486	1124.687148995609	1
0	491	1134.14472775205	1
0	493	1136.014676504768	2
0	498	1150.696087075246	2
0	504	1163.995141988292	1
0	506	1164.834707420463	2
0	510	1175.182035494463	1
0	521	1230.359838712003	1
0	536	1257.761287405401	1
0	542	1277.139323562446	1
0	546	1284.576761460268	2
0	554	1290.546818596825	3
0	556	1290.626256761703	4
0	558	1295.97049487972	5
0	564	1303.980580883593	4
0	568	1309.463716143574	5
0	582	1347.514072646773	2
0	597	1388.786029090884	1
0	605	1400.099639158162	1
0	623	1448.468959825449	1
0	644	1540.065042446857	1
0	658	1583.325883925548	1
0	660	1586.275170027452	2
0	671	1613.626189748491	1
0	673	1614.26675634966	2
0	677	1628.988584949879	1
0	679	1633.042512394715	2
0	692	1654.225093828105	1
0	695	1663.525897776844	1
0	724	1734.077240528806	1
0	739	1749.437982594428	1
0	755	1799.40592340194	1
0	770	1818.494866855502	1
0	782	1844.445977291195	1
0	785	1857.169951238713	1
0	788	1865.263090597383	1
0	791	1870.89228262137	1
0	794	1874.166523009959	1
0	796	1875.969531453931	2
0	803	1894.574768464284	1
0	830	1956.269871227903	1
0	832	1958.634551972986	2
0	846	1983.36840924784	1
0	854	2008.698798874346	1
0	869	2040.337147864579	1
0	884	2060.761979702989	1
0	890	2072.43993907191	1
0	905	2125.454313612626	1
0	917	2161.780818154514	1
0	921	2164.572453140033	2
0	923	2165.34997202045	3
0	932	2184.469118021856	1
0	938	2206.677665640295	1
0	943	2213.274337973245	1
0	946	2217.002569442759	1
0	950	2221.137838314775	1
0	971	2272.148163070228	1
0	973	2275.806883192869	2
0	979	2280.659867074338	1
0	983	2285.193654503639	1
0	986	2296.706842502531	1
0	990	2299.904511665169	2
0	994	2307.946249155461	3
0	1018	2328.895385620355	1
0	1021	2339.416810040685	1
0	1023	2339.425908011321	2
0	1027	2342.523346328393	1
0	1034	2367.255355255618	1
0	1055	2436.401942894968	1
0	1064	2455.75371522284	1
1	149	361.021825549164	0
1	150	362.947069182943	0
1	152	377.990665820572	0
1	154	378.253915431294	1
1	157	381.258889023954	1
1	158	384.37113616287	0
1	167	422.009642860919	0
1	171	440.507768153143	1
1	174	448.094932124796	1
1	177	449.380240941571	0
1	194	523.73951392862	0
1	195	524.307468729366	0
1	197	530.555131859566	0
1	198	532.384201811973	0
1	202	545.373125084985	0
1	203	546.154450307197	0
1	218	589.35608943426	0
1	219	609.433287220097	0
1	221	610.291214639623	0
1	222	614.946942207641	0
1	224	615.800908427453	0
1	227	619.670253686504	0
1	254	652.662135001111	0
1	257	662.110745549786	0
1	259	662.997675276741	0
1	260	667.807262714145	0
1	266	681.988222083014	0
1	269	684.913971486829	0
1	284	722.609711117216	0
1	285	723.636629374921	0
1	287	742.368989217759	0
1	288	744.749902903057	0
1	290	751.111928766331	0
1	291	753.702653430396	0
1	317	799.632860009152	0
1	318	799.898727535345	0
1	329	814.853493710681	0
1	330	827.582582456686	0
1	347	860.107364097815	0
1	348	862.587487703406	0
1	350	863.381446274853	0
1	351	867.219326455981	0
1	353	873.232163967375	0
1	355	875.141813991404	1
1	358	877.932755529612	1
1	359	886.480001864598	0
1	365	896.29040962463	0
1	371	900.777193276199	1
1	372	901.11938653028	1
1	375	906.65507452272	0
1	394	924.490335754125	0
1	395	932.065750629971	0
1	398	944.436092298924	0
1	399	950.63706618026	0
1	401	951.47929612701	0
1	406	956.463079155803	0
1	431	1011.77198842037	0
1	432	1012.042546982053	0
1	434	1012.512646375906	0
1	437	1017.994985377679	0
1	448	1038.37111930574	0
1	451	1045.066540003814	0
1	486	1124.687148995609	0
1	489	1133.985948700028	0
1	491	1134.14472775205	0
1	493	1136.014676504768	1
1	494	1143.601476983243	1
1	498	1150.696087075246	1
1	499	1155.578716284456	1
1	500	1158.612918018555	0
1	504	1163.995141988292	0
1	506	1164.834707420463	1
1	507	1173.800045063542	1
1	508	1175.121978279537	0
1	510	1175.182035494463	0
1	511	1177.022871464319	0
1	521	1230.359838712003	0
1	522	1231.28745930171	0
1	536	1257.761287405401	0
1	539	1262.946643796403	0
1	542	1277.139323562446	0
1	546	1284.576761460268	1
1	554	1290.546818596825	2
1	556	1290.626256761703	3
1	558	1295.97049487972	4
1	561	1299.81950972285	4
1	562	1300.695801626515	3
1	564	1303.980580883593	3
1	568	1309.463716143574	4
1	569	1318.751131324517	4
1	572	1323.887176469976	3
1	575	1333.433803653056	2
1	576	1333.695688721358	1
1	582	1347.514072646773	1
1	583	1350.494764575128	1
1	588	1360.582775507927	0
1	597	1388.786029090884	0
1	598	1390.420818002476	0
1	605	1400.099639158162	0
1	606	1402.122670471321	0
1	623	1448.468959825449	0
1	626	1458.019299777083	0
1	644	1540.065042446857	0
1	647	1557.678674098904	0
1	658	1583.325883925548	0
1	660	1586.275170027452	1
1	661	1587.320455385527	1
1	666	1597.81110512947	0
1	671	1613.626189748491	0
1	673	1614.26675634966	1
1	674	1620.193593017624	1
1	675	1620.452596476363	0
1	677	1628.988584949879	0
1	679	1633.042512394715	1
1	682	1636.573178330019	1
1	683	1639.584096855357	0
1	692	1654.225093828105	0
1	693	1655.769453060578	0
1	695	1663.525897776844	0
1	698	1665.710436521541	0
1	724	1734.077240528806	0
1	729	1742.299573881421	0
1	739	1749.437982594428	0
1	742	1758.193685174874	0
1	755	1799.40592340194	0
1	760	1801.901071676034	0
1	770	1818.494866855502	0
1	771	1818.982413462805	0
1	782	1844.445977291195	0
1	783	1845.085662391627	0
1	785	1857.169951238713	0
1	786	1861.326767630877	0
1	788	1865.263090597383	0
1	789	1865.642655317084	0
1	791	1870.89228262137	0
1	792	1874.11872573749	0
1	794	1874.166523009959	0
1	796	1875.969531453931	1
1	797	1877.053012677902	1
1	798	1884.617853499812	0
1	803	1894.574768464284	0
1	808	1901.715190717685	0
1	830	1956.269871227903	0
1	832	1958.634551972986	1
1	835	1962.625193070886	1
1	842	1979.442738209941	0
1	846	1983.36840924784	0
1	847	1985.826716806104	0
1	854	2008.698798874346	0
1	855	2012.591723971079	0
1	869	2040.337147864579	0
1	874	2042.867045982549	0
1	884	2060.761979702989	0
1	887	2067.825660407142	0
1	890	2072.43993907191	0
1	891	2074.162430766142	0
1	905	2125.454313612626	0
1	906	2135.107549981698	0
1	917	2161.780818154514	0
1	921	2164.572453140033	1
1	923	2165.34997202045	2
1	924	2166.381176377668	2
1	925	2170.256664962677	1
1	926	2176.230042329775	0
1	932	2184.469118021856	0
1	933	2188.294090783443	0
1	938	2206.677665640295	0
1	939	2208.083819071886	0
1	943	2213.274337973245	0
1	944	2216.143270708246	0
1	946	2217.002569442759	0
1	947	2217.785973239773	0
1	950	2221.137838314775	0
1	959	2242.575017841104	0
1	971	2272.148163070228	0
1	973	2275.806883192869	1
1	976	2276.54042762702	1
1	977	2278.684934148998	0
1	979	2280.659867074338	0
1	980	2281.344686486092	0
1	983	2285.193654503639	0
1	984	2290.064026851255	0
1	986	2296.706842502531	0
1	990	2299.904511665169	1
1	994	2307.946249155461	2
1	997	2308.241641762659	2
1	998	2310.534563108864	1
1	999	2311.127530850364	0
1	1018	2328.895385620355	0
1	1019	2338.485604756958	0
1	1021	2339.416810040685	0
1	1023	2339.425908011321	1
1	1024	2341.069417462951	1
1	1025	2341.311488689273	0
1	1027	2342.523346328393	0
1	1030	2351.06757778065	0
1	1034	2367.255355255618	0
1	1035	2370.340704331341	0
1	1055	2436.401942894968	0
1	1060	2440.919446601618	0
1	1064	2455.75371522284	0
1	1065	2456.065952855087	0
2	149	361.021825549164	0
2	152	377.990665820572	0
2	157	381.258889023954	3.00497359266
2	167	422.009642860919	0
2	174	448.094932124796	7.587163971653
2	194	523.73951392862	0
2	197	530.555131859566	0
2	202	545.373125084985	0
2	218	589.35608943426	0
2	221	610.291214639623	0
2	224	615.800908427453	0
2	254	652.662135001111	0
2	259	662.997675276741	0
2	266	681.988222083014	0
2	284	722.609711117216	0
2	287	742.368989217759	0
2	290	751.111928766331	0
2	317	799.632860009152	0
2	329	814.853493710681	0
2	347	860.107364097815	0
2	350	863.381446274853	0
2	353	873.232163967375	0
2	358	877.932755529612	2.790941538208
2	365	896.29040962463	0
2	372	901.11938653028	0.342193254081
2	394	924.490335754125	0
2	398	944.436092298924	0
2	401	951.47929612701	0
2	431	1011.77198842037	0
2	434	1012.512646375906	0
2	448	1038.37111930574	0
2	486	1124.687148995609	0
2	491	1134.14472775205	0
2	494	1143.601476983243	7.586800478475
2	499	1155.578716284456	4.88262920921
2	504	1163.995141988292	0
2	507	1173.800045063542	8.965337643079
2	510	1175.182035494463	0
2	521	1230.359838712003	0
2	536	1257.761287405401	0
2	542	1277.139323562446	0
2	561	1299.81950972285	15.242748262582
2	562	1300.695801626515	10.14898302969
2	569	1318.751131324517	28.124874562814
2	572	1323.887176469976	27.916681590256
2	575	1333.433803653056	29.453222769463
2	576	1333.695688721358	24.231972577784
2	583	1350.494764575128	2.980691928355
2	597	1388.786029090884	0
2	605	1400.099639158162	0
2	623	1448.468959825449	0
2	644	1540.065042446857	0
2	658	1583.325883925548	0
2	661	1587.320455385527	1.045285358075
2	671	1613.626189748491	0
2	674	1620.193593017624	5.926836667964
2	677	1628.988584949879	0
2	682	1636.573178330019	3.530665935304
2	692	1654.225093828105	0
2	695	1663.525897776844	0
2	724	1734.077240528806	0
2	739	1749.437982594428	0
2	755	1799.40592340194	0
2	770	1818.494866855502	0
2	782	1844.445977291195	0
2	785	1857.169951238713	0
2	788	1865.263090597383	0
2	791	1870.89228262137	0
2	794	1874.166523009959	0
2	797	1877.053012677902	1.083481223971
2	803	1894.574768464284	0
2	830	1956.269871227903	0
2	835	1962.625193070886	3.9906410979
2	846	1983.36840924784	0
2	854	2008.698798874346	0
2	869	2040.337147864579	0
2	884	2060.761979702989	0
2	890	2072.43993907191	0
2	905	2125.454313612626	0
2	917	2161.780818154514	0
2	924	2166.381176377668	1.808723237635
2	925	2170.256664962677	4.906692942227
2	932	2184.469118021856	0
2	938	2206.677665640295	0
2	943	2213.274337973245	0
2	946	2217.002569442759	0
2	950	2221.137838314775	0
2	971	2272.148163070228	0
2	976	2276.54042762702	0.733544434151
2	979	2280.659867074338	0
2	983	2285.193654503639	0
2	986	2296.706842502531	0
2	997	2308.241641762659	8.33713009749
2	998	2310.534563108864	2.588313953403
2	1018	2328.895385620355	0
2	1021	2339.416810040685	0
2	1024	2341.069417462951	1.64350945163
2	1027	2342.523346328393	0
2	1034	2367.255355255618	0
2	1055	2436.401942894968	0
2	1064	2455.75371522284	0
3	150	362.947069182943	14
3	157	381.258889023954	15
3	158	384.37113616287	16
3	174	448.094932124796	17
3	177	449.380240941571	18
3	195	524.307468729366	19
3	198	532.384201811973	20
3	203	546.154450307197	21
3	219	609.433287220097	22
3	222	614.946942207641	23
3	227	619.670253686504	24
3	257	662.110745549786	25
3	260	667.807262714145	26
3	269	684.913971486829	27
3	285	723.636629374921	28
3	288	744.749902903057	29
3	291	753.702653430396	30
3	318	799.898727535345	31
3	330	827.582582456686	32
3	348	862.587487703406	33
3	351	867.219326455981	34
3	358	877.932755529612	35
3	359	886.480001864598	36
3	372	901.11938653028	37
3	375	906.65507452272	38
3	395	932.065750629971	39
3	399	950.63706618026	40
3	406	956.463079155803	41
3	432	1012.042546982053	42
3	437	1017.994985377679	43
3	451	1045.066540003814	44
3	489	1133.985948700028	45
3	494	1143.601476983243	46
3	499	1155.578716284456	47
3	500	1158.612918018555	48
3	507	1173.800045063542	49
3	508	1175.121978279537	50
3	511	1177.022871464319	51
3	522	1231.28745930171	52
3	539	1262.946643796403	53
3	561	1299.81950972285	54
3	562	1300.695801626515	55
3	569	1318.751131324517	56
3	572	1323.887176469976	57
3	575	1333.433803653056	58
3	576	1333.695688721358	59
3	583	1350.494764575128	60
3	588	1360.582775507927	61
3	598	1390.420818002476	62
3	606	1402.122670471321	63
3	626	1458.019299777083	64
3	647	1557.678674098904	65
3	661	1587.320455385527	66
3	666	1597.81110512947	67
3	674	1620.193593017624	68
3	675	1620.452596476363	69
3	682	1636.573178330019	70
3	683	1639.584096855357	71
3	693	1655.769453060578	72
3	698	1665.710436521541	73
3	729	1742.299573881421	74
3	742	1758.193685174874	75
3	760	1801.901071676034	76
3	771	1818.982413462805	77
3	783	1845.085662391627	78
3	786	1861.326767630877	79
3	789	1865.642655317084	80
3	792	1874.11872573749	81
3	797	1877.053012677902	82
3	798	1884.617853499812	83
3	808	1901.715190717685	84
3	835	1962.625193070886	85
3	842	1979.442738209941	86
3	847	1985.826716806104	87
3	855	2012.591723971079	88
3	874	2042.867045982549	89
3	887	2067.825660407142	90
3	891	2074.162430766142	91
3	906	2135.107549981698	92
3	924	2166.381176377668	93
3	925	2170.256664962677	94
3	926	2176.230042329775	95
3	933	2188.294090783443	96
3	939	2208.083819071886	97
3	944	2216.143270708246	98
3	947	2217.785973239773	99
3	959	2242.575017841104	100
3	976	2276.54042762702	101
3	977	2278.684934148998	102
3	980	2281.344686486092	103
3	984	2290.064026851255	104
3	997	2308.241641762659	105
3	998	2310.534563108864	106
3	999	2311.127530850364	107
3	1019	2338.485604756958	108
3	1024	2341.069417462951	109
3	1025	2341.311488689273	110
3	1030	2351.06757778065	111
3	1035	2370.340704331341	112
3	1060	2440.919446601618	113
3	1065	2456.065952855087	114
4	150	362.947069182943	1.925243633779
4	157	381.258889023954	3.268223203382
4	158	384.37113616287	6.117220731576
4	174	448.094932124796	26.085289263877
4	177	449.380240941571	8.872472788428
4	195	524.307468729366	0.567954800746
4	198	532.384201811973	1.829069952407
4	203	546.154450307197	0.781325222212
4	219	609.433287220097	20.077197785837
4	222	614.946942207641	4.655727568018
4	227	619.670253686504	3.869345259051
4	257	662.110745549786	9.448610548675
4	260	667.807262714145	4.809587437404
4	269	684.913971486829	2.925749403815
4	285	723.636629374921	1.026918257705
4	288	744.749902903057	2.380913685298
4	291	753.702653430396	2.590724664065
4	318	799.898727535345	0.265867526193
4	330	827.582582456686	12.729088746005
4	348	862.587487703406	2.480123605591
4	351	867.219326455981	3.837880181128
4	358	877.932755529612	4.700591562237
4	359	886.480001864598	11.338187873194
4	372	901.11938653028	4.82897690565
4	375	906.65507452272	5.877881246521
4	395	932.065750629971	7.575414875846
4	399	950.63706618026	6.200973881336
4	406	956.463079155803	4.983783028793
4	432	1012.042546982053	0.270558561683
4	437	1017.994985377679	5.482339001773
4	451	1045.066540003814	6.695420698074
4	489	1133.985948700028	9.298799704419
4	494	1143.601476983243	9.456749231193
4	499	1155.578716284456	19.564039779688
4	500	1158.612918018555	7.916830943309
4	507	1173.800045063542	9.80490307525
4	508	1175.121978279537	10.287270859074
4	511	1177.022871464319	1.840835969856
4	522	1231.28745930171	0.927620589707
4	539	1262.946643796403	5.185356391002
4	561	1299.81950972285	22.680186160404
4	562	1300.695801626515	16.119040166247
4	569	1318.751131324517	28.204312727692
4	572	1323.887176469976	33.260919708273
4	575	1333.433803653056	37.463308773336
4	576	1333.695688721358	29.715107837765
4	583	1350.494764575128	41.031048431554
4	588	1360.582775507927	13.068702861154
4	598	1390.420818002476	1.634788911592
4	606	1402.122670471321	2.023031313159
4	626	1458.019299777083	9.550339951634
4	647	1557.678674098904	17.613631652047
4	661	1587.320455385527	3.994571459979
4	666	1597.81110512947	11.535935102018
4	674	1620.193593017624	6.567403269133
4	675	1620.452596476363	6.185840126703
4	682	1636.573178330019	7.58459338014
4	683	1639.584096855357	6.541584460642
4	693	1655.769453060578	1.544359232473
4	698	1665.710436521541	2.184538744697
4	729	1742.299573881421	8.222333352615
4	742	1758.193685174874	8.755702580446
4	760	1801.901071676034	2.495148274094
4	771	1818.982413462805	0.487546607303
4	783	1845.085662391627	0.639685100432
4	786	1861.326767630877	4.156816392164
4	789	1865.642655317084	0.379564719701
4	792	1874.11872573749	3.22644311612
4	797	1877.053012677902	2.886489667943
4	798	1884.617853499812	8.648322045881
4	808	1901.715190717685	7.140422253401
4	835	1962.625193070886	6.355321842983
4	842	1979.442738209941	20.808186236955
4	847	1985.826716806104	2.458307558264
4	855	2012.591723971079	3.892925096733
4	874	2042.867045982549	2.52989811797
4	887	2067.825660407142	7.063680704153
4	891	2074.162430766142	1.722491694232
4	906	2135.107549981698	9.653236369072
4	924	2166.381176377668	4.600358223154
4	925	2170.256664962677	5.684211822644
4	926	2176.230042329775	10.880070309325
4	933	2188.294090783443	3.824972761587
4	939	2208.083819071886	1.406153431591
4	944	2216.143270708246	2.868932735001
4	947	2217.785973239773	0.783403797014
4	959	2242.575017841104	21.437179526329
4	976	2276.54042762702	4.392264556792
4	977	2278.684934148998	2.878050956129
4	980	2281.344686486092	0.684819411754
4	984	2290.064026851255	4.870372347616
4	997	2308.241641762659	11.534799260128
4	998	2310.534563108864	10.630051443695
4	999	2311.127530850364	3.181281694903
4	1019	2338.485604756958	9.590219136603
4	1024	2341.069417462951	1.652607422266
4	1025	2341.311488689273	1.885580677952
4	1030	2351.06757778065	8.544231452257
4	1035	2370.340704331341	3.085349075723
4	1060	2440.919446601618	4.51750370665
4	1065	2456.065952855087	0.312237632247
5	156	379.608095313354	1
5	161	385.157042033546	1
5	164	399.228233649482	1
5	169	426.29441775287	1
5	173	443.660282730514	2
5	176	448.882770349587	3
5	182	458.137377426833	1
5	185	465.826518938555	1
5	188	494.833255579592	1
5	191	499.822669747212	1
5	200	545.209727119979	1
5	206	556.326563719439	1
5	209	572.24175660314	1
5	212	575.863779244195	1
5	214	577.881832968284	2
5	226	618.606462312563	1
5	230	621.290089637664	1
5	232	624.589581645086	2
5	234	627.159808616859	3
5	239	636.156734196456	1
5	242	638.695588633048	1
5	244	639.503912377234	2
5	246	641.651605112762	3
5	251	648.446565023337	1
5	256	656.54974981075	1
5	263	679.39638457525	1
5	268	682.973119520857	1
5	272	694.937514966378	1
5	275	709.632194269071	1
5	277	711.758812941697	2
5	280	714.745063282436	2
5	293	780.526003935068	1
5	295	782.044152913347	2
5	299	785.118702325468	1
5	302	786.82893246052	1
5	305	792.211735403243	1
5	308	794.650893746256	1
5	311	796.164645718989	1
5	314	797.919207288304	1
5	320	800.659176556938	1
5	323	802.145561068497	1
5	326	811.00518497882	1
5	332	837.601350145641	1
5	335	842.808892412795	1
5	338	850.859225738186	1
5	341	852.072682488855	1
5	344	856.159958446072	1
5	357	877.773073587536	1
5	362	893.64717916577	1
5	367	896.443773630609	1
5	369	899.605850019362	2
5	374	906.490154822813	3
5	378	908.845874933179	3
5	380	909.068777480588	4
5	382	910.906698195825	5
5	385	913.501120803603	5
5	392	923.456570972861	1
5	403	953.896826670245	1
5	405	955.784633106749	2
5	408	959.402928374506	3
5	412	967.655498130466	2
5	416	977.727526974586	1
5	419	986.483345419537	1
5	422	992.65484243738	1
5	425	1000.462186581842	1
5	428	1006.176726943197	1
5	436	1017.427407056631	1
5	440	1023.333185885289	1
5	443	1035.575057615901	1
5	445	1036.397542892707	2
5	450	1042.071307097477	2
5	455	1053.311955600887	1
5	458	1068.628170045546	1
5	460	1068.7372523909	2
5	464	1076.558449330755	1
5	467	1085.269920578633	1
5	470	1090.503816550838	1
5	473	1108.756096424927	1
5	475	1109.014040151767	2
5	479	1111.825117276107	1
5	482	1117.188075728243	1
5	484	1118.573341036805	2
5	488	1130.12602680693	3
5	496	1145.944497366466	4
5	515	1191.074306916834	1
5	518	1224.317871195993	1
5	524	1239.415299962359	1
5	527	1241.319226478284	1
5	530	1246.698348383056	1
5	533	1249.075240055608	1
5	538	1262.228682128353	1
5	544	1281.456586332296	1
5	548	1285.868618464094	2
5	550	1287.995910071284	3
5	552	1290.105014442061	4
5	560	1297.064115025479	5
5	566	1309.251003332188	6
5	571	1322.970381474386	7
5	574	1327.054292896169	8
5	578	1337.426373481282	9
5	580	1339.570652825673	10
5	585	1353.57388117284	11
5	587	1354.516585092584	12
5	608	1421.845319537203	1
5	611	1433.077455864582	1
5	613	1434.570566934513	2
5	617	1436.700873309931	1
5	620	1444.299171092421	1
5	625	1451.583659890725	1
5	629	1462.140670769399	1
5	632	1486.551119297569	1
5	635	1496.223907441521	1
5	638	1523.68482419876	1
5	641	1535.830083928314	1
5	646	1552.15528015073	1
5	650	1569.113611818043	1
5	653	1574.59712260323	1
5	655	1577.783622414697	2
5	663	1588.000980001104	2
5	665	1592.596152355802	3
5	681	1636.55918818209	1
5	685	1640.641096239258	2
5	689	1650.918419052956	1
5	697	1663.785704815084	1
5	701	1667.004304150596	1
5	704	1674.644996918479	1
5	706	1675.406868188611	2
5	710	1683.621375205935	1
5	713	1691.870758945599	1
5	716	1720.321633944097	1
5	719	1728.242047121611	1
5	722	1733.304477625183	1
5	726	1736.123190533158	2
5	728	1736.909763431248	3
5	732	1745.044126709653	3
5	735	1748.564229081137	3
5	737	1749.269661046032	4
5	741	1753.344411509976	5
5	749	1768.415993221564	1
5	752	1784.209010264732	1
5	757	1800.178677377241	1
5	759	1800.95833616599	2
5	762	1802.963572909128	3
5	765	1808.674857293738	3
5	773	1823.070351810148	1
5	775	1823.916015992079	2
5	779	1834.242923632817	1
5	800	1884.674211425783	1
5	805	1897.934943306775	1
5	807	1899.021409378431	2
5	812	1908.271706007079	1
5	815	1911.895429355032	1
5	818	1914.724388814061	1
5	821	1919.490991222787	1
5	824	1923.241762418407	1
5	827	1936.92438258832	1
5	834	1961.501522926047	1
5	837	1965.216661545734	2
5	839	1976.143259682891	3
5	841	1977.106085114153	4
5	851	2002.049166686635	1
5	857	2014.824804974099	1
5	860	2026.435831902888	1
5	862	2026.746619278247	2
5	866	2034.2767880203	1
5	871	2040.832134308452	1
5	873	2041.731501973777	2
5	877	2044.394175563752	2
5	881	2057.540071414153	1
5	886	2064.678649429053	1
5	893	2100.643440090761	1
5	896	2109.735389103771	1
5	899	2114.55518655679	1
5	902	2119.70008837266	1
5	908	2141.252353958549	1
5	911	2145.214967111336	1
5	914	2156.225819555676	1
5	919	2162.801836191714	1
5	929	2176.399567796595	1
5	935	2206.400218154673	1
5	941	2212.910426022293	1
5	952	2223.822523938987	1
5	954	2229.518382743654	2
5	956	2237.356526885323	3
5	958	2242.16939733723	4
5	965	2249.811830180648	1
5	968	2260.677147560681	1
5	975	2276.381357349022	1
5	988	2299.593657816942	1
5	992	2305.917559909468	2
5	996	2308.049972561187	3
5	1001	2311.300208667409	4
5	1003	2311.517313327987	5
5	1009	2317.103988873237	2
5	1011	2321.252529477898	3
5	1014	2324.894460081239	3
5	1029	2345.158710441866	2
5	1037	2393.48451685585	1
5	1040	2409.027012630994	1
5	1043	2414.534346640401	1
5	1045	2418.902692042539	2
5	1048	2419.493416931437	2
5	1052	2432.165685310105	1
5	1057	2437.386547876681	1
5	1059	2439.315187646736	2
5	1067	2461.210077954654	1
5	1070	2463.600744450632	1
5	1072	2464.886615128397	2
6	156	379.608095313354	0
6	159	385.033021165036	0
6	161	385.157042033546	0
6	162	387.804506651979	0
6	164	399.228233649482	0
6	165	400.981143716599	0
6	169	426.29441775287	0
6	173	443.660282730514	1
6	176	448.882770349587	2
6	178	449.458977171266	2
6	179	449.514529354869	1
6	180	453.271853008128	0
6	182	458.137377426833	0
6	183	458.198929629993	0
6	185	465.826518938555	0
6	186	466.096228682464	0
6	188	494.833255579592	0
6	189	494.877456225711	0
6	191	499.822669747212	0
6	192	501.734239519453	0
6	200	545.209727119979	0
6	204	547.685891321192	0
6	206	556.326563719439	0
6	207	558.820166925084	0
6	209	572.24175660314	0
6	210	572.403149940376	0
6	212	575.863779244195	0
6	214	577.881832968284	1
6	215	580.499686684847	1
6	216	584.855846282889	0
6	226	618.606462312563	0
6	228	619.897643006735	0
6	230	621.290089637664	0
6	232	624.589581645086	1
6	234	627.159808616859	2
6	235	628.360347673942	2
6	236	628.593421405287	1
6	237	632.129049644713	0
6	239	636.156734196456	0
6	240	637.447242886004	0
6	242	638.695588633048	0
6	244	639.503912377234	1
6	246	641.651605112762	2
6	247	641.787768814907	2
6	248	643.846368155496	1
6	249	646.467825614633	0
6	251	648.446565023337	0
6	252	650.722292674444	0
6	256	656.54974981075	0
6	261	675.907060665522	0
6	263	679.39638457525	0
6	264	680.999551843807	0
6	268	682.973119520857	0
6	270	686.336328580285	0
6	272	694.937514966378	0
6	273	699.018071947702	0
6	275	709.632194269071	0
6	277	711.758812941697	1
6	278	714.412463005547	1
6	280	714.745063282436	1
6	281	715.276728261265	1
6	282	717.101769039851	0
6	293	780.526003935068	0
6	295	782.044152913347	1
6	296	782.758430287604	1
6	297	784.340598747346	0
6	299	785.118702325468	0
6	300	786.778367486041	0
6	302	786.82893246052	0
6	303	789.623365432551	0
6	305	792.211735403243	0
6	306	792.347604302596	0
6	308	794.650893746256	0
6	309	794.865437319731	0
6	311	796.164645718989	0
6	312	796.89147954411	0
6	314	797.919207288304	0
6	315	797.985497703953	0
6	320	800.659176556938	0
6	321	800.926373491729	0
6	323	802.145561068497	0
6	324	804.939283845989	0
6	326	811.00518497882	0
6	327	813.264106284863	0
6	332	837.601350145641	0
6	333	838.507350882093	0
6	335	842.808892412795	0
6	336	844.113997964026	0
6	338	850.859225738186	0
6	339	850.980970038733	0
6	341	852.072682488855	0
6	342	852.400457001819	0
6	344	856.159958446072	0
6	345	856.934235692505	0
6	357	877.773073587536	0
6	360	886.754136153063	0
6	362	893.64717916577	0
6	363	896.0238846276	0
6	367	896.443773630609	0
6	369	899.605850019362	1
6	374	906.490154822813	2
6	376	908.729654615867	2
6	378	908.845874933179	2
6	380	909.068777480588	3
6	382	910.906698195825	4
6	383	912.6237478032	4
6	385	913.501120803603	4
6	386	917.615879760012	4
6	387	917.762675165487	3
6	388	919.969130522316	2
6	389	921.107443784705	1
6	390	921.17726547213	0
6	392	923.456570972861	0
6	396	933.982645129909	0
6	403	953.896826670245	0
6	405	955.784633106749	1
6	408	959.402928374506	2
6	409	962.430687059766	2
6	410	965.806846034415	1
6	412	967.655498130466	1
6	413	968.362361297871	1
6	414	972.172953182703	0
6	416	977.727526974586	0
6	417	982.529087016359	0
6	419	986.483345419537	0
6	420	986.875942228687	0
6	422	992.65484243738	0
6	423	994.72396635935	0
6	425	1000.462186581842	0
6	426	1002.847116107818	0
6	428	1006.176726943197	0
6	429	1009.276717606271	0
6	436	1017.427407056631	0
6	438	1019.382309458937	0
6	440	1023.333185885289	0
6	441	1025.399324916411	0
6	443	1035.575057615901	0
6	445	1036.397542892707	1
6	446	1038.183832145455	1
6	450	1042.071307097477	1
6	452	1047.362985633248	1
6	453	1049.882017248862	0
6	455	1053.311955600887	0
6	456	1053.919926225085	0
6	458	1068.628170045546	0
6	460	1068.7372523909	1
6	461	1069.043585369542	1
6	462	1075.598248521242	0
6	464	1076.558449330755	0
6	465	1078.446099911833	0
6	467	1085.269920578633	0
6	468	1085.422179210497	0
6	470	1090.503816550838	0
6	471	1093.436785078494	0
6	473	1108.756096424927	0
6	475	1109.014040151767	1
6	476	1110.003956797089	1
6	477	1110.484219285251	0
6	479	1111.825117276107	0
6	480	1112.525261578765	0
6	482	1117.188075728243	0
6	484	1118.573341036805	1
6	488	1130.12602680693	2
6	496	1145.944497366466	3
6	501	1159.932110225591	3
6	502	1162.443900688109	2
6	512	1178.183003585317	1
6	513	1181.038943758874	0
6	515	1191.074306916834	0
6	516	1192.699277404689	0
6	518	1224.317871195993	0
6	519	1227.34111847635	0
6	524	1239.415299962359	0
6	525	1240.54209401154	0
6	527	1241.319226478284	0
6	528	1241.850728747954	0
6	530	1246.698348383056	0
6	531	1246.843074068171	0
6	533	1249.075240055608	0
6	534	1249.443464940009	0
6	538	1262.228682128353	0
6	540	1265.30055086675	0
6	544	1281.456586332296	0
6	548	1285.868618464094	1
6	550	1287.995910071284	2
6	552	1290.105014442061	3
6	560	1297.064115025479	4
6	566	1309.251003332188	5
6	571	1322.970381474386	6
6	574	1327.054292896169	7
6	578	1337.426373481282	8
6	580	1339.570652825673	9
6	585	1353.57388117284	10
6	587	1354.516585092584	11
6	589	1362.179582219659	11
6	590	1364.99265269702	10
6	591	1370.748659493945	9
6	592	1373.939347325315	8
6	593	1382.455793043759	7
6	594	1385.266478993737	6
6	595	1388.157505216169	5
6	599	1391.058199998482	4
6	600	1394.094769061198	3
6	601	1394.764879801819	2
6	602	1395.839577488385	1
6	603	1396.890045466618	0
6	608	1421.845319537203	0
6	609	1422.086906226548	0
6	611	1433.077455864582	0
6	613	1434.570566934513	1
6	614	1434.939570037853	1
6	615	1435.659943746203	0
6	617	1436.700873309931	0
6	618	1438.869979885113	0
6	620	1444.299171092421	0
6	621	1444.666402257015	0
6	625	1451.583659890725	0
6	627	1460.629603748089	0
6	629	1462.140670769399	0
6	630	1463.331217758195	0
6	632	1486.551119297569	0
6	633	1486.865509593249	0
6	635	1496.223907441521	0
6	636	1497.373310377829	0
6	638	1523.68482419876	0
6	639	1527.324685347551	0
6	641	1535.830083928314	0
6	642	1536.338507776636	0
6	646	1552.15528015073	0
6	648	1559.018736937791	0
6	650	1569.113611818043	0
6	651	1569.458633539838	0
6	653	1574.59712260323	0
6	655	1577.783622414697	1
6	656	1582.174319134618	1
6	663	1588.000980001104	1
6	665	1592.596152355802	2
6	667	1600.804731007309	2
6	668	1601.869830031456	1
6	669	1603.999886801668	0
6	681	1636.55918818209	0
6	685	1640.641096239258	1
6	686	1642.955222110905	1
6	687	1644.059277640767	0
6	689	1650.918419052956	0
6	690	1651.13439792395	0
6	697	1663.785704815084	0
6	699	1666.277934353648	0
6	701	1667.004304150596	0
6	702	1672.066855605103	0
6	704	1674.644996918479	0
6	706	1675.406868188611	1
6	707	1678.589589611182	1
6	708	1681.056247187612	0
6	710	1683.621375205935	0
6	711	1686.82931661099	0
6	713	1691.870758945599	0
6	714	1691.95930034289	0
6	716	1720.321633944097	0
6	717	1722.22471100254	0
6	719	1728.242047121611	0
6	720	1729.458544616075	0
6	722	1733.304477625183	0
6	726	1736.123190533158	1
6	728	1736.909763431248	2
6	730	1743.833080237459	2
6	732	1745.044126709653	2
6	733	1745.935318682328	2
6	735	1748.564229081137	2
6	737	1749.269661046032	3
6	741	1753.344411509976	4
6	743	1763.037194939387	4
6	744	1766.001629500978	3
6	745	1766.045486838389	2
6	746	1766.435043910679	1
6	747	1767.249446955297	0
6	749	1768.415993221564	0
6	750	1776.163999367702	0
6	752	1784.209010264732	0
6	753	1785.271319046146	0
6	757	1800.178677377241	0
6	759	1800.95833616599	1
6	762	1802.963572909128	2
6	763	1803.839656543835	2
6	765	1808.674857293738	2
6	766	1811.600367937637	2
6	767	1813.090041491848	1
6	768	1814.699102982952	0
6	773	1823.070351810148	0
6	775	1823.916015992079	1
6	776	1824.797042832391	1
6	777	1827.920431744874	0
6	779	1834.242923632817	0
6	780	1836.884532229497	0
6	800	1884.674211425783	0
6	801	1892.442042901613	0
6	805	1897.934943306775	0
6	807	1899.021409378431	1
6	809	1903.008555886375	1
6	810	1903.332773217794	0
6	812	1908.271706007079	0
6	813	1909.903579315743	0
6	815	1911.895429355032	0
6	816	1914.45636199021	0
6	818	1914.724388814061	0
6	819	1918.675233809546	0
6	821	1919.490991222787	0
6	822	1921.59352281972	0
6	824	1923.241762418407	0
6	825	1930.983352797125	0
6	827	1936.92438258832	0
6	828	1939.278302535482	0
6	834	1961.501522926047	0
6	837	1965.216661545734	1
6	839	1976.143259682891	2
6	841	1977.106085114153	3
6	843	1980.816713261412	3
6	844	1982.333675347467	2
6	848	1993.326835024595	1
6	849	1994.714687208337	0
6	851	2002.049166686635	0
6	852	2003.941282093393	0
6	857	2014.824804974099	0
6	858	2014.835455879238	0
6	860	2026.435831902888	0
6	862	2026.746619278247	1
6	863	2031.241987358263	1
6	864	2031.547461578229	0
6	866	2034.2767880203	0
6	867	2034.598971054328	0
6	871	2040.832134308452	0
6	873	2041.731501973777	1
6	875	2043.299330721545	1
6	877	2044.394175563752	1
6	878	2046.008238668835	1
6	879	2048.12278445893	0
6	881	2057.540071414153	0
6	882	2058.099693637729	0
6	886	2064.678649429053	0
6	888	2071.620045483477	0
6	893	2100.643440090761	0
6	894	2101.345903150507	0
6	896	2109.735389103771	0
6	897	2111.085104408932	0
6	899	2114.55518655679	0
6	900	2115.329491453806	0
6	902	2119.70008837266	0
6	903	2120.370411886624	0
6	908	2141.252353958549	0
6	909	2142.172936171081	0
6	911	2145.214967111336	0
6	912	2145.907775868808	0
6	914	2156.225819555676	0
6	915	2159.495624787606	0
6	919	2162.801836191714	0
6	927	2176.338556415893	0
6	929	2176.399567796595	0
6	930	2181.003597733693	0
6	935	2206.400218154673	0
6	936	2206.539055818594	0
6	941	2212.910426022293	0
6	948	2218.009187167449	0
6	952	2223.822523938987	0
6	954	2229.518382743654	1
6	956	2237.356526885323	2
6	958	2242.16939733723	3
6	960	2242.880431156148	3
6	961	2244.19702941156	2
6	962	2247.129566171678	1
6	963	2247.493903195067	0
6	965	2249.811830180648	0
6	966	2249.826203348461	0
6	968	2260.677147560681	0
6	969	2262.779386390552	0
6	975	2276.381357349022	0
6	981	2281.934749393339	0
6	988	2299.593657816942	0
6	992	2305.917559909468	1
6	996	2308.049972561187	2
6	1001	2311.300208667409	3
6	1003	2311.517313327987	4
6	1004	2312.38839942619	4
6	1005	2312.742891929002	3
6	1006	2313.21674648162	2
6	1007	2313.274969241479	1
6	1009	2317.103988873237	1
6	1011	2321.252529477898	2
6	1012	2323.105163333023	2
6	1014	2324.894460081239	2
6	1015	2325.025140172656	2
6	1016	2327.314603300515	1
6	1029	2345.158710441866	1
6	1031	2358.881671609379	1
6	1032	2362.797121789961	0
6	1037	2393.48451685585	0
6	1038	2398.324099984472	0
6	1040	2409.027012630994	0
6	1041	2409.196252727701	0
6	1043	2414.534346640401	0
6	1045	2418.902692042539	1
6	1046	2419.140274468543	1
6	1048	2419.493416931437	1
6	1049	2420.402726204646	1
6	1050	2420.747591579652	0
6	1052	2432.165685310105	0
6	1053	2433.386026552162	0
6	1057	2437.386547876681	0
6	1059	2439.315187646736	1
6	1061	2443.87960812033	1
6	1062	2447.394060827285	0
6	1067	2461.210077954654	0
6	1068	2463.154598149981	0
6	1070	2463.600744450632	0
6	1072	2464.886615128397	1
6	1073	2466.680921204881	1
6	1074	2467.126082562153	0
7	158	384.37113616287	4.763040849516
7	161	385.157042033546	0
7	164	399.228233649482	0
7	177	449.380240941571	23.085823188701
7	178	449.458977171266	5.798694440752
7	179	449.514529354869	0.631759005282
7	182	458.137377426833	0
7	185	465.826518938555	0
7	188	494.833255579592	0
7	191	499.822669747212	0
7	200	545.209727119979	0
7	203	546.154450307197	0.781325222212
7	206	556.326563719439	0
7	209	572.24175660314	0
7	212	575.863779244195	0
7	215	580.499686684847	2.617853716563
7	227	619.670253686504	1.063791373941
7	230	621.290089637664	0
7	235	628.360347673942	3.770766028856
7	236	628.593421405287	1.433612788428
7	239	636.156734196456	0
7	242	638.695588633048	0
7	247	641.787768814907	2.283856437673
7	248	643.846368155496	2.194763042734
7	251	648.446565023337	0
7	257	662.110745549786	5.560995739036
7	260	667.807262714145	4.809587437404
7	263	679.39638457525	0
7	269	684.913971486829	1.940851965972
7	272	694.937514966378	0
7	275	709.632194269071	0
7	278	714.412463005547	2.65365006385
7	281	715.276728261265	0.531664978829
7	293	780.526003935068	0
7	296	782.758430287604	0.714277374257
7	299	785.118702325468	0
7	302	786.82893246052	0
7	305	792.211735403243	0
7	308	794.650893746256	0
7	311	796.164645718989	0
7	314	797.919207288304	0
7	320	800.659176556938	0
7	323	802.145561068497	0
7	326	811.00518497882	0
7	332	837.601350145641	0
7	335	842.808892412795	0
7	338	850.859225738186	0
7	341	852.072682488855	0
7	344	856.159958446072	0
7	359	886.480001864598	8.706928277062
7	362	893.64717916577	0
7	375	906.65507452272	10.211300892111
7	376	908.729654615867	9.123804596505
7	383	912.6237478032	6.133592980387
7	386	917.615879760012	8.770004826833
7	387	917.762675165487	8.693897684899
7	388	919.969130522316	9.062432326491
7	389	921.107443784705	7.606322981102
7	392	923.456570972861	0
7	395	932.065750629971	7.575414875846
7	406	956.463079155803	2.566252485558
7	409	962.430687059766	6.646053953017
7	410	965.806846034415	6.403917659909
7	413	968.362361297871	0.706863167405
7	416	977.727526974586	0
7	419	986.483345419537	0
7	422	992.65484243738	0
7	425	1000.462186581842	0
7	428	1006.176726943197	0
7	437	1017.994985377679	0.567578321048
7	440	1023.333185885289	0
7	443	1035.575057615901	0
7	446	1038.183832145455	1.786289252748
7	451	1045.066540003814	6.695420698074
7	452	1047.362985633248	5.291678535771
7	455	1053.311955600887	0
7	458	1068.628170045546	0
7	461	1069.043585369542	0.306332978642
7	464	1076.558449330755	0
7	467	1085.269920578633	0
7	470	1090.503816550838	0
7	473	1108.756096424927	0
7	476	1110.003956797089	0.989916645322
7	479	1111.825117276107	0
7	482	1117.188075728243	0
7	489	1133.985948700028	15.412607663223
7	500	1158.612918018555	33.925769022946
7	501	1159.932110225591	29.806083418661
7	502	1162.443900688109	28.299172936059
7	508	1175.121978279537	29.177480913071
7	511	1177.022871464319	13.027729476027
7	512	1178.183003585317	3.000968090854
7	515	1191.074306916834	0
7	518	1224.317871195993	0
7	524	1239.415299962359	0
7	527	1241.319226478284	0
7	530	1246.698348383056	0
7	533	1249.075240055608	0
7	539	1262.946643796403	0.71796166805
7	588	1360.582775507927	79.126189175631
7	589	1362.179582219659	76.310963755565
7	590	1364.99265269702	76.996742625736
7	591	1370.748659493945	80.643645051884
7	592	1373.939347325315	76.875232299836
7	593	1382.455793043759	73.204789711571
7	594	1385.266478993737	62.296097519351
7	595	1388.157505216169	61.10321232
7	598	1390.420818002476	52.994444521194
7	599	1391.058199998482	51.487547172809
7	600	1394.094769061198	40.520887888358
7	601	1394.764879801819	40.248294709235
7	602	1395.839577488385	7.053548397501
7	608	1421.845319537203	0
7	611	1433.077455864582	0
7	614	1434.939570037853	0.36900310334
7	617	1436.700873309931	0
7	620	1444.299171092421	0
7	626	1458.019299777083	6.435639886358
7	629	1462.140670769399	0
7	632	1486.551119297569	0
7	635	1496.223907441521	0
7	638	1523.68482419876	0
7	641	1535.830083928314	0
7	647	1557.678674098904	5.523393948174
7	650	1569.113611818043	0
7	653	1574.59712260323	0
7	656	1582.174319134618	4.390696719921
7	666	1597.81110512947	14.485221203922
7	667	1600.804731007309	12.803751006205
7	668	1601.869830031456	9.273677675654
7	683	1639.584096855357	3.024908673267
7	686	1642.955222110905	2.314125871647
7	689	1650.918419052956	0
7	698	1665.710436521541	1.924731706457
7	701	1667.004304150596	0
7	704	1674.644996918479	0
7	707	1678.589589611182	3.182721422571
7	710	1683.621375205935	0
7	713	1691.870758945599	0
7	716	1720.321633944097	0
7	719	1728.242047121611	0
7	722	1733.304477625183	0
7	729	1742.299573881421	8.222333352615
7	730	1743.833080237459	7.709889704301
7	733	1745.935318682328	9.02555525108
7	742	1758.193685174874	13.149558465221
7	743	1763.037194939387	14.47296585825
7	744	1766.001629500978	16.731968454946
7	745	1766.045486838389	16.607504243961
7	746	1766.435043910679	13.090632400703
7	749	1768.415993221564	0
7	752	1784.209010264732	0
7	760	1801.901071676034	1.722394298793
7	763	1803.839656543835	2.881320377845
7	766	1811.600367937637	8.636795028509
7	767	1813.090041491848	4.41518419811
7	773	1823.070351810148	0
7	776	1824.797042832391	0.881026840312
7	779	1834.242923632817	0
7	800	1884.674211425783	0
7	808	1901.715190717685	3.78024741091
7	809	1903.008555886375	3.987146507944
7	812	1908.271706007079	0
7	815	1911.895429355032	0
7	818	1914.724388814061	0
7	821	1919.490991222787	0
7	824	1923.241762418407	0
7	827	1936.92438258832	0
7	842	1979.442738209941	17.941215283894
7	843	1980.816713261412	15.600051715678
7	844	1982.333675347467	6.190415664576
7	847	1985.826716806104	8.720631691951
7	848	1993.326835024595	9.958425776755
7	851	2002.049166686635	0
7	857	2014.824804974099	0
7	860	2026.435831902888	0
7	863	2031.241987358263	4.495368080016
7	866	2034.2767880203	0
7	874	2042.867045982549	2.034911674097
7	875	2043.299330721545	1.567828747768
7	878	2046.008238668835	1.614063105083
7	881	2057.540071414153	0
7	887	2067.825660407142	3.147010978089
7	893	2100.643440090761	0
7	896	2109.735389103771	0
7	899	2114.55518655679	0
7	902	2119.70008837266	0
7	908	2141.252353958549	0
7	911	2145.214967111336	0
7	914	2156.225819555676	0
7	926	2176.230042329775	13.428206138061
7	929	2176.399567796595	0
7	935	2206.400218154673	0
7	941	2212.910426022293	0
7	944	2216.143270708246	2.868932735001
7	947	2217.785973239773	0.783403797014
7	959	2242.575017841104	18.752493902117
7	960	2242.880431156148	13.362048412494
7	961	2244.19702941156	6.840502526237
7	962	2247.129566171678	4.960168834448
7	965	2249.811830180648	0
7	968	2260.677147560681	0
7	977	2278.684934148998	2.303576799976
7	980	2281.344686486092	0.684819411754
7	999	2311.127530850364	11.533873033422
7	1004	2312.38839942619	6.470839516722
7	1005	2312.742891929002	4.692919367815
7	1006	2313.21674648162	1.916537814211
7	1007	2313.274969241479	1.757655913492
7	1012	2323.105163333023	6.001174459786
7	1015	2325.025140172656	3.772610694758
7	1016	2327.314603300515	2.420143219276
7	1019	2338.485604756958	9.590219136603
7	1025	2341.311488689273	1.894678648588
7	1030	2351.06757778065	8.544231452257
7	1031	2358.881671609379	13.722961167513
7	1037	2393.48451685585	0
7	1040	2409.027012630994	0
7	1043	2414.534346640401	0
7	1046	2419.140274468543	0.237582426004
7	1049	2420.402726204646	0.909309273209
7	1052	2432.165685310105	0
7	1060	2440.919446601618	3.532898724937
7	1061	2443.87960812033	4.564420473594
7	1067	2461.210077954654	0
7	1070	2463.600744450632	0
7	1073	2466.680921204881	1.794306076484
8	159	385.033021165036	37
8	162	387.804506651979	38
8	165	400.981143716599	39
8	178	449.458977171266	40
8	179	449.514529354869	41
8	180	453.271853008128	42
8	183	458.198929629993	43
8	186	466.096228682464	44
8	189	494.877456225711	45
8	192	501.734239519453	46
8	204	547.685891321192	47
8	207	558.820166925084	48
8	210	572.403149940376	49
8	215	580.499686684847	50
8	216	584.855846282889	51
8	228	619.897643006735	52
8	235	628.360347673942	53
8	236	628.593421405287	54
8	237	632.129049644713	55
8	240	637.447242886004	56
8	247	641.787768814907	57
8	248	643.846368155496	58
8	249	646.467825614633	59
8	252	650.722292674444	60
8	261	675.907060665522	61
8	264	680.999551843807	62
8	270	686.336328580285	63
8	273	699.018071947702	64
8	278	714.412463005547	65
8	281	715.276728261265	66
8	282	717.101769039851	67
8	296	782.758430287604	68
8	297	784.340598747346	69
8	300	786.778367486041	70
8	303	789.623365432551	71
8	306	792.347604302596	72
8	309	794.865437319731	73
8	312	796.89147954411	74
8	315	797.985497703953	75
8	321	800.926373491729	76
8	324	804.939283845989	77
8	327	813.264106284863	78
8	333	838.507350882093	79
8	336	844.113997964026	80
8	339	850.980970038733	81
8	342	852.400457001819	82
8	345	856.934235692505	83
8	360	886.754136153063	84
8	363	896.0238846276	85
8	376	908.729654615867	86
8	383	912.6237478032	87
8	386	917.615879760012	88
8	387	917.762675165487	89
8	388	919.969130522316	90
8	389	921.107443784705	91
8	390	921.17726547213	92
8	396	933.982645129909	93
8	409	962.430687059766	94
8	410	965.806846034415	95
8	413	968.362361297871	96
8	414	972.172953182703	97
8	417	982.529087016359	98
8	420	986.875942228687	99
8	423	994.72396635935	100
8	426	1002.847116107818	101
8	429	1009.276717606271	102
8	438	1019.382309458937	103
8	441	1025.399324916411	104
8	446	1038.183832145455	105
8	452	1047.362985633248	106
8	453	1049.882017248862	107
8	456	1053.919926225085	108
8	461	1069.043585369542	109
8	462	1075.598248521242	110
8	465	1078.446099911833	111
8	468	1085.422179210497	112
8	471	1093.436785078494	113
8	476	1110.003956797089	114
8	477	1110.484219285251	115
8	480	1112.525261578765	116
8	501	1159.932110225591	117
8	502	1162.443900688109	118
8	512	1178.183003585317	119
8	513	1181.038943758874	120
8	516	1192.699277404689	121
8	519	1227.34111847635	122
8	525	1240.54209401154	123
8	528	1241.850728747954	124
8	531	1246.843074068171	125
8	534	1249.443464940009	126
8	540	1265.30055086675	127
8	589	1362.179582219659	128
8	590	1364.99265269702	129
8	591	1370.748659493945	130
8	592	1373.939347325315	131
8	593	1382.455793043759	132
8	594	1385.266478993737	133
8	595	1388.157505216169	134
8	599	1391.058199998482	135
8	600	1394.094769061198	136
8	601	1394.764879801819	137
8	602	1395.839577488385	138
8	603	1396.890045466618	139
8	609	1422.086906226548	140
8	614	1434.939570037853	141
8	615	1435.659943746203	142
8	618	1438.869979885113	143
8	621	1444.666402257015	144
8	627	1460.629603748089	145
8	630	1463.331217758195	146
8	633	1486.865509593249	147
8	636	1497.373310377829	148
8	639	1527.324685347551	149
8	642	1536.338507776636	150
8	648	1559.018736937791	151
8	651	1569.458633539838	152
8	656	1582.174319134618	153
8	667	1600.804731007309	154
8	668	1601.869830031456	155
8	669	1603.999886801668	156
8	686	1642.955222110905	157
8	687	1644.059277640767	158
8	690	1651.13439792395	159
8	699	1666.277934353648	160
8	702	1672.066855605103	161
8	707	1678.589589611182	162
8	708	1681.056247187612	163
8	711	1686.82931661099	164
8	714	1691.95930034289	165
8	717	1722.22471100254	166
8	720	1729.458544616075	167
8	730	1743.833080237459	168
8	733	1745.935318682328	169
8	743	1763.037194939387	170
8	744	1766.001629500978	171
8	745	1766.045486838389	172
8	746	1766.435043910679	173
8	747	1767.249446955297	174
8	750	1776.163999367702	175
8	753	1785.271319046146	176
8	763	1803.839656543835	177
8	766	1811.600367937637	178
8	767	1813.090041491848	179
8	768	1814.699102982952	180
8	776	1824.797042832391	181
8	777	1827.920431744874	182
8	780	1836.884532229497	183
8	801	1892.442042901613	184
8	809	1903.008555886375	185
8	810	1903.332773217794	186
8	813	1909.903579315743	187
8	816	1914.45636199021	188
8	819	1918.675233809546	189
8	822	1921.59352281972	190
8	825	1930.983352797125	191
8	828	1939.278302535482	192
8	843	1980.816713261412	193
8	844	1982.333675347467	194
8	848	1993.326835024595	195
8	849	1994.714687208337	196
8	852	2003.941282093393	197
8	858	2014.835455879238	198
8	863	2031.241987358263	199
8	864	2031.547461578229	200
8	867	2034.598971054328	201
8	875	2043.299330721545	202
8	878	2046.008238668835	203
8	879	2048.12278445893	204
8	882	2058.099693637729	205
8	888	2071.620045483477	206
8	894	2101.345903150507	207
8	897	2111.085104408932	208
8	900	2115.329491453806	209
8	903	2120.370411886624	210
8	909	2142.172936171081	211
8	912	2145.907775868808	212
8	915	2159.495624787606	213
8	927	2176.338556415893	214
8	930	2181.003597733693	215
8	936	2206.539055818594	216
8	948	2218.009187167449	217
8	960	2242.880431156148	218
8	961	2244.19702941156	219
8	962	2247.129566171678	220
8	963	2247.493903195067	221
8	966	2249.826203348461	222
8	969	2262.779386390552	223
8	981	2281.934749393339	224
8	1004	2312.38839942619	225
8	1005	2312.742891929002	226
8	1006	2313.21674648162	227
8	1007	2313.274969241479	228
8	1012	2323.105163333023	229
8	1015	2325.025140172656	230
8	1016	2327.314603300515	231
8	1031	2358.881671609379	232
8	1032	2362.797121789961	233
8	1038	2398.324099984472	234
8	1041	2409.196252727701	235
8	1046	2419.140274468543	236
8	1049	2420.402726204646	237
8	1050	2420.747591579652	238
8	1053	2433.386026552162	239
8	1061	2443.87960812033	240
8	1062	2447.394060827285	241
8	1068	2463.154598149981	242
8	1073	2466.680921204881	243
8	1074	2467.126082562153	244
9	159	385.033021165036	5.424925851682
9	162	387.804506651979	2.647464618433
9	165	400.981143716599	1.752910067117
9	178	449.458977171266	23.164559418396
9	179	449.514529354869	5.854246624355
9	180	453.271853008128	4.389082658541
9	183	458.198929629993	0.06155220316
9	186	466.096228682464	0.269709743909
9	189	494.877456225711	0.044200646119
9	192	501.734239519453	1.911569772241
9	204	547.685891321192	2.312766236207
9	207	558.820166925084	2.493603205645
9	210	572.403149940376	0.161393337236
9	215	580.499686684847	4.635907440652
9	216	584.855846282889	6.974013314605
9	228	619.897643006735	1.291180694172
9	235	628.360347673942	7.070258036278
9	236	628.593421405287	4.003839760201
9	237	632.129049644713	4.969241027854
9	240	637.447242886004	1.290508689548
9	247	641.787768814907	3.092180181859
9	248	643.846368155496	4.342455778262
9	249	646.467825614633	4.816220501871
9	252	650.722292674444	2.275727651107
9	261	675.907060665522	12.909385388781
9	264	680.999551843807	1.603167268557
9	270	686.336328580285	3.363209059428
9	273	699.018071947702	4.080556981324
9	278	714.412463005547	4.780268736476
9	281	715.276728261265	3.517915319568
9	282	717.101769039851	2.356705757415
9	296	782.758430287604	2.232426352536
9	297	784.340598747346	2.296445833999
9	300	786.778367486041	1.659665160573
9	303	789.623365432551	2.794432972031
9	306	792.347604302596	0.135868899353
9	309	794.865437319731	0.214543573475
9	312	796.89147954411	0.726833825121
9	315	797.985497703953	0.066290415649
9	321	800.926373491729	0.267196934791
9	324	804.939283845989	2.793722777492
9	327	813.264106284863	2.258921306043
9	333	838.507350882093	0.906000736452
9	336	844.113997964026	1.305105551231
9	339	850.980970038733	0.121744300547
9	342	852.400457001819	0.327774512964
9	345	856.934235692505	0.774277246433
9	360	886.754136153063	8.981062565527
9	363	896.0238846276	2.37670546183
9	376	908.729654615867	12.285880985258
9	383	912.6237478032	13.017897783838
9	386	917.615879760012	11.125724937199
9	387	917.762675165487	8.916800232308
9	388	919.969130522316	10.900353041728
9	389	921.107443784705	10.20074558888
9	390	921.17726547213	7.676144668527
9	396	933.982645129909	9.492309375784
9	409	962.430687059766	8.533860389521
9	410	965.806846034415	10.022212927666
9	413	968.362361297871	8.959432923365
9	414	972.172953182703	4.517455052237
9	417	982.529087016359	4.801560041773
9	420	986.875942228687	0.39259680915
9	423	994.72396635935	2.06912392197
9	426	1002.847116107818	2.384929525976
9	429	1009.276717606271	3.099990663074
9	438	1019.382309458937	1.954902402306
9	441	1025.399324916411	2.066139031122
9	446	1038.183832145455	2.608774529554
9	452	1047.362985633248	8.991866327508
9	453	1049.882017248862	7.810710151385
9	456	1053.919926225085	0.607970624198
9	461	1069.043585369542	0.415415323996
9	462	1075.598248521242	6.860996130342
9	465	1078.446099911833	1.887650581078
9	468	1085.422179210497	0.152258631864
9	471	1093.436785078494	2.932968527656
9	476	1110.003956797089	1.247860372162
9	477	1110.484219285251	1.470179133484
9	480	1112.525261578765	0.700144302658
9	501	1159.932110225591	35.244961229982
9	502	1162.443900688109	32.317873881179
9	512	1178.183003585317	14.187861597025
9	513	1181.038943758874	5.856908264411
9	516	1192.699277404689	1.624970487855
9	519	1227.34111847635	3.023247280357
9	525	1240.54209401154	1.126794049181
9	528	1241.850728747954	0.53150226967
9	531	1246.843074068171	0.144725685115
9	534	1249.443464940009	0.368224884401
9	540	1265.30055086675	3.071868738397
9	589	1362.179582219659	80.722995887363
9	590	1364.99265269702	79.124034232926
9	591	1370.748659493945	82.752749422661
9	592	1373.939347325315	83.834332883254
9	593	1382.455793043759	85.39167801828
9	594	1385.266478993737	76.015475661549
9	595	1388.157505216169	65.187123741783
9	599	1391.058199998482	53.6318265172
9	600	1394.094769061198	54.524116235525
9	601	1394.764879801819	41.190998628979
9	602	1395.839577488385	41.322992395801
9	603	1396.890045466618	8.104016375734
9	609	1422.086906226548	0.241586689345
9	614	1434.939570037853	1.862114173271
9	615	1435.659943746203	1.08937681169
9	618	1438.869979885113	2.169106575182
9	621	1444.666402257015	0.367231164594
9	627	1460.629603748089	9.045943857364
9	630	1463.331217758195	1.190546988796
9	633	1486.865509593249	0.31439029568
9	636	1497.373310377829	1.149402936308
9	639	1527.324685347551	3.639861148791
9	642	1536.338507776636	0.508423848322
9	648	1559.018736937791	6.863456787061
9	651	1569.458633539838	0.345021721795
9	656	1582.174319134618	7.577196531388
9	667	1600.804731007309	17.478847081761
9	668	1601.869830031456	13.868850030352
9	669	1603.999886801668	11.403734445866
9	686	1642.955222110905	6.396033928815
9	687	1644.059277640767	3.418181401509
9	690	1651.13439792395	0.215978870994
9	699	1666.277934353648	2.492229538564
9	702	1672.066855605103	5.062551454507
9	707	1678.589589611182	3.944592692703
9	708	1681.056247187612	5.649378999001
9	711	1686.82931661099	3.207941405055
9	714	1691.95930034289	0.088541397291
9	717	1722.22471100254	1.903077058443
9	720	1729.458544616075	1.216497494464
9	730	1743.833080237459	9.755839708653
9	733	1745.935318682328	9.81212814917
9	743	1763.037194939387	17.993068229734
9	744	1766.001629500978	17.437400419841
9	745	1766.045486838389	16.775825792357
9	746	1766.435043910679	16.997061316251
9	747	1767.249446955297	13.905035445321
9	750	1776.163999367702	7.748006146138
9	753	1785.271319046146	1.062308781414
9	763	1803.839656543835	3.660979166594
9	766	1811.600367937637	10.642031771647
9	767	1813.090041491848	10.12646858272
9	768	1814.699102982952	6.024245689214
9	776	1824.797042832391	1.726691022243
9	777	1827.920431744874	4.004415752795
9	780	1836.884532229497	2.64160859668
9	801	1892.442042901613	7.76783147583
9	809	1903.008555886375	5.0736125796
9	810	1903.332773217794	4.311363839363
9	813	1909.903579315743	1.631873308664
9	816	1914.45636199021	2.560932635178
9	819	1918.675233809546	3.950844995485
9	822	1921.59352281972	2.102531596933
9	825	1930.983352797125	7.741590378718
9	828	1939.278302535482	2.353919947162
9	843	1980.816713261412	19.315190335365
9	844	1982.333675347467	17.117013801733
9	848	1993.326835024595	16.220749910442
9	849	1994.714687208337	11.346277960497
9	852	2003.941282093393	1.892115406758
9	858	2014.835455879238	0.010650905139
9	863	2031.241987358263	4.806155455375
9	864	2031.547461578229	4.800842299982
9	867	2034.598971054328	0.322183034028
9	875	2043.299330721545	2.467196413093
9	878	2046.008238668835	4.276736695058
9	879	2048.12278445893	3.728608895178
9	882	2058.099693637729	0.559622223576
9	888	2071.620045483477	6.941396054424
9	894	2101.345903150507	0.702463059746
9	897	2111.085104408932	1.349715305161
9	900	2115.329491453806	0.774304897016
9	903	2120.370411886624	0.670323513964
9	909	2142.172936171081	0.920582212532
9	912	2145.907775868808	0.692808757472
9	915	2159.495624787606	3.26980523193
9	927	2176.338556415893	13.536720224179
9	930	2181.003597733693	4.604029937098
9	936	2206.539055818594	0.138837663921
9	948	2218.009187167449	1.00661772469
9	960	2242.880431156148	19.057907217161
9	961	2244.19702941156	14.678646667906
9	962	2247.129566171678	9.773039286355
9	963	2247.493903195067	5.324505857837
9	966	2249.826203348461	0.014373167813
9	969	2262.779386390552	2.102238829871
9	981	2281.934749393339	1.274882319001
9	1004	2312.38839942619	12.794741609248
9	1005	2312.742891929002	6.825332019534
9	1006	2313.21674648162	5.166773920433
9	1007	2313.274969241479	1.97476057407
9	1012	2323.105163333023	11.587850005036
9	1015	2325.025140172656	7.921151299419
9	1016	2327.314603300515	6.062073822617
9	1031	2358.881671609379	16.358325280986
9	1032	2362.797121789961	17.638411348095
9	1038	2398.324099984472	4.839583128622
9	1041	2409.196252727701	0.169240096707
9	1046	2419.140274468543	4.605927828142
9	1049	2420.402726204646	1.500034162107
9	1050	2420.747591579652	1.254174648215
9	1053	2433.386026552162	1.220341242057
9	1061	2443.87960812033	6.493060243649
9	1062	2447.394060827285	8.078873180549
9	1068	2463.154598149981	1.944520195327
9	1073	2466.680921204881	3.080176754249
9	1074	2467.126082562153	2.239467433756
10	202	545.373125084985	4
10	259	662.997675276741	5
10	394	924.490335754125	6
10	448	1038.37111930574	7
10	486	1124.687148995609	8
10	491	1134.14472775205	9
10	504	1163.995141988292	10
10	510	1175.182035494463	11
10	597	1388.786029090884	12
10	658	1583.325883925548	13
10	724	1734.077240528806	14
10	739	1749.437982594428	15
10	846	1983.36840924784	16
10	943	2213.274337973245	17
10	946	2217.002569442759	18
10	979	2280.659867074338	19
10	1018	2328.895385620355	20
10	1021	2339.416810040685	21
10	1027	2342.523346328393	22
11	1075	2500	0.0976
12	1075	2500	0.0456

