version 2
run experiments_easy_game_mode1-1722-20230308-12:08:16-27399
attr configname experiments_easy_game_mode1
attr datetime 20230308-12:08:16
attr experiment experiments_easy_game_mode1
attr inifile omnetpp.ini
attr iterationvars "$0=7, $1=3, $2=100"
attr iterationvarsf 7,3,100-
attr measurement "$0=7, $1=3, $2=100"
attr network Network
attr processid 27399
attr repetition 12
attr replication #12
attr resultdir results
attr runnumber 1722
attr seedset 12
param *.boss.arrival_mean 20
param *.boss.service_mean 7
param *.minion.arrival_mean 10
param *.minion.service_mean 3
param *.player.recover_rate_x 100
param **.minion.arrival_distribution 0
param **.minion.service_distribution 0
param **.boss.arrival_distribution 0
param **.boss.service_distribution 0

vector 0 Network.player minion_defeated_stat:vector ETV
attr source signal_minion_defeated
vector 1 Network.player minion_jobs_queue_number_stat:vector ETV
attr source signal_minion_jobs_queue_number
vector 2 Network.player minion_response_time_stat:vector ETV
attr source signal_minion_response_time
vector 3 Network.player boss_jobs_number_stat:vector ETV
attr source signal_boss_jobs_number
vector 4 Network.player boss_jobs_queue_number_stat:vector ETV
attr source signal_boss_jobs_queue_number
vector 5 Network.player boss_waiting_time_stat:vector ETV
attr source signal_boss_waiting_time
vector 6 Network.player minion_jobs_number_stat:vector ETV
attr source signal_minion_jobs_number
vector 7 Network.player boss_defeated_stat:vector ETV
attr source signal_boss_defeated
vector 8 Network.player boss_response_time_stat:vector ETV
attr source signal_boss_response_time
vector 9 Network.player minion_waiting_time_stat:vector ETV
attr source signal_minion_waiting_time
vector 10 Network.player minion_recovered_stat:vector ETV
attr source signal_minion_recovered
vector 11 Network.player minion_throughput:vector ETV
attr source signal_minion_throughput
vector 12 Network.player boss_throughput:vector ETV
attr source signal_boss_throughput
0	159	350.065589406582	37
0	177	378.917798212897	38
0	180	380.040413356014	39
0	202	399.317719367366	40
0	210	405.839102645269	41
0	213	413.300208403338	42
0	214	416.544575073799	43
0	221	435.190772543739	44
0	222	437.987904555453	45
0	225	447.030077067997	46
0	226	448.48393766841	47
0	227	449.80050988869	48
0	228	454.133767300282	49
0	231	455.772085657073	50
0	234	463.927011434681	51
0	235	464.780497984154	52
0	238	471.889866014365	53
0	239	472.34531954605	54
0	240	473.216091731321	55
0	243	481.45365799103	56
0	246	485.396961867021	57
0	252	511.74883590675	58
0	255	516.633825904508	59
0	262	523.820268118826	60
0	263	524.689292450424	61
0	264	525.376687920433	62
0	267	542.324547871995	63
0	274	556.331783221416	64
0	277	561.898629953095	65
0	278	562.419768938729	66
0	279	565.461433634022	67
0	292	577.881305730292	68
0	295	591.729130453447	69
0	302	601.736379362886	70
0	305	610.172590834156	71
0	306	612.950382256701	72
0	307	618.742161010827	73
0	314	636.526458037867	74
0	317	642.748224563693	75
0	318	642.770592207232	76
0	327	650.076737987967	77
0	333	668.830021882556	78
0	341	675.003611209332	79
0	344	679.205309316411	80
0	347	681.827691832765	81
0	348	689.602499984588	82
0	351	691.244199718784	83
0	360	729.611017197604	84
0	374	756.310871572908	85
0	375	760.742892033189	86
0	381	782.189916130498	87
0	384	786.743505839455	88
0	387	788.67046966195	89
0	393	813.448068441291	90
0	403	825.495024626167	91
0	404	827.844671806481	92
0	407	829.651107863104	93
0	416	855.672074151963	94
0	419	860.872000830285	95
0	420	868.234681636823	96
0	425	871.164857474607	97
0	426	874.523023737525	98
0	429	894.70989158735	99
0	438	904.848286149815	100
0	441	909.752243417437	101
0	452	930.417441944855	102
0	453	934.808457890913	103
0	458	939.116659881767	104
0	459	940.273072949986	105
0	475	963.097500593077	106
0	476	963.181030202815	107
0	477	966.112218453915	108
0	496	1017.458800344583	109
0	499	1024.663003461882	110
0	500	1025.549393492112	111
0	501	1029.361397916798	112
0	512	1048.599552539494	113
0	513	1048.734956016577	114
0	519	1059.433071648552	115
0	522	1071.626057852467	116
0	525	1080.178024941134	117
0	528	1088.705156424228	118
0	533	1093.955841346225	119
0	534	1096.169353399195	120
0	543	1140.525653353512	121
0	546	1161.787273641383	122
0	549	1173.520176459837	123
0	560	1205.33649834894	124
0	566	1211.805660247292	125
0	567	1219.290617724654	126
0	581	1241.717511781952	127
0	582	1242.667152691811	128
0	585	1255.919630913813	129
0	586	1260.219192589779	130
0	589	1262.925653558577	131
0	610	1296.838258600988	132
0	613	1303.158820770825	133
0	614	1303.60546433329	134
0	619	1307.581864990778	135
0	620	1311.618881875478	136
0	621	1314.583239568147	137
0	622	1315.197228162925	138
0	625	1317.951276438775	139
0	626	1322.883975892627	140
0	629	1333.39365172492	141
0	630	1334.505701663728	142
0	638	1342.227266381067	143
0	642	1351.616328802838	144
0	648	1370.871973040712	145
0	656	1392.371331563411	146
0	657	1396.670945395243	147
0	663	1404.6638450809	148
0	675	1423.094902644323	149
0	684	1444.42189869789	150
0	692	1453.672330003226	151
0	697	1459.902885570897	152
0	698	1461.498791052974	153
0	699	1463.41877880015	154
0	700	1470.322099263884	155
0	701	1470.365382717	156
0	704	1472.632309236382	157
0	705	1474.974532395986	158
0	708	1489.062962008951	159
0	723	1522.278419998368	160
0	729	1525.78227134946	161
0	730	1528.28885374569	162
0	733	1532.956720886306	163
0	734	1534.711803686136	164
0	737	1542.492483203795	165
0	740	1544.161396746443	166
0	741	1544.574088141875	167
0	747	1554.385662178194	168
0	750	1558.259243737277	169
0	755	1563.977264270292	170
0	758	1568.039560407617	171
0	759	1568.168523514728	172
0	773	1625.53585514103	173
0	778	1630.943053739164	174
0	779	1634.232976715408	175
0	780	1636.404278204034	176
0	781	1637.284117075099	177
0	782	1640.008098182458	178
0	790	1651.653057914018	179
0	791	1652.885058309154	180
0	796	1655.019784420095	181
0	797	1659.864331860179	182
0	800	1668.457949143226	183
0	801	1671.601048285323	184
0	804	1678.907456755565	185
0	807	1692.63767591318	186
0	810	1714.006821324287	187
0	813	1728.131795427332	188
0	816	1732.618720211198	189
0	826	1743.203202772595	190
0	829	1745.224071946387	191
0	830	1745.514820381156	192
0	831	1748.314159473321	193
0	834	1753.660335850599	194
0	840	1797.242148652643	195
0	843	1804.691989888969	196
0	846	1818.46426885481	197
0	860	1849.915259481697	198
0	861	1851.251402251757	199
0	864	1865.250617316723	200
0	875	1896.623203422639	201
0	878	1899.5218515439	202
0	883	1904.506296278579	203
0	884	1908.428503120852	204
0	885	1909.877497658319	205
0	893	1939.889874326422	206
0	894	1941.339585316667	207
0	897	1945.83504113085	208
0	900	1957.676715686436	209
0	908	1979.497637302267	210
0	917	1984.918054138865	211
0	918	1986.945486994657	212
0	921	1991.405528989855	213
0	925	2001.887632409572	214
0	926	2003.407551780165	215
0	935	2013.063333283664	216
0	945	2023.947254266535	217
0	948	2032.940446625833	218
0	949	2035.380403206212	219
0	950	2038.132958031602	220
0	951	2046.122006061923	221
0	956	2051.291892706176	222
0	957	2052.944779742242	223
0	973	2085.977169966056	224
0	974	2086.952453994496	225
0	975	2088.75701388444	226
0	981	2105.097213828246	227
0	998	2157.48736814043	228
0	999	2162.27340894412	229
0	1015	2183.744020572514	230
0	1016	2183.922731563617	231
0	1017	2187.105007492148	232
0	1020	2189.596148966062	233
0	1021	2189.671902758064	234
0	1024	2190.92700633604	235
0	1027	2193.637038702222	236
0	1028	2194.781065115745	237
0	1029	2195.44355477884	238
0	1044	2231.718393245695	239
0	1045	2233.155964236312	240
0	1046	2234.740509178973	241
0	1047	2236.806363973964	242
0	1055	2292.0496211657	243
0	1060	2299.464991373636	244
0	1061	2300.09009849506	245
0	1062	2303.271963219032	246
0	1067	2311.471240909395	247
0	1071	2317.615931052742	248
0	1076	2336.317204634224	249
0	1077	2338.038413339938	250
0	1082	2360.921614053451	251
0	1083	2361.255166182121	252
0	1108	2440.332044956767	253
0	1113	2442.170957954362	254
0	1118	2447.196038903697	255
0	1119	2447.499948509918	256
0	1120	2450.49464751962	257
0	1121	2456.599611807401	258
0	1122	2457.020287802614	259
0	1123	2457.573908799469	260
0	1124	2457.772191324385	261
0	1125	2459.292169177114	262
0	1130	2465.522395770393	263
0	1131	2469.829984508299	264
0	1134	2488.876585000253	265
0	1137	2495.276229437172	266
0	1140	2499.376756902016	267
1	159	350.065589406582	0
1	163	356.275138873474	0
1	168	361.531743559315	1
1	170	367.553763951342	2
1	174	368.970575265093	3
1	177	378.917798212897	3
1	179	379.927922828233	3
1	180	380.040413356014	3
1	182	380.306087155442	3
1	186	382.080972587445	4
1	188	382.936418932786	5
1	190	387.510257431181	6
1	194	389.911119545815	7
1	199	393.455530514951	8
1	202	399.317719367366	8
1	206	401.335149171264	8
1	208	401.485334148296	9
1	210	405.839102645269	9
1	212	412.129365972685	9
1	213	413.300208403338	9
1	214	416.544575073799	8
1	221	435.190772543739	7
1	222	437.987904555453	6
1	224	446.532072824088	6
1	225	447.030077067997	6
1	226	448.48393766841	5
1	227	449.80050988869	4
1	228	454.133767300282	3
1	230	455.418534664674	3
1	231	455.772085657073	3
1	233	459.485586021208	3
1	234	463.927011434681	3
1	235	464.780497984154	2
1	237	468.041860974414	2
1	238	471.889866014365	2
1	239	472.34531954605	1
1	240	473.216091731321	0
1	242	480.239443259427	0
1	243	481.45365799103	0
1	245	484.314394665896	0
1	246	485.396961867021	0
1	251	511.606946428544	0
1	252	511.74883590675	0
1	254	516.396541660431	0
1	255	516.633825904508	0
1	257	517.029377089414	0
1	259	522.165015742967	1
1	261	523.706183755885	2
1	262	523.820268118826	2
1	263	524.689292450424	1
1	264	525.376687920433	0
1	266	535.079449780043	0
1	267	542.324547871995	0
1	269	542.924549707891	0
1	271	544.504856593887	1
1	273	545.10126394541	2
1	274	556.331783221416	2
1	276	560.650013804625	2
1	277	561.898629953095	2
1	278	562.419768938729	1
1	279	565.461433634022	0
1	283	571.503968412171	0
1	285	571.885422676681	1
1	291	576.531670043592	2
1	292	577.881305730292	2
1	294	586.041278199781	2
1	295	591.729130453447	2
1	297	591.842793986612	2
1	299	593.492340352836	3
1	301	593.822627101554	4
1	302	601.736379362886	4
1	304	608.601332355442	4
1	305	610.172590834156	4
1	306	612.950382256701	3
1	307	618.742161010827	2
1	314	636.526458037867	1
1	316	642.500478591344	1
1	317	642.748224563693	1
1	318	642.770592207232	0
1	323	645.553767806205	0
1	327	650.076737987967	0
1	331	658.72291101783	0
1	333	668.830021882556	0
1	338	673.50565802358	0
1	340	674.664452820824	1
1	341	675.003611209332	1
1	343	678.053537741583	1
1	344	679.205309316411	1
1	346	679.276270559373	1
1	347	681.827691832765	1
1	348	689.602499984588	0
1	350	689.822589290019	0
1	351	691.244199718784	0
1	359	722.812043553386	0
1	360	729.611017197604	0
1	367	752.887833589075	0
1	373	754.865825694057	1
1	374	756.310871572908	1
1	375	760.742892033189	0
1	379	779.934200981398	0
1	381	782.189916130498	0
1	383	786.323076486688	0
1	384	786.743505839455	0
1	386	788.123718112885	0
1	387	788.67046966195	0
1	392	811.826066980366	0
1	393	813.448068441291	0
1	395	815.947848581462	0
1	397	820.44480297725	1
1	399	821.388645718781	2
1	403	825.495024626167	2
1	404	827.844671806481	1
1	406	828.891794095329	1
1	407	829.651107863104	1
1	411	840.695604552115	1
1	416	855.672074151963	1
1	418	857.256330799712	1
1	419	860.872000830285	1
1	420	868.234681636823	0
1	422	868.648008226734	0
1	424	870.702630473908	1
1	425	871.164857474607	1
1	426	874.523023737525	0
1	428	894.689810098196	0
1	429	894.70989158735	0
1	435	903.133171413273	0
1	438	904.848286149815	0
1	440	906.787099258618	0
1	441	909.752243417437	0
1	447	924.958018129097	0
1	450	926.96826182913	1
1	452	930.417441944855	1
1	453	934.808457890913	0
1	455	938.47093182519	0
1	457	938.824901339621	1
1	458	939.116659881767	1
1	459	940.273072949986	0
1	467	946.970759347724	0
1	471	951.594273986105	1
1	474	958.366921324126	2
1	475	963.097500593077	2
1	476	963.181030202815	1
1	477	966.112218453915	0
1	486	991.294130417434	0
1	492	1007.904452093689	1
1	494	1016.561505806223	2
1	496	1017.458800344583	2
1	498	1023.68614644825	2
1	499	1024.663003461882	2
1	500	1025.549393492112	1
1	501	1029.361397916798	0
1	509	1045.719007057478	0
1	511	1046.141772985728	1
1	512	1048.599552539494	1
1	513	1048.734956016577	0
1	517	1053.433658907636	0
1	519	1059.433071648552	0
1	521	1067.124123066431	0
1	522	1071.626057852467	0
1	524	1080.147366110922	0
1	525	1080.178024941134	0
1	527	1085.663846851348	0
1	528	1088.705156424228	0
1	530	1090.489287960552	0
1	532	1092.101482329185	1
1	533	1093.955841346225	1
1	534	1096.169353399195	0
1	542	1140.083382758178	0
1	543	1140.525653353512	0
1	545	1160.613482617548	0
1	546	1161.787273641383	0
1	548	1165.599748141268	0
1	549	1173.520176459837	0
1	555	1184.832306587143	0
1	557	1186.37157715356	1
1	560	1205.33649834894	1
1	565	1211.343419140701	1
1	566	1211.805660247292	1
1	567	1219.290617724654	0
1	569	1235.09717362252	0
1	571	1236.164658714414	1
1	573	1236.791656967319	2
1	578	1240.13416520579	3
1	580	1241.095342600622	4
1	581	1241.717511781952	4
1	582	1242.667152691811	3
1	584	1255.132693136419	3
1	585	1255.919630913813	3
1	586	1260.219192589779	2
1	588	1261.420735924344	2
1	589	1262.925653558577	2
1	593	1265.523657481921	2
1	595	1265.53163369834	3
1	599	1269.672344984342	4
1	606	1281.365090834462	5
1	610	1296.838258600988	5
1	612	1299.931884046393	5
1	613	1303.158820770825	5
1	614	1303.60546433329	4
1	616	1304.724605843547	4
1	618	1305.322714708422	5
1	619	1307.581864990778	5
1	620	1311.618881875478	4
1	621	1314.583239568147	3
1	622	1315.197228162925	2
1	624	1317.789257898108	2
1	625	1317.951276438775	2
1	626	1322.883975892627	1
1	628	1330.070538396107	1
1	629	1333.39365172492	1
1	630	1334.505701663728	0
1	635	1339.403950450485	0
1	637	1341.489957657103	1
1	638	1342.227266381067	1
1	642	1351.616328802838	0
1	647	1367.584745697833	0
1	648	1370.871973040712	0
1	652	1380.920423930158	0
1	654	1381.753183424919	1
1	656	1392.371331563411	1
1	657	1396.670945395243	0
1	662	1402.299300518417	0
1	663	1404.6638450809	0
1	667	1411.883606823326	0
1	669	1412.663953516089	1
1	671	1421.810878278908	2
1	673	1422.579160929986	3
1	675	1423.094902644323	3
1	679	1426.932312804626	3
1	684	1444.42189869789	3
1	686	1446.708472722902	3
1	691	1450.82885761971	4
1	692	1453.672330003226	4
1	694	1455.574463608922	4
1	696	1455.730999947189	5
1	697	1459.902885570897	5
1	698	1461.498791052974	4
1	699	1463.41877880015	3
1	700	1470.322099263884	2
1	701	1470.365382717	1
1	703	1471.269624064226	1
1	704	1472.632309236382	1
1	705	1474.974532395986	0
1	707	1489.047028911997	0
1	708	1489.062962008951	0
1	714	1501.003251163954	0
1	717	1514.643396132198	1
1	719	1515.115288514532	2
1	721	1519.425740557147	3
1	723	1522.278419998368	3
1	728	1524.898422388147	3
1	729	1525.78227134946	3
1	730	1528.28885374569	2
1	732	1531.528094648684	2
1	733	1532.956720886306	2
1	734	1534.711803686136	1
1	736	1535.210731051848	1
1	737	1542.492483203795	1
1	739	1543.742296043003	1
1	740	1544.161396746443	1
1	741	1544.574088141875	0
1	746	1554.127229392814	0
1	747	1554.385662178194	0
1	749	1557.389591053862	0
1	750	1558.259243737277	0
1	752	1559.510693161534	0
1	754	1562.792788404847	1
1	755	1563.977264270292	1
1	757	1567.742571124257	1
1	758	1568.039560407617	1
1	759	1568.168523514728	0
1	763	1609.196141096314	0
1	765	1610.986066775387	1
1	767	1616.904226737302	2
1	769	1623.299458895717	3
1	771	1623.989388436137	4
1	773	1625.53585514103	4
1	775	1626.095454983176	4
1	777	1630.575454856278	5
1	778	1630.943053739164	5
1	779	1634.232976715408	4
1	780	1636.404278204034	3
1	781	1637.284117075099	2
1	782	1640.008098182458	1
1	786	1649.186861691882	1
1	788	1649.593474439688	2
1	790	1651.653057914018	2
1	791	1652.885058309154	1
1	793	1654.678995133334	1
1	795	1654.924764420721	2
1	796	1655.019784420095	2
1	797	1659.864331860179	1
1	799	1660.428087577648	1
1	800	1668.457949143226	1
1	801	1671.601048285323	0
1	803	1676.477283815076	0
1	804	1678.907456755565	0
1	806	1690.768281401143	0
1	807	1692.63767591318	0
1	809	1707.193064526369	0
1	810	1714.006821324287	0
1	812	1726.215648249001	0
1	813	1728.131795427332	0
1	815	1729.345563490037	0
1	816	1732.618720211198	0
1	821	1737.490455389247	0
1	823	1740.254922656132	1
1	825	1741.252134770375	2
1	826	1743.203202772595	2
1	828	1744.241500984743	2
1	829	1745.224071946387	2
1	830	1745.514820381156	1
1	831	1748.314159473321	0
1	833	1752.815041703053	0
1	834	1753.660335850599	0
1	839	1797.208591200755	0
1	840	1797.242148652643	0
1	842	1804.485709461222	0
1	843	1804.691989888969	0
1	845	1817.024796108276	0
1	846	1818.46426885481	0
1	850	1822.667217348664	0
1	852	1832.014805444614	1
1	860	1849.915259481697	1
1	861	1851.251402251757	0
1	863	1863.728023762385	0
1	864	1865.250617316723	0
1	869	1890.325002330053	0
1	873	1892.911421496219	1
1	875	1896.623203422639	1
1	877	1897.909856720685	1
1	878	1899.5218515439	1
1	880	1900.228729364245	1
1	882	1902.394972575954	2
1	883	1904.506296278579	2
1	884	1908.428503120852	1
1	885	1909.877497658319	0
1	889	1923.105917349807	0
1	891	1936.930188235271	1
1	893	1939.889874326422	1
1	894	1941.339585316667	0
1	896	1945.527027404059	0
1	897	1945.83504113085	0
1	899	1951.529515973467	0
1	900	1957.676715686436	0
1	905	1978.121877551877	0
1	907	1979.34124746618	1
1	908	1979.497637302267	1
1	910	1979.762433639967	1
1	912	1980.054325816748	2
1	914	1980.804055573983	3
1	916	1984.075517845662	4
1	917	1984.918054138865	4
1	918	1986.945486994657	3
1	920	1987.134381859309	3
1	921	1991.405528989855	3
1	925	2001.887632409572	2
1	926	2003.407551780165	1
1	928	2004.51657132158	1
1	935	2013.063333283664	1
1	939	2016.414489280249	1
1	942	2019.355225779663	2
1	944	2021.296189842671	3
1	945	2023.947254266535	3
1	947	2027.04262790873	3
1	948	2032.940446625833	3
1	949	2035.380403206212	2
1	950	2038.132958031602	1
1	951	2046.122006061923	0
1	953	2046.560566042738	0
1	955	2049.309392990112	1
1	956	2051.291892706176	1
1	957	2052.944779742242	0
1	959	2061.485768394387	0
1	963	2066.837198190048	1
1	968	2079.137475032824	2
1	973	2085.977169966056	2
1	974	2086.952453994496	1
1	975	2088.75701388444	0
1	979	2104.013738594891	0
1	981	2105.097213828246	0
1	994	2153.081210459794	0
1	997	2156.356740043825	1
1	998	2157.48736814043	1
1	999	2162.27340894412	0
1	1003	2173.045091011533	0
1	1005	2173.616005250678	1
1	1007	2175.034293339372	2
1	1010	2177.084121156678	3
1	1012	2180.5173811797	4
1	1014	2181.868862810189	5
1	1015	2183.744020572514	5
1	1016	2183.922731563617	4
1	1017	2187.105007492148	3
1	1019	2189.076723022662	3
1	1020	2189.596148966062	3
1	1021	2189.671902758064	2
1	1023	2190.77130714992	2
1	1024	2190.92700633604	2
1	1026	2192.37424995934	2
1	1027	2193.637038702222	2
1	1028	2194.781065115745	1
1	1029	2195.44355477884	0
1	1035	2219.717478738328	0
1	1038	2221.871233968395	1
1	1041	2230.071724645932	2
1	1043	2230.935555957897	3
1	1044	2231.718393245695	3
1	1045	2233.155964236312	2
1	1046	2234.740509178973	1
1	1047	2236.806363973964	0
1	1051	2282.93439780404	0
1	1053	2285.416402302551	1
1	1055	2292.0496211657	1
1	1057	2298.293892914577	1
1	1059	2299.2747170942	2
1	1060	2299.464991373636	2
1	1061	2300.09009849506	1
1	1062	2303.271963219032	0
1	1064	2303.439979488083	0
1	1066	2305.47910729848	1
1	1067	2311.471240909395	1
1	1071	2317.615931052742	0
1	1073	2332.303734596903	0
1	1075	2334.907025363425	1
1	1076	2336.317204634224	1
1	1077	2338.038413339938	0
1	1079	2357.875581853046	0
1	1081	2359.875021229818	1
1	1082	2360.921614053451	1
1	1083	2361.255166182121	0
1	1085	2395.018293745815	0
1	1089	2396.55827791462	1
1	1093	2404.75453472669	2
1	1101	2426.276812347666	3
1	1104	2430.731895255457	4
1	1107	2436.181161132906	5
1	1108	2440.332044956767	5
1	1110	2441.666214032224	5
1	1112	2442.032794299837	6
1	1113	2442.170957954362	6
1	1115	2443.172972015987	6
1	1117	2444.959135336682	7
1	1118	2447.196038903697	7
1	1119	2447.499948509918	6
1	1120	2450.49464751962	5
1	1121	2456.599611807401	4
1	1122	2457.020287802614	3
1	1123	2457.573908799469	2
1	1124	2457.772191324385	1
1	1125	2459.292169177114	0
1	1127	2462.964472082763	0
1	1129	2463.231614912147	1
1	1130	2465.522395770393	1
1	1131	2469.829984508299	0
1	1133	2487.671983780769	0
1	1134	2488.876585000253	0
1	1136	2494.931331030283	0
1	1137	2495.276229437172	0
1	1139	2498.796688845567	0
1	1140	2499.376756902016	0
2	159	350.065589406582	1.026786010876
2	177	378.917798212897	17.558908179378
2	180	380.040413356014	18.508669796699
2	202	399.317719367366	30.347144102273
2	210	405.839102645269	25.533015489827
2	213	413.300208403338	32.948207988457
2	214	416.544575073799	34.463602486354
2	221	435.190772543739	47.680515112558
2	222	437.987904555453	48.076785009638
2	225	447.030077067997	53.574546553046
2	226	448.48393766841	48.056761667363
2	227	449.80050988869	48.465360717426
2	228	454.133767300282	52.648433151986
2	231	455.772085657073	43.642719684388
2	234	463.927011434681	45.436132677513
2	235	464.780497984154	18.248425160066
2	238	471.889866014365	16.471331349691
2	239	472.34531954605	12.859733524842
2	240	473.216091731321	5.174230756907
2	243	481.45365799103	1.214214731603
2	246	485.396961867021	1.082567201125
2	252	511.74883590675	0.141889478206
2	255	516.633825904508	0.237284244077
2	262	523.820268118826	6.790891029412
2	263	524.689292450424	2.524276707457
2	264	525.376687920433	1.670504164548
2	267	542.324547871995	7.245098091952
2	274	556.331783221416	13.407233513525
2	277	561.898629953095	17.393773359208
2	278	562.419768938729	17.318504993319
2	279	565.461433634022	4.811419829397
2	292	577.881305730292	6.377337318121
2	295	591.729130453447	19.843707776766
2	302	601.736379362886	25.204709319294
2	305	610.172590834156	24.131312634375
2	306	612.950382256701	21.107588270089
2	307	618.742161010827	25.249820657991
2	314	636.526458037867	16.535588210203
2	317	642.748224563693	15.796227684228
2	318	642.770592207232	0.270113615888
2	327	650.076737987967	1.243485470853
2	333	668.830021882556	10.107110864726
2	341	675.003611209332	1.497953185752
2	344	679.205309316411	4.540856495587
2	347	681.827691832765	3.774154091182
2	348	689.602499984588	10.326229425215
2	351	691.244199718784	1.421610428765
2	360	729.611017197604	6.798973644218
2	374	756.310871572908	2.128818962868
2	375	760.742892033189	5.877066339132
2	381	782.189916130498	2.2557151491
2	384	786.743505839455	0.420429352767
2	387	788.67046966195	0.546751549065
2	393	813.448068441291	1.622001460925
2	403	825.495024626167	5.050221648917
2	404	827.844671806481	6.4560260877
2	407	829.651107863104	7.916837320682
2	416	855.672074151963	19.086705874963
2	419	860.872000830285	20.17639627817
2	420	868.234681636823	10.978350837111
2	425	871.164857474607	2.516849247873
2	426	874.523023737525	3.820393263617
2	429	894.70989158735	0.020081489154
2	438	904.848286149815	1.715114736542
2	441	909.752243417437	2.965144158819
2	452	930.417441944855	5.459423815758
2	453	934.808457890913	7.840196061783
2	458	939.116659881767	0.645728056577
2	459	940.273072949986	1.448171610365
2	475	963.097500593077	16.126741245353
2	476	963.181030202815	11.58675621671
2	477	966.112218453915	7.745297129789
2	496	1017.458800344583	26.164669927149
2	499	1024.663003461882	16.758551368193
2	500	1025.549393492112	8.987887685889
2	501	1029.361397916798	5.675251468548
2	512	1048.599552539494	2.880545482016
2	513	1048.734956016577	2.593183030849
2	519	1059.433071648552	5.999412740916
2	522	1071.626057852467	4.501934786036
2	525	1080.178024941134	0.030658830212
2	528	1088.705156424228	3.04130957288
2	533	1093.955841346225	3.466553385673
2	534	1096.169353399195	4.06787107001
2	543	1140.525653353512	0.442270595334
2	546	1161.787273641383	1.173791023835
2	549	1173.520176459837	7.920428318569
2	560	1205.33649834894	20.504191761797
2	566	1211.805660247292	3.884588938641
2	567	1219.290617724654	7.947198583953
2	581	1241.717511781952	5.552853067538
2	582	1242.667152691811	5.875495724492
2	585	1255.919630913813	18.327226374576
2	586	1260.219192589779	20.085027383989
2	589	1262.925653558577	21.830310957955
2	610	1296.838258600988	35.417522676644
2	613	1303.158820770825	39.17967021364
2	614	1303.60546433329	38.081806851369
2	619	1307.581864990778	42.050231292438
2	620	1311.618881875478	41.946536891136
2	621	1314.583239568147	33.218148733685
2	622	1315.197228162925	15.265344116532
2	625	1317.951276438775	13.226670595228
2	626	1322.883975892627	17.561261184205
2	629	1333.39365172492	15.604393826812
2	630	1334.505701663728	4.435163267621
2	638	1342.227266381067	2.823315930582
2	642	1351.616328802838	9.180763764239
2	648	1370.871973040712	3.287227342879
2	656	1392.371331563411	11.450907633253
2	657	1396.670945395243	14.917761970324
2	663	1404.6638450809	2.364544562483
2	675	1423.094902644323	11.211295820997
2	684	1444.42189869789	21.842737767904
2	692	1453.672330003226	26.7400171986
2	697	1459.902885570897	29.518834715186
2	698	1461.498791052974	14.790318330072
2	699	1463.41877880015	14.770559297669
2	700	1470.322099263884	19.493241644174
2	701	1470.365382717	14.790919108078
2	704	1472.632309236382	16.901309289193
2	705	1474.974532395986	3.70490833176
2	708	1489.062962008951	0.015933096954
2	723	1522.278419998368	21.275168834414
2	729	1525.78227134946	10.666982834928
2	730	1528.28885374569	8.863113188543
2	733	1532.956720886306	9.626843385824
2	734	1534.711803686136	9.813381297989
2	737	1542.492483203795	10.964388555111
2	740	1544.161396746443	8.950665694595
2	741	1544.574088141875	0.831792098872
2	747	1554.385662178194	0.25843278538
2	750	1558.259243737277	0.869652683415
2	755	1563.977264270292	4.466571108758
2	758	1568.039560407617	5.24677200277
2	759	1568.168523514728	0.425952390471
2	773	1625.53585514103	16.339714044716
2	778	1630.943053739164	19.956986963777
2	779	1634.232976715408	17.328749978106
2	780	1636.404278204034	13.104819308317
2	781	1637.284117075099	13.294728638962
2	782	1640.008098182458	13.912643199282
2	790	1651.653057914018	11.229853840218
2	791	1652.885058309154	3.698196617272
2	796	1655.019784420095	5.426309980407
2	797	1659.864331860179	5.185336726845
2	800	1668.457949143226	13.533184722505
2	801	1671.601048285323	11.172960707675
2	804	1678.907456755565	2.430172940489
2	807	1692.63767591318	1.869394512037
2	810	1714.006821324287	6.813756797918
2	813	1728.131795427332	1.916147178331
2	816	1732.618720211198	3.273156721161
2	826	1743.203202772595	5.712747383348
2	829	1745.224071946387	4.969149290255
2	830	1745.514820381156	4.262685610781
2	831	1748.314159473321	4.072658488578
2	834	1753.660335850599	0.845294147546
2	840	1797.242148652643	0.033557451888
2	843	1804.691989888969	0.206280427747
2	846	1818.46426885481	1.439472746534
2	860	1849.915259481697	27.248042133033
2	861	1851.251402251757	19.236596807143
2	864	1865.250617316723	1.522593554338
2	875	1896.623203422639	5.404930606225
2	878	1899.5218515439	6.610430047681
2	883	1904.506296278579	6.596439557894
2	884	1908.428503120852	8.199773756607
2	885	1909.877497658319	7.482525082365
2	893	1939.889874326422	16.783956976615
2	894	1941.339585316667	4.409397081396
2	897	1945.83504113085	0.308013726791
2	900	1957.676715686436	6.147199712969
2	908	1979.497637302267	1.37575975039
2	917	1984.918054138865	5.576806672685
2	918	1986.945486994657	7.18305335469
2	921	1991.405528989855	11.351203173107
2	925	2001.887632409572	17.81211456391
2	926	2003.407551780165	16.273169920856
2	935	2013.063333283664	7.638249990237
2	945	2023.947254266535	8.996336372917
2	948	2032.940446625833	16.525957345584
2	949	2035.380403206212	16.025177426549
2	950	2038.132958031602	16.836768188931
2	951	2046.122006061923	19.079378153193
2	956	2051.291892706176	4.731326663438
2	957	2052.944779742242	3.63538675213
2	973	2085.977169966056	19.139971776008
2	974	2086.952453994496	17.436602236218
2	975	2088.75701388444	9.619538851616
2	981	2105.097213828246	1.083475233355
2	998	2157.48736814043	4.406157680636
2	999	2162.27340894412	5.916668900295
2	1015	2183.744020572514	10.698929560981
2	1016	2183.922731563617	10.306726312939
2	1017	2187.105007492148	12.070714152776
2	1020	2189.596148966062	12.512027809384
2	1021	2189.671902758064	9.154521578364
2	1024	2190.92700633604	9.058143525851
2	1027	2193.637038702222	4.56031567956
2	1028	2194.781065115745	4.009757965825
2	1029	2195.44355477884	3.0693048195
2	1044	2231.718393245695	12.000914507367
2	1045	2233.155964236312	11.284730267917
2	1046	2234.740509178973	4.668784533041
2	1047	2236.806363973964	5.870808016067
2	1055	2292.0496211657	9.11522336166
2	1060	2299.464991373636	14.048589071085
2	1061	2300.09009849506	1.796205580483
2	1062	2303.271963219032	3.997246124832
2	1067	2311.471240909395	8.031261421312
2	1071	2317.615931052742	3.20932921444
2	1076	2336.317204634224	4.013470037321
2	1077	2338.038413339938	3.131387976513
2	1082	2360.921614053451	3.046032200405
2	1083	2361.255166182121	1.380144952303
2	1108	2440.332044956767	44.17929412691
2	1113	2442.170957954362	45.612680039742
2	1118	2447.196038903697	42.441504177007
2	1119	2447.499948509918	21.223136162252
2	1120	2450.49464751962	19.762752264163
2	1121	2456.599611807401	20.418450674495
2	1122	2457.020287802614	15.35407377039
2	1123	2457.573908799469	15.541114499632
2	1124	2457.772191324385	14.599219308398
2	1125	2459.292169177114	14.333033840432
2	1130	2465.522395770393	2.55792368763
2	1131	2469.829984508299	6.598369596152
2	1134	2488.876585000253	1.204601219484
2	1137	2495.276229437172	0.344898406889
2	1140	2499.376756902016	0.580068056449
3	161	353.492191333855	1
3	166	361.358890033519	1
3	172	368.78043457168	2
3	184	380.352000414881	1
3	192	388.861516406107	2
3	196	391.757141693541	3
3	204	400.427176001047	1
3	216	418.490878757168	1
3	218	421.634878531556	2
3	248	498.166435993675	1
3	281	570.157955171208	1
3	287	572.013697630046	2
3	309	619.990869827664	1
3	312	626.951996879465	1
3	320	643.369658326367	1
3	325	648.833252517114	1
3	329	656.358877459783	1
3	335	670.89757570658	1
3	353	714.718457972752	1
3	355	715.659682895607	2
3	362	738.112029162346	1
3	365	744.260440483758	1
3	370	754.18205261004	1
3	377	776.438308007573	1
3	389	790.590701076314	1
3	401	821.734270542422	1
3	409	836.585368277	1
3	413	845.649693670463	2
3	431	898.271736045084	1
3	433	900.679632703256	2
3	443	917.623000115617	1
3	445	921.272436396995	2
3	461	943.345188572361	1
3	463	943.713555040912	2
3	465	944.787028829265	3
3	479	975.864205792521	1
3	481	983.786107803526	2
3	484	990.276985011205	2
3	488	991.438078315617	3
3	503	1031.498604334519	1
3	505	1035.463420870607	2
3	515	1050.509505621411	1
3	536	1102.565256430476	1
3	539	1126.178327443082	1
3	551	1181.795656424566	1
3	553	1182.879317771439	2
3	562	1207.921071308651	1
3	575	1237.592404539237	1
3	591	1263.979150557185	1
3	597	1268.471674512885	2
3	602	1280.860231261121	2
3	604	1281.213159268324	3
3	632	1334.781804229055	1
3	640	1342.435565038599	1
3	644	1352.867238912116	1
3	650	1375.309585504405	1
3	659	1398.299642162285	1
3	665	1404.77742651609	1
3	677	1425.76906201151	1
3	682	1430.384050855711	1
3	688	1448.648219502481	1
3	710	1492.015021764522	1
3	712	1497.036609395997	2
3	725	1523.329877500482	1
3	743	1546.266431360994	1
3	761	1598.33928803856	1
3	784	1640.4232040738	1
3	818	1735.467369980249	1
3	836	1767.330518862194	1
3	848	1822.296353712127	1
3	854	1833.60911008917	2
3	856	1837.832209965198	3
3	866	1887.823250840407	1
3	871	1891.218272816414	1
3	887	1921.668223527153	1
3	902	1967.396434143435	1
3	923	1993.270757791483	1
3	930	2005.425083293427	1
3	933	2008.092390160378	1
3	937	2014.950917893618	1
3	961	2064.563262874183	1
3	966	2069.515851758278	1
3	970	2079.326869143163	2
3	977	2103.346587578668	1
3	983	2110.335738409846	1
3	986	2125.044740041305	1
3	989	2144.225125355446	1
3	992	2150.527057442777	1
3	1001	2163.143513135241	1
3	1031	2210.697394252604	1
3	1033	2216.593915740708	2
3	1049	2277.88009486364	1
3	1069	2314.406601838302	1
3	1087	2396.152750829857	1
3	1091	2400.088119842539	2
3	1095	2414.679708258506	3
3	1098	2419.832186906069	3
4	161	353.492191333855	0
4	164	359.733270225707	0
4	166	361.358890033519	0
4	172	368.78043457168	1
4	175	372.299479237702	1
4	176	376.982702434593	0
4	184	380.352000414881	0
4	192	388.861516406107	1
4	196	391.757141693541	2
4	197	393.09188624001	2
4	200	394.432920429907	1
4	201	395.68667742165	0
4	204	400.427176001047	0
4	209	402.150114109342	0
4	216	418.490878757168	0
4	218	421.634878531556	1
4	219	425.864307741123	1
4	220	433.148274214402	0
4	248	498.166435993675	0
4	249	503.561572225697	0
4	281	570.157955171208	0
4	287	572.013697630046	1
4	288	572.17015635404	1
4	289	573.050071832192	0
4	309	619.990869827664	0
4	310	623.687241863771	0
4	312	626.951996879465	0
4	313	633.563625675107	0
4	320	643.369658326367	0
4	321	643.711974037983	0
4	325	648.833252517114	0
4	326	650.06041079703	0
4	329	656.358877459783	0
4	332	659.09513703652	0
4	335	670.89757570658	0
4	336	672.391822429525	0
4	353	714.718457972752	0
4	355	715.659682895607	1
4	356	717.137631386173	1
4	357	718.456074225932	0
4	362	738.112029162346	0
4	363	742.238718745081	0
4	365	744.260440483758	0
4	368	753.453661889399	0
4	370	754.18205261004	0
4	371	754.617227168914	0
4	377	776.438308007573	0
4	380	780.844307382045	0
4	389	790.590701076314	0
4	390	800.425856455825	0
4	401	821.734270542422	0
4	402	825.480446396644	0
4	409	836.585368277	0
4	413	845.649693670463	1
4	414	845.71735824376	1
4	415	845.936402728558	0
4	431	898.271736045084	0
4	433	900.679632703256	1
4	436	904.094754908129	1
4	437	904.518614682067	0
4	443	917.623000115617	0
4	445	921.272436396995	1
4	448	926.388316361502	1
4	451	928.023993485186	0
4	461	943.345188572361	0
4	463	943.713555040912	1
4	465	944.787028829265	2
4	468	949.457071197747	2
4	469	949.587293098339	1
4	472	956.722132385722	0
4	479	975.864205792521	0
4	481	983.786107803526	1
4	482	984.367062741265	1
4	484	990.276985011205	1
4	488	991.438078315617	2
4	489	995.467069032555	2
4	490	1002.919112131512	1
4	495	1017.173280262846	0
4	503	1031.498604334519	0
4	505	1035.463420870607	1
4	506	1035.913871405741	1
4	507	1038.929264589755	0
4	515	1050.509505621411	0
4	518	1054.095474415339	0
4	536	1102.565256430476	0
4	537	1105.141427438397	0
4	539	1126.178327443082	0
4	540	1139.509559602461	0
4	551	1181.795656424566	0
4	553	1182.879317771439	1
4	558	1188.275165556543	1
4	559	1203.793727479581	0
4	562	1207.921071308651	0
4	563	1211.179228996261	0
4	575	1237.592404539237	0
4	576	1237.786240678127	0
4	591	1263.979150557185	0
4	597	1268.471674512885	1
4	600	1277.933263534912	1
4	602	1280.860231261121	1
4	604	1281.213159268324	2
4	607	1285.334731352916	2
4	608	1294.0384198178	1
4	609	1294.619070419848	0
4	632	1334.781804229055	0
4	633	1338.63152070155	0
4	640	1342.435565038599	0
4	641	1350.732314672809	0
4	644	1352.867238912116	0
4	645	1367.545286384243	0
4	650	1375.309585504405	0
4	655	1385.236879654282	0
4	659	1398.299642162285	0
4	660	1398.434658324639	0
4	665	1404.77742651609	0
4	674	1422.890759353189	0
4	677	1425.76906201151	0
4	680	1430.050976638282	0
4	682	1430.384050855711	0
4	683	1444.219298415333	0
4	688	1448.648219502481	0
4	689	1449.945056487933	0
4	710	1492.015021764522	0
4	712	1497.036609395997	1
4	715	1509.126080026853	1
4	722	1522.081063220751	0
4	725	1523.329877500482	0
4	726	1523.377931076726	0
4	743	1546.266431360994	0
4	744	1547.196798933763	0
4	761	1598.33928803856	0
4	772	1625.311886049968	0
4	784	1640.4232040738	0
4	789	1649.931794551259	0
4	818	1735.467369980249	0
4	819	1736.250377014375	0
4	836	1767.330518862194	0
4	837	1780.499293735395	0
4	848	1822.296353712127	0
4	854	1833.60911008917	1
4	856	1837.832209965198	2
4	857	1842.752233381167	2
4	858	1844.093623840731	1
4	859	1844.940125983162	0
4	866	1887.823250840407	0
4	867	1890.039788025854	0
4	871	1891.218272816414	0
4	874	1893.263643708339	0
4	887	1921.668223527153	0
4	892	1939.473969181493	0
4	902	1967.396434143435	0
4	903	1975.350103199268	0
4	923	1993.270757791483	0
4	924	2000.610462100992	0
4	930	2005.425083293427	0
4	931	2007.345769687596	0
4	933	2008.092390160378	0
4	934	2010.759622855154	0
4	937	2014.950917893618	0
4	940	2018.874954685713	0
4	961	2064.563262874183	0
4	964	2068.316718066363	0
4	966	2069.515851758278	0
4	970	2079.326869143163	1
4	971	2083.12083866903	1
4	972	2084.378232043741	0
4	977	2103.346587578668	0
4	980	2104.021538837267	0
4	983	2110.335738409846	0
4	984	2111.86639256984	0
4	986	2125.044740041305	0
4	987	2132.784074122481	0
4	989	2144.225125355446	0
4	990	2145.762586140515	0
4	992	2150.527057442777	0
4	995	2154.277877807308	0
4	1001	2163.143513135241	0
4	1008	2176.544938381943	0
4	1031	2210.697394252604	0
4	1033	2216.593915740708	1
4	1036	2221.331535881743	1
4	1039	2229.506699674521	0
4	1049	2277.88009486364	0
4	1054	2291.448876803692	0
4	1069	2314.406601838302	0
4	1070	2315.16120764554	0
4	1087	2396.152750829857	0
4	1091	2400.088119842539	1
4	1095	2414.679708258506	2
4	1096	2418.357903145574	2
4	1098	2419.832186906069	2
4	1099	2421.127126428159	2
4	1102	2429.253213841085	1
4	1105	2435.335400913232	0
5	161	353.492191333855	0
5	166	361.358890033519	0
5	175	372.299479237702	3.519044666022
5	184	380.352000414881	0
5	197	393.09188624001	4.230369833903
5	200	394.432920429907	2.675778736366
5	204	400.427176001047	0
5	216	418.490878757168	0
5	219	425.864307741123	4.229429209567
5	248	498.166435993675	0
5	281	570.157955171208	0
5	288	572.17015635404	0.156458723994
5	309	619.990869827664	0
5	312	626.951996879465	0
5	320	643.369658326367	0
5	325	648.833252517114	0
5	329	656.358877459783	0
5	335	670.89757570658	0
5	353	714.718457972752	0
5	356	717.137631386173	1.477948490566
5	362	738.112029162346	0
5	365	744.260440483758	0
5	370	754.18205261004	0
5	377	776.438308007573	0
5	389	790.590701076314	0
5	401	821.734270542422	0
5	409	836.585368277	0
5	414	845.71735824376	0.067664573297
5	431	898.271736045084	0
5	436	904.094754908129	3.415122204873
5	443	917.623000115617	0
5	448	926.388316361502	5.115879964507
5	461	943.345188572361	0
5	468	949.457071197747	5.743516156835
5	469	949.587293098339	4.800264269074
5	479	975.864205792521	0
5	482	984.367062741265	0.580954937739
5	489	995.467069032555	5.19008402135
5	490	1002.919112131512	11.481033815895
5	503	1031.498604334519	0
5	506	1035.913871405741	0.450450535134
5	515	1050.509505621411	0
5	536	1102.565256430476	0
5	539	1126.178327443082	0
5	551	1181.795656424566	0
5	558	1188.275165556543	5.395847785104
5	562	1207.921071308651	0
5	575	1237.592404539237	0
5	591	1263.979150557185	0
5	600	1277.933263534912	9.461589022027
5	607	1285.334731352916	4.474500091795
5	608	1294.0384198178	12.825260549476
5	632	1334.781804229055	0
5	640	1342.435565038599	0
5	644	1352.867238912116	0
5	650	1375.309585504405	0
5	659	1398.299642162285	0
5	665	1404.77742651609	0
5	677	1425.76906201151	0
5	682	1430.384050855711	0
5	688	1448.648219502481	0
5	710	1492.015021764522	0
5	715	1509.126080026853	12.089470630856
5	725	1523.329877500482	0
5	743	1546.266431360994	0
5	761	1598.33928803856	0
5	784	1640.4232040738	0
5	818	1735.467369980249	0
5	836	1767.330518862194	0
5	848	1822.296353712127	0
5	857	1842.752233381167	9.143123291997
5	858	1844.093623840731	6.261413875533
5	866	1887.823250840407	0
5	871	1891.218272816414	0
5	887	1921.668223527153	0
5	902	1967.396434143435	0
5	923	1993.270757791483	0
5	930	2005.425083293427	0
5	933	2008.092390160378	0
5	937	2014.950917893618	0
5	961	2064.563262874183	0
5	966	2069.515851758278	0
5	971	2083.12083866903	3.793969525867
5	977	2103.346587578668	0
5	983	2110.335738409846	0
5	986	2125.044740041305	0
5	989	2144.225125355446	0
5	992	2150.527057442777	0
5	1001	2163.143513135241	0
5	1031	2210.697394252604	0
5	1036	2221.331535881743	4.737620141035
5	1049	2277.88009486364	0
5	1069	2314.406601838302	0
5	1087	2396.152750829857	0
5	1096	2418.357903145574	18.269783303035
5	1099	2421.127126428159	6.447418169653
5	1102	2429.253213841085	9.421026935016
6	163	356.275138873474	1
6	168	361.531743559315	2
6	170	367.553763951342	3
6	174	368.970575265093	4
6	179	379.927922828233	4
6	182	380.306087155442	4
6	186	382.080972587445	5
6	188	382.936418932786	6
6	190	387.510257431181	7
6	194	389.911119545815	8
6	199	393.455530514951	9
6	206	401.335149171264	9
6	208	401.485334148296	10
6	212	412.129365972685	10
6	224	446.532072824088	7
6	230	455.418534664674	4
6	233	459.485586021208	4
6	237	468.041860974414	3
6	242	480.239443259427	1
6	245	484.314394665896	1
6	251	511.606946428544	1
6	254	516.396541660431	1
6	257	517.029377089414	1
6	259	522.165015742967	2
6	261	523.706183755885	3
6	266	535.079449780043	1
6	269	542.924549707891	1
6	271	544.504856593887	2
6	273	545.10126394541	3
6	276	560.650013804625	3
6	283	571.503968412171	1
6	285	571.885422676681	2
6	291	576.531670043592	3
6	294	586.041278199781	3
6	297	591.842793986612	3
6	299	593.492340352836	4
6	301	593.822627101554	5
6	304	608.601332355442	5
6	316	642.500478591344	2
6	323	645.553767806205	1
6	331	658.72291101783	1
6	338	673.50565802358	1
6	340	674.664452820824	2
6	343	678.053537741583	2
6	346	679.276270559373	2
6	350	689.822589290019	1
6	359	722.812043553386	1
6	367	752.887833589075	1
6	373	754.865825694057	2
6	379	779.934200981398	1
6	383	786.323076486688	1
6	386	788.123718112885	1
6	392	811.826066980366	1
6	395	815.947848581462	1
6	397	820.44480297725	2
6	399	821.388645718781	3
6	406	828.891794095329	2
6	411	840.695604552115	2
6	418	857.256330799712	2
6	422	868.648008226734	1
6	424	870.702630473908	2
6	428	894.689810098196	1
6	435	903.133171413273	1
6	440	906.787099258618	1
6	447	924.958018129097	1
6	450	926.96826182913	2
6	455	938.47093182519	1
6	457	938.824901339621	2
6	467	946.970759347724	1
6	471	951.594273986105	2
6	474	958.366921324126	3
6	486	991.294130417434	1
6	492	1007.904452093689	2
6	494	1016.561505806223	3
6	498	1023.68614644825	3
6	509	1045.719007057478	1
6	511	1046.141772985728	2
6	517	1053.433658907636	1
6	521	1067.124123066431	1
6	524	1080.147366110922	1
6	527	1085.663846851348	1
6	530	1090.489287960552	1
6	532	1092.101482329185	2
6	542	1140.083382758178	1
6	545	1160.613482617548	1
6	548	1165.599748141268	1
6	555	1184.832306587143	1
6	557	1186.37157715356	2
6	565	1211.343419140701	2
6	569	1235.09717362252	1
6	571	1236.164658714414	2
6	573	1236.791656967319	3
6	578	1240.13416520579	4
6	580	1241.095342600622	5
6	584	1255.132693136419	4
6	588	1261.420735924344	3
6	593	1265.523657481921	3
6	595	1265.53163369834	4
6	599	1269.672344984342	5
6	606	1281.365090834462	6
6	612	1299.931884046393	6
6	616	1304.724605843547	5
6	618	1305.322714708422	6
6	624	1317.789257898108	3
6	628	1330.070538396107	2
6	635	1339.403950450485	1
6	637	1341.489957657103	2
6	647	1367.584745697833	1
6	652	1380.920423930158	1
6	654	1381.753183424919	2
6	662	1402.299300518417	1
6	667	1411.883606823326	1
6	669	1412.663953516089	2
6	671	1421.810878278908	3
6	673	1422.579160929986	4
6	679	1426.932312804626	4
6	686	1446.708472722902	4
6	691	1450.82885761971	5
6	694	1455.574463608922	5
6	696	1455.730999947189	6
6	703	1471.269624064226	2
6	707	1489.047028911997	1
6	714	1501.003251163954	1
6	717	1514.643396132198	2
6	719	1515.115288514532	3
6	721	1519.425740557147	4
6	728	1524.898422388147	4
6	732	1531.528094648684	3
6	736	1535.210731051848	2
6	739	1543.742296043003	2
6	746	1554.127229392814	1
6	749	1557.389591053862	1
6	752	1559.510693161534	1
6	754	1562.792788404847	2
6	757	1567.742571124257	2
6	763	1609.196141096314	1
6	765	1610.986066775387	2
6	767	1616.904226737302	3
6	769	1623.299458895717	4
6	771	1623.989388436137	5
6	775	1626.095454983176	5
6	777	1630.575454856278	6
6	786	1649.186861691882	2
6	788	1649.593474439688	3
6	793	1654.678995133334	2
6	795	1654.924764420721	3
6	799	1660.428087577648	2
6	803	1676.477283815076	1
6	806	1690.768281401143	1
6	809	1707.193064526369	1
6	812	1726.215648249001	1
6	815	1729.345563490037	1
6	821	1737.490455389247	1
6	823	1740.254922656132	2
6	825	1741.252134770375	3
6	828	1744.241500984743	3
6	833	1752.815041703053	1
6	839	1797.208591200755	1
6	842	1804.485709461222	1
6	845	1817.024796108276	1
6	850	1822.667217348664	1
6	852	1832.014805444614	2
6	863	1863.728023762385	1
6	869	1890.325002330053	1
6	873	1892.911421496219	2
6	877	1897.909856720685	2
6	880	1900.228729364245	2
6	882	1902.394972575954	3
6	889	1923.105917349807	1
6	891	1936.930188235271	2
6	896	1945.527027404059	1
6	899	1951.529515973467	1
6	905	1978.121877551877	1
6	907	1979.34124746618	2
6	910	1979.762433639967	2
6	912	1980.054325816748	3
6	914	1980.804055573983	4
6	916	1984.075517845662	5
6	920	1987.134381859309	4
6	928	2004.51657132158	2
6	939	2016.414489280249	2
6	942	2019.355225779663	3
6	944	2021.296189842671	4
6	947	2027.04262790873	4
6	953	2046.560566042738	1
6	955	2049.309392990112	2
6	959	2061.485768394387	1
6	963	2066.837198190048	2
6	968	2079.137475032824	3
6	979	2104.013738594891	1
6	994	2153.081210459794	1
6	997	2156.356740043825	2
6	1003	2173.045091011533	1
6	1005	2173.616005250678	2
6	1007	2175.034293339372	3
6	1010	2177.084121156678	4
6	1012	2180.5173811797	5
6	1014	2181.868862810189	6
6	1019	2189.076723022662	4
6	1023	2190.77130714992	3
6	1026	2192.37424995934	3
6	1035	2219.717478738328	1
6	1038	2221.871233968395	2
6	1041	2230.071724645932	3
6	1043	2230.935555957897	4
6	1051	2282.93439780404	1
6	1053	2285.416402302551	2
6	1057	2298.293892914577	2
6	1059	2299.2747170942	3
6	1064	2303.439979488083	1
6	1066	2305.47910729848	2
6	1073	2332.303734596903	1
6	1075	2334.907025363425	2
6	1079	2357.875581853046	1
6	1081	2359.875021229818	2
6	1085	2395.018293745815	1
6	1089	2396.55827791462	2
6	1093	2404.75453472669	3
6	1101	2426.276812347666	4
6	1104	2430.731895255457	5
6	1107	2436.181161132906	6
6	1110	2441.666214032224	6
6	1112	2442.032794299837	7
6	1115	2443.172972015987	7
6	1117	2444.959135336682	8
6	1127	2462.964472082763	1
6	1129	2463.231614912147	2
6	1133	2487.671983780769	1
6	1136	2494.931331030283	1
6	1139	2498.796688845567	1
7	164	359.733270225707	17
7	175	372.299479237702	18
7	176	376.982702434593	19
7	197	393.09188624001	20
7	200	394.432920429907	21
7	201	395.68667742165	22
7	209	402.150114109342	23
7	219	425.864307741123	24
7	220	433.148274214402	25
7	249	503.561572225697	26
7	288	572.17015635404	27
7	289	573.050071832192	28
7	310	623.687241863771	29
7	313	633.563625675107	30
7	321	643.711974037983	31
7	326	650.06041079703	32
7	332	659.09513703652	33
7	336	672.391822429525	34
7	356	717.137631386173	35
7	357	718.456074225932	36
7	363	742.238718745081	37
7	368	753.453661889399	38
7	371	754.617227168914	39
7	380	780.844307382045	40
7	390	800.425856455825	41
7	402	825.480446396644	42
7	414	845.71735824376	43
7	415	845.936402728558	44
7	436	904.094754908129	45
7	437	904.518614682067	46
7	448	926.388316361502	47
7	451	928.023993485186	48
7	468	949.457071197747	49
7	469	949.587293098339	50
7	472	956.722132385722	51
7	482	984.367062741265	52
7	489	995.467069032555	53
7	490	1002.919112131512	54
7	495	1017.173280262846	55
7	506	1035.913871405741	56
7	507	1038.929264589755	57
7	518	1054.095474415339	58
7	537	1105.141427438397	59
7	540	1139.509559602461	60
7	558	1188.275165556543	61
7	559	1203.793727479581	62
7	563	1211.179228996261	63
7	576	1237.786240678127	64
7	600	1277.933263534912	65
7	607	1285.334731352916	66
7	608	1294.0384198178	67
7	609	1294.619070419848	68
7	633	1338.63152070155	69
7	641	1350.732314672809	70
7	645	1367.545286384243	71
7	655	1385.236879654282	72
7	660	1398.434658324639	73
7	674	1422.890759353189	74
7	680	1430.050976638282	75
7	683	1444.219298415333	76
7	689	1449.945056487933	77
7	715	1509.126080026853	78
7	722	1522.081063220751	79
7	726	1523.377931076726	80
7	744	1547.196798933763	81
7	772	1625.311886049968	82
7	789	1649.931794551259	83
7	819	1736.250377014375	84
7	837	1780.499293735395	85
7	857	1842.752233381167	86
7	858	1844.093623840731	87
7	859	1844.940125983162	88
7	867	1890.039788025854	89
7	874	1893.263643708339	90
7	892	1939.473969181493	91
7	903	1975.350103199268	92
7	924	2000.610462100992	93
7	931	2007.345769687596	94
7	934	2010.759622855154	95
7	940	2018.874954685713	96
7	964	2068.316718066363	97
7	971	2083.12083866903	98
7	972	2084.378232043741	99
7	980	2104.021538837267	100
7	984	2111.86639256984	101
7	987	2132.784074122481	102
7	990	2145.762586140515	103
7	995	2154.277877807308	104
7	1008	2176.544938381943	105
7	1036	2221.331535881743	106
7	1039	2229.506699674521	107
7	1054	2291.448876803692	108
7	1070	2315.16120764554	109
7	1096	2418.357903145574	110
7	1099	2421.127126428159	111
7	1102	2429.253213841085	112
7	1105	2435.335400913232	113
8	164	359.733270225707	6.241078891852
8	175	372.299479237702	10.940589204183
8	176	376.982702434593	8.202267862913
8	197	393.09188624001	12.739885825129
8	200	394.432920429907	5.5714040238
8	201	395.68667742165	3.929535728109
8	209	402.150114109342	1.722938108295
8	219	425.864307741123	7.373428983955
8	220	433.148274214402	11.513395682846
8	249	503.561572225697	5.395136232022
8	288	572.17015635404	2.012201182832
8	289	573.050071832192	1.036374202146
8	310	623.687241863771	3.696372036107
8	313	633.563625675107	6.611628795642
8	321	643.711974037983	0.342315711616
8	326	650.06041079703	1.227158279916
8	332	659.09513703652	2.736259576737
8	336	672.391822429525	1.494246722945
8	356	717.137631386173	2.419173413421
8	357	718.456074225932	2.796391330325
8	363	742.238718745081	4.126689582735
8	368	753.453661889399	9.193221405641
8	371	754.617227168914	0.435174558874
8	380	780.844307382045	4.405999374472
8	390	800.425856455825	9.835155379511
8	402	825.480446396644	3.746175854222
8	414	845.71735824376	9.13198996676
8	415	845.936402728558	0.286709058095
8	436	904.094754908129	5.823018863045
8	437	904.518614682067	3.838981978811
8	448	926.388316361502	8.765316245885
8	451	928.023993485186	6.751557088191
8	468	949.457071197747	6.111882625386
8	469	949.587293098339	5.873738057427
8	472	956.722132385722	11.935103556457
8	482	984.367062741265	8.502856948744
8	489	995.467069032555	11.680961229029
8	490	1002.919112131512	12.642127120307
8	495	1017.173280262846	25.735201947229
8	506	1035.913871405741	4.415267071222
8	507	1038.929264589755	3.465843719148
8	518	1054.095474415339	3.585968793928
8	537	1105.141427438397	2.576171007921
8	540	1139.509559602461	13.331232159379
8	558	1188.275165556543	6.479509131977
8	559	1203.793727479581	20.914409708142
8	563	1211.179228996261	3.25815768761
8	576	1237.786240678127	0.19383613889
8	600	1277.933263534912	13.954112977727
8	607	1285.334731352916	16.863056840031
8	608	1294.0384198178	13.178188556679
8	609	1294.619070419848	13.405911151524
8	633	1338.63152070155	3.849716472495
8	641	1350.732314672809	8.29674963421
8	645	1367.545286384243	14.678047472127
8	655	1385.236879654282	9.927294149877
8	660	1398.434658324639	0.135016162354
8	674	1422.890759353189	18.113332837099
8	680	1430.050976638282	4.281914626772
8	683	1444.219298415333	13.835247559622
8	689	1449.945056487933	1.296836985452
8	715	1509.126080026853	17.111058262331
8	722	1522.081063220751	25.044453824754
8	726	1523.377931076726	0.048053576244
8	744	1547.196798933763	0.930367572769
8	772	1625.311886049968	26.972598011408
8	789	1649.931794551259	9.508590477459
8	819	1736.250377014375	0.783007034126
8	837	1780.499293735395	13.168774873201
8	857	1842.752233381167	20.45587966904
8	858	1844.093623840731	10.484513751561
8	859	1844.940125983162	7.107916017964
8	867	1890.039788025854	2.216537185447
8	874	1893.263643708339	2.045370891925
8	892	1939.473969181493	17.80574565434
8	903	1975.350103199268	7.953669055833
8	924	2000.610462100992	7.339704309509
8	931	2007.345769687596	1.920686394169
8	934	2010.759622855154	2.667232694776
8	940	2018.874954685713	3.924036792095
8	964	2068.316718066363	3.75345519218
8	971	2083.12083866903	13.604986910752
8	972	2084.378232043741	5.051362900578
8	980	2104.021538837267	0.674951258599
8	984	2111.86639256984	1.530654159994
8	987	2132.784074122481	7.739334081176
8	990	2145.762586140515	1.537460785069
8	995	2154.277877807308	3.750820364531
8	1008	2176.544938381943	13.401425246702
8	1036	2221.331535881743	10.634141629139
8	1039	2229.506699674521	12.912783933813
8	1054	2291.448876803692	13.568781940052
8	1070	2315.16120764554	0.754605807238
8	1096	2418.357903145574	22.205152315717
8	1099	2421.127126428159	21.03900658562
8	1102	2429.253213841085	14.573505582579
8	1105	2435.335400913232	15.503214007163
9	164	359.733270225707	3.458131352233
9	176	376.982702434593	15.623812401074
9	177	378.917798212897	17.386054653582
9	180	380.040413356014	12.486649404672
9	201	395.68667742165	26.716102156557
9	202	399.317719367366	19.389796539133
9	209	402.150114109342	21.8440269539
9	210	405.839102645269	25.487102230388
9	213	413.300208403338	31.219235815893
9	214	416.544575073799	33.608156141013
9	220	433.148274214402	45.638016783221
9	221	435.190772543739	45.279652997924
9	222	437.987904555453	44.532374040502
9	225	447.030077067997	46.60290106695
9	226	448.48393766841	47.148788497146
9	227	449.80050988869	48.315175740394
9	228	454.133767300282	42.004401327597
9	231	455.772085657073	37.281206899905
9	234	463.927011434681	17.394938610593
9	235	464.780497984154	9.36196331948
9	238	471.889866014365	12.404279993157
9	239	472.34531954605	4.303458571636
9	242	480.239443259427	0
9	245	484.314394665896	0
9	251	511.606946428544	0
9	254	516.396541660431	0
9	257	517.029377089414	0
9	262	523.820268118826	1.655252375859
9	263	524.689292450424	0.983108694539
9	266	535.079449780043	0
9	269	542.924549707891	0
9	274	556.331783221416	11.826926627529
9	277	561.898629953095	16.797366007685
9	278	562.419768938729	1.769755134104
9	289	573.050071832192	1.546103420021
9	292	577.881305730292	5.995883053611
9	295	591.729130453447	15.197460409855
9	302	601.736379362886	15.695101163105
9	305	610.172590834156	18.329796847544
9	306	612.950382256701	19.458041903865
9	307	618.742161010827	24.919533909273
9	310	623.687241863771	15.085909508329
9	313	633.563625675107	13.572755847443
9	314	636.526458037867	9.574461158402
9	317	642.748224563693	0.247745972349
9	323	645.553767806205	0
9	326	650.06041079703	1.227158279916
9	332	659.09513703652	0.37222601869
9	338	673.50565802358	0
9	341	675.003611209332	0.339158388508
9	344	679.205309316411	1.151771574828
9	347	681.827691832765	2.551421273392
9	350	689.822589290019	0
9	359	722.812043553386	0
9	368	753.453661889399	0.565828300324
9	371	754.617227168914	0.435174558874
9	374	756.310871572908	1.445045878851
9	380	780.844307382045	0.910106400647
9	383	786.323076486688	0
9	386	788.123718112885	0
9	392	811.826066980366	0
9	395	815.947848581462	0
9	402	825.480446396644	5.035643419394
9	403	825.495024626167	4.106378907386
9	404	827.844671806481	6.110401264059
9	407	829.651107863104	0.759313767775
9	415	845.936402728558	9.351034451558
9	416	855.672074151963	14.976469599848
9	419	860.872000830285	3.615670030573
9	422	868.648008226734	0
9	425	871.164857474607	0.462227000699
9	428	894.689810098196	0
9	437	904.518614682067	1.385443268794
9	440	906.787099258618	0
9	451	928.023993485186	3.065975356089
9	452	930.417441944855	3.449180115725
9	455	938.47093182519	0
9	458	939.116659881767	0.291758542146
9	472	956.722132385722	9.751373037998
9	475	963.097500593077	11.503226606972
9	476	963.181030202815	4.814108878689
9	495	1017.173280262846	25.879149845412
9	496	1017.458800344583	9.554348250894
9	499	1024.663003461882	8.101497655659
9	500	1025.549393492112	1.863247043862
9	509	1045.719007057478	0
9	512	1048.599552539494	2.457779553766
9	518	1054.095474415339	0.661815507703
9	521	1067.124123066431	0
9	524	1080.147366110922	0
9	527	1085.663846851348	0
9	530	1090.489287960552	0
9	533	1093.955841346225	1.85435901704
9	542	1140.083382758178	0
9	545	1160.613482617548	0
9	548	1165.599748141268	0
9	559	1203.793727479581	18.961420892438
9	560	1205.33649834894	18.96492119538
9	563	1211.179228996261	3.25815768761
9	566	1211.805660247292	0.462241106591
9	569	1235.09717362252	0
9	576	1237.786240678127	1.621581963713
9	581	1241.717511781952	4.925854814633
9	582	1242.667152691811	5.074748152574
9	585	1255.919630913813	15.785465708023
9	586	1260.219192589779	19.123849989157
9	589	1262.925653558577	7.792960422158
9	609	1294.619070419848	33.198334495504
9	610	1296.838258600988	32.859108043803
9	613	1303.158820770825	37.635163288904
9	614	1303.60546433329	38.07383063495
9	619	1307.581864990778	37.909520006436
9	620	1311.618881875478	30.253791041016
9	621	1314.583239568147	14.651355521754
9	622	1315.197228162925	10.472622319378
9	625	1317.951276438775	12.628561730353
9	626	1322.883975892627	5.094717994519
9	629	1333.39365172492	3.323113328813
9	635	1339.403950450485	0
9	638	1342.227266381067	0.737308723964
9	641	1350.732314672809	8.29674963421
9	647	1367.584745697833	0
9	655	1385.236879654282	4.316455724124
9	656	1392.371331563411	10.618148138492
9	662	1402.299300518417	0
9	674	1422.890759353189	11.007152529863
9	675	1423.094902644323	10.430949128234
9	680	1430.050976638282	8.240098359374
9	683	1444.219298415333	21.640137485347
9	684	1444.42189869789	18.65283668638
9	689	1449.945056487933	23.012743683307
9	692	1453.672330003226	23.288279147515
9	697	1459.902885570897	13.194412847995
9	698	1461.498791052974	12.850571550493
9	699	1463.41877880015	12.58992118044
9	700	1470.322099263884	14.747635654962
9	701	1470.365382717	14.634382769811
9	704	1472.632309236382	1.362685172156
9	707	1489.047028911997	0
9	722	1522.081063220751	21.077812056797
9	723	1522.278419998368	7.63502386617
9	726	1523.377931076726	8.262642562194
9	729	1525.78227134946	6.356530792313
9	730	1528.28885374569	4.958976245208
9	733	1532.956720886306	8.058298498159
9	734	1534.711803686136	3.183709037452
9	737	1542.492483203795	7.281752151947
9	740	1544.161396746443	0.41910070344
9	746	1554.127229392814	0
9	749	1557.389591053862	0
9	752	1559.510693161534	0
9	755	1563.977264270292	1.184475865445
9	758	1568.039560407617	0.29698928336
9	772	1625.311886049968	16.115744953654
9	773	1625.53585514103	14.549788365643
9	778	1630.943053739164	14.038827001862
9	779	1634.232976715408	10.933517819691
9	780	1636.404278204034	12.414889767897
9	781	1637.284117075099	11.188662091923
9	782	1640.008098182458	9.43264332618
9	789	1649.931794551259	9.508590477459
9	790	1651.653057914018	2.466196222136
9	791	1652.885058309154	3.291583869466
9	796	1655.019784420095	0.340789286761
9	797	1659.864331860179	4.939567439458
9	800	1668.457949143226	8.029861565578
9	803	1676.477283815076	0
9	806	1690.768281401143	0
9	809	1707.193064526369	0
9	812	1726.215648249001	0
9	815	1729.345563490037	0
9	821	1737.490455389247	0
9	826	1743.203202772595	2.948280116463
9	829	1745.224071946387	3.971937176012
9	830	1745.514820381156	1.273319396413
9	833	1752.815041703053	0
9	839	1797.208591200755	0
9	842	1804.485709461222	0
9	845	1817.024796108276	0
9	859	1844.940125983162	22.272908634498
9	860	1849.915259481697	17.900454037083
9	863	1863.728023762385	0
9	869	1890.325002330053	0
9	874	1893.263643708339	2.045370891925
9	875	1896.623203422639	3.71178192642
9	878	1899.5218515439	1.611994823215
9	883	1904.506296278579	4.277566914334
9	884	1908.428503120852	6.033530544898
9	892	1939.473969181493	16.368051831686
9	893	1939.889874326422	2.959686091151
9	896	1945.527027404059	0
9	899	1951.529515973467	0
9	905	1978.121877551877	0
9	908	1979.497637302267	0.156389836087
9	917	1984.918054138865	5.155620498898
9	918	1986.945486994657	6.891161177909
9	921	1991.405528989855	10.601473415872
9	924	2000.610462100992	16.53494425533
9	925	2001.887632409572	14.753250550263
9	926	2003.407551780165	10.136793988682
9	931	2007.345769687596	2.829198366016
9	934	2010.759622855154	5.334539561727
9	935	2013.063333283664	4.970943123286
9	940	2018.874954685713	3.924036792095
9	945	2023.947254266535	7.532764986286
9	948	2032.940446625833	13.58522084617
9	949	2035.380403206212	14.084213363541
9	950	2038.132958031602	11.090330122872
9	953	2046.560566042738	0
9	956	2051.291892706176	1.982499716064
9	959	2061.485768394387	0
9	964	2068.316718066363	3.75345519218
9	972	2084.378232043741	17.541033853693
9	973	2085.977169966056	16.461318207778
9	974	2086.952453994496	7.814978961672
9	980	2104.021538837267	0.007800242376
9	995	2154.277877807308	1.196667347514
9	998	2157.48736814043	1.130628096605
9	1008	2176.544938381943	3.49984737041
9	1015	2183.744020572514	10.128015321836
9	1016	2183.922731563617	8.888438224245
9	1017	2187.105007492148	10.02088633547
9	1020	2189.596148966062	9.078767786362
9	1021	2189.671902758064	7.803039947875
9	1024	2190.92700633604	1.850283313378
9	1027	2193.637038702222	2.865731552302
9	1028	2194.781065115745	2.406815156405
9	1039	2229.506699674521	9.789220936193
9	1044	2231.718393245695	9.8471592773
9	1045	2233.155964236312	3.08423959038
9	1046	2234.740509178973	3.804953221076
9	1054	2291.448876803692	8.514478999652
9	1055	2292.0496211657	6.633218863149
9	1060	2299.464991373636	1.171098459059
9	1061	2300.09009849506	0.81538140086
9	1064	2303.439979488083	0
9	1067	2311.471240909395	5.992133610915
9	1070	2315.16120764554	0.754605807238
9	1073	2332.303734596903	0
9	1076	2336.317204634224	1.410179270799
9	1079	2357.875581853046	0
9	1082	2360.921614053451	1.046592823633
9	1085	2395.018293745815	0
9	1105	2435.335400913232	39.182650083375
9	1108	2440.332044956767	43.773767042147
9	1113	2442.170957954362	37.416423227672
9	1118	2447.196038903697	20.919226556031
9	1119	2447.499948509918	16.768053254461
9	1120	2450.49464751962	14.313486386714
9	1121	2456.599611807401	14.933397775177
9	1122	2457.020287802614	14.987493502777
9	1123	2457.573908799469	14.400936783482
9	1124	2457.772191324385	12.813055987703
9	1127	2462.964472082763	0
9	1130	2465.522395770393	2.290780858246
9	1133	2487.671983780769	0
9	1136	2494.931331030283	0
9	1139	2498.796688845567	0
10	166	361.358890033519	3
10	184	380.352000414881	4
10	204	400.427176001047	5
10	216	418.490878757168	6
10	309	619.990869827664	7
10	312	626.951996879465	8
10	325	648.833252517114	9
10	370	754.18205261004	10
10	401	821.734270542422	11
10	409	836.585368277	12
10	562	1207.921071308651	13
10	575	1237.592404539237	14
10	591	1263.979150557185	15
10	640	1342.435565038599	16
10	677	1425.76906201151	17
10	682	1430.384050855711	18
10	688	1448.648219502481	19
10	725	1523.329877500482	20
10	784	1640.4232040738	21
10	871	1891.218272816414	22
10	923	1993.270757791483	23
10	930	2005.425083293427	24
10	933	2008.092390160378	25
10	937	2014.950917893618	26
10	961	2064.563262874183	27
10	966	2069.515851758278	28
10	1069	2314.406601838302	29
10	1087	2396.152750829857	30
11	1141	2500	0.1068
12	1141	2500	0.0452

