version 2
run experiments_easy_game_mode1-1000-20230308-12:05:26-23781
attr configname experiments_easy_game_mode1
attr datetime 20230308-12:05:26
attr experiment experiments_easy_game_mode1
attr inifile omnetpp.ini
attr iterationvars "$0=6, $1=3, $2=100"
attr iterationvarsf 6,3,100-
attr measurement "$0=6, $1=3, $2=100"
attr network Network
attr processid 23781
attr repetition 10
attr replication #10
attr resultdir results
attr runnumber 1000
attr seedset 10
param *.boss.arrival_mean 20
param *.boss.service_mean 6
param *.minion.arrival_mean 10
param *.minion.service_mean 3
param *.player.recover_rate_x 100
param **.minion.arrival_distribution 0
param **.minion.service_distribution 0
param **.boss.arrival_distribution 0
param **.boss.service_distribution 0

vector 0 Network.player boss_defeated_stat:vector ETV
attr source signal_boss_defeated
vector 1 Network.player boss_jobs_queue_number_stat:vector ETV
attr source signal_boss_jobs_queue_number
vector 2 Network.player boss_response_time_stat:vector ETV
attr source signal_boss_response_time
vector 3 Network.player boss_waiting_time_stat:vector ETV
attr source signal_boss_waiting_time
vector 4 Network.player minion_waiting_time_stat:vector ETV
attr source signal_minion_waiting_time
vector 5 Network.player minion_defeated_stat:vector ETV
attr source signal_minion_defeated
vector 6 Network.player minion_jobs_queue_number_stat:vector ETV
attr source signal_minion_jobs_queue_number
vector 7 Network.player minion_response_time_stat:vector ETV
attr source signal_minion_response_time
vector 8 Network.player minion_jobs_number_stat:vector ETV
attr source signal_minion_jobs_number
vector 9 Network.player boss_jobs_number_stat:vector ETV
attr source signal_boss_jobs_number
vector 10 Network.player minion_recovered_stat:vector ETV
attr source signal_minion_recovered
vector 11 Network.player minion_throughput:vector ETV
attr source signal_minion_throughput
vector 12 Network.player boss_throughput:vector ETV
attr source signal_boss_throughput
0	172	352.921495427544	21
0	173	353.878057032297	22
0	200	429.542646043669	23
0	210	445.494985123874	24
0	219	482.917039875354	25
0	240	540.734954483841	26
0	245	542.072140462984	27
0	256	560.644333235736	28
0	257	572.732940287961	29
0	292	647.72079672139	30
0	293	649.219485425689	31
0	302	672.418161932694	32
0	305	676.494129890814	33
0	312	697.513749998959	34
0	319	709.454388919781	35
0	320	710.564288691132	36
0	325	719.105891736296	37
0	328	722.331669376391	38
0	339	737.096088022853	39
0	349	747.208443006201	40
0	367	771.125614679871	41
0	372	776.940151374636	42
0	377	798.27991331593	43
0	378	801.382686407626	44
0	379	804.303162797483	45
0	418	866.091549873619	46
0	429	884.630242067813	47
0	430	889.489201873064	48
0	433	893.030128954518	49
0	434	896.391392769107	50
0	444	919.582729804842	51
0	455	933.105463172909	52
0	459	937.174005819905	53
0	462	947.867735964593	54
0	469	974.382168670147	55
0	480	1043.820104003151	56
0	483	1062.575651709318	57
0	500	1082.640035069906	58
0	501	1084.465382537536	59
0	515	1115.717256697084	60
0	519	1132.031011650627	61
0	536	1158.087782339614	62
0	539	1163.248387045982	63
0	550	1174.052991537167	64
0	551	1177.925953131398	65
0	558	1188.375809159259	66
0	595	1237.678076930067	67
0	603	1289.689352583054	68
0	647	1378.993061121231	69
0	648	1382.025047971592	70
0	659	1420.012298728482	71
0	674	1432.455575875285	72
0	675	1446.913463192558	73
0	686	1466.763714275806	74
0	689	1471.233587541083	75
0	690	1480.745464781131	76
0	691	1481.404480873633	77
0	692	1482.160937318949	78
0	693	1483.358338827813	79
0	713	1510.09015532996	80
0	716	1528.440938456298	81
0	719	1529.440513935947	82
0	720	1532.626204191824	83
0	734	1568.216541739257	84
0	743	1580.232185742995	85
0	746	1585.86644001481	86
0	762	1623.581768293056	87
0	767	1628.654142840342	88
0	776	1638.745816755262	89
0	785	1654.050206974004	90
0	789	1660.482836244573	91
0	807	1702.86257800231	92
0	810	1716.486031732113	93
0	813	1717.354949959285	94
0	816	1721.325221531025	95
0	825	1734.390356353217	96
0	833	1743.530500250723	97
0	848	1772.118078081871	98
0	855	1802.401089555945	99
0	856	1806.96237639871	100
0	876	1839.75888993953	101
0	888	1870.922176369193	102
0	900	1902.09183174988	103
0	911	1916.076973042176	104
0	924	1971.543066873331	105
0	942	1985.640751342549	106
0	956	2024.885254552215	107
0	972	2076.757684793151	108
0	982	2099.9698739161	109
0	996	2123.163611894163	110
0	1013	2172.211678837541	111
0	1017	2177.373617039545	112
0	1020	2185.569032152832	113
0	1026	2199.256426789793	114
0	1029	2207.496070428578	115
0	1036	2223.864392300262	116
0	1037	2229.50727624248	117
0	1052	2280.791444343516	118
0	1064	2293.319538035529	119
0	1088	2336.315520485017	120
0	1091	2337.700169900125	121
0	1107	2373.257407428548	122
0	1108	2374.589983077266	123
0	1121	2398.753024515431	124
0	1137	2429.911400614035	125
0	1146	2442.420668371615	126
0	1150	2448.937666602595	127
1	172	352.921495427544	1
1	173	353.878057032297	0
1	199	419.824288542282	0
1	200	429.542646043669	0
1	209	445.426883461239	0
1	210	445.494985123874	0
1	218	481.155473799364	0
1	219	482.917039875354	0
1	239	536.946986058516	0
1	240	540.734954483841	0
1	242	541.720738592907	0
1	244	541.736319955185	1
1	245	542.072140462984	1
1	247	545.749899725905	1
1	256	560.644333235736	1
1	257	572.732940287961	0
1	287	642.852204457678	0
1	289	646.904432915695	1
1	292	647.72079672139	1
1	293	649.219485425689	0
1	301	666.123998518003	0
1	302	672.418161932694	0
1	304	673.379073049835	0
1	305	676.494129890814	0
1	311	692.296201596188	0
1	312	697.513749998959	0
1	316	707.174758416955	0
1	318	707.316586279335	1
1	319	709.454388919781	1
1	320	710.564288691132	0
1	322	718.627327699064	0
1	324	719.093978241006	1
1	325	719.105891736296	1
1	328	722.331669376391	0
1	332	725.978438086876	0
1	339	737.096088022853	0
1	344	740.857761909457	0
1	349	747.208443006201	0
1	356	759.785179545867	0
1	364	769.99705848	1
1	367	771.125614679871	1
1	369	773.001749095169	1
1	371	773.957541426202	2
1	372	776.940151374636	2
1	376	780.867851638882	2
1	377	798.27991331593	2
1	378	801.382686407626	1
1	379	804.303162797483	0
1	407	853.673845421965	0
1	411	862.799389841877	1
1	418	866.091549873619	1
1	420	868.098797839271	1
1	426	880.277491819915	2
1	428	882.177038103687	3
1	429	884.630242067813	3
1	430	889.489201873064	2
1	433	893.030128954518	1
1	434	896.391392769107	0
1	443	912.935758198835	0
1	444	919.582729804842	0
1	452	932.202672012874	0
1	455	933.105463172909	0
1	458	936.657389288969	0
1	459	937.174005819905	0
1	461	946.297682443241	0
1	462	947.867735964593	0
1	464	960.738265453186	0
1	469	974.382168670147	0
1	479	1042.502595974247	0
1	480	1043.820104003151	0
1	482	1060.452690583967	0
1	483	1062.575651709318	0
1	491	1073.028472791389	0
1	493	1073.979749661901	1
1	500	1082.640035069906	1
1	501	1084.465382537536	0
1	514	1113.293494763991	0
1	515	1115.717256697084	0
1	518	1132.000155132253	0
1	519	1132.031011650627	0
1	533	1154.808071207918	0
1	536	1158.087782339614	0
1	538	1158.547296278815	0
1	539	1163.248387045982	0
1	541	1170.522199205898	0
1	545	1171.867477851254	1
1	547	1172.13455232041	2
1	550	1174.052991537167	2
1	551	1177.925953131398	1
1	558	1188.375809159259	0
1	594	1231.608305717097	0
1	595	1237.678076930067	0
1	602	1288.624242739881	0
1	603	1289.689352583054	0
1	644	1356.036850805122	0
1	646	1372.606487445524	1
1	647	1378.993061121231	1
1	648	1382.025047971592	0
1	656	1405.653119015198	0
1	658	1415.389328740932	1
1	659	1420.012298728482	1
1	663	1422.655085990457	1
1	665	1422.976987813847	2
1	669	1425.03253417898	3
1	673	1430.283059070374	4
1	674	1432.455575875285	4
1	675	1446.913463192558	3
1	681	1453.338074498799	3
1	683	1458.853815662555	4
1	686	1466.763714275806	4
1	688	1470.455632448849	4
1	689	1471.233587541083	4
1	690	1480.745464781131	3
1	691	1481.404480873633	2
1	692	1482.160937318949	1
1	693	1483.358338827813	0
1	704	1493.449335598144	0
1	706	1496.052380205525	1
1	713	1510.09015532996	1
1	715	1514.884379549808	1
1	716	1528.440938456298	1
1	718	1528.555324124831	1
1	719	1529.440513935947	1
1	720	1532.626204191824	0
1	731	1564.373909976404	0
1	733	1565.073784446035	1
1	734	1568.216541739257	1
1	736	1568.88161662372	1
1	743	1580.232185742995	1
1	746	1585.86644001481	0
1	761	1616.890074396541	0
1	762	1623.581768293056	0
1	764	1626.810805176556	0
1	767	1628.654142840342	0
1	771	1632.799960695581	0
1	775	1636.823592669957	1
1	776	1638.745816755262	1
1	785	1654.050206974004	0
1	788	1658.548708404319	0
1	789	1660.482836244573	0
1	798	1686.708174305305	0
1	800	1694.179105853179	1
1	807	1702.86257800231	1
1	809	1705.252233173425	1
1	810	1716.486031732113	1
1	813	1717.354949959285	0
1	815	1719.93445107556	0
1	816	1721.325221531025	0
1	820	1724.59685573388	0
1	825	1734.390356353217	0
1	832	1740.42133159935	0
1	833	1743.530500250723	0
1	841	1757.194056480443	0
1	843	1761.281828584842	1
1	845	1761.918109262225	2
1	848	1772.118078081871	2
1	855	1802.401089555945	1
1	856	1806.96237639871	0
1	875	1831.77425238343	0
1	876	1839.75888993953	0
1	887	1868.713537013691	0
1	888	1870.922176369193	0
1	899	1898.558444776125	0
1	900	1902.09183174988	0
1	910	1910.506246022932	0
1	911	1916.076973042176	0
1	923	1966.608133512492	0
1	924	1971.543066873331	0
1	935	1976.663636876505	0
1	942	1985.640751342549	0
1	955	2021.706676798273	0
1	956	2024.885254552215	0
1	971	2073.959348802285	0
1	972	2076.757684793151	0
1	977	2092.180436930985	0
1	982	2099.9698739161	0
1	993	2118.166042985004	0
1	996	2123.163611894163	0
1	1012	2169.154750841632	0
1	1013	2172.211678837541	0
1	1016	2177.061307273094	0
1	1017	2177.373617039545	0
1	1019	2178.914416394662	0
1	1020	2185.569032152832	0
1	1025	2195.814478513715	0
1	1026	2199.256426789793	0
1	1028	2200.177172437229	0
1	1029	2207.496070428578	0
1	1031	2214.891347264506	0
1	1033	2215.816986545285	1
1	1036	2223.864392300262	1
1	1037	2229.50727624248	0
1	1051	2280.78927417951	0
1	1052	2280.791444343516	0
1	1063	2288.659915777357	0
1	1064	2293.319538035529	0
1	1083	2325.886460952761	0
1	1087	2335.729066720743	1
1	1088	2336.315520485017	1
1	1091	2337.700169900125	0
1	1100	2363.241703758442	0
1	1102	2369.572912620892	1
1	1107	2373.257407428548	1
1	1108	2374.589983077266	0
1	1116	2385.090107213244	0
1	1121	2398.753024515431	0
1	1134	2420.381264551342	0
1	1137	2429.911400614035	0
1	1145	2438.055371942036	0
1	1146	2442.420668371615	0
1	1149	2446.879911890008	0
1	1150	2448.937666602595	0
2	172	352.921495427544	4.329656966094
2	173	353.878057032297	4.124914572474
2	200	429.542646043669	9.718357501387
2	210	445.494985123874	0.068101662635
2	219	482.917039875354	1.76156607599
2	240	540.734954483841	3.787968425325
2	245	542.072140462984	0.351401870077
2	256	560.644333235736	18.908013280551
2	257	572.732940287961	26.983040562056
2	292	647.72079672139	4.868592263712
2	293	649.219485425689	2.315052509994
2	302	672.418161932694	6.294163414691
2	305	676.494129890814	3.115056840979
2	312	697.513749998959	5.217548402771
2	319	709.454388919781	2.279630502826
2	320	710.564288691132	3.247702411797
2	325	719.105891736296	0.478564037232
2	328	722.331669376391	3.237691135385
2	339	737.096088022853	11.117649935977
2	349	747.208443006201	6.350681096744
2	367	771.125614679871	11.340435134004
2	372	776.940151374636	6.943092894636
2	377	798.27991331593	25.278164220761
2	378	801.382686407626	27.425144981424
2	379	804.303162797483	23.435311158601
2	418	866.091549873619	12.417704451654
2	429	884.630242067813	21.830852225936
2	430	889.489201873064	21.390404033793
2	433	893.030128954518	12.752637134603
2	434	896.391392769107	14.21435466542
2	444	919.582729804842	6.646971606007
2	455	933.105463172909	0.902791160035
2	459	937.174005819905	0.516616530936
2	462	947.867735964593	1.570053521352
2	469	974.382168670147	13.643903216961
2	480	1043.820104003151	1.317508028904
2	483	1062.575651709318	2.122961125351
2	500	1082.640035069906	9.611562278517
2	501	1084.465382537536	10.485632875635
2	515	1115.717256697084	2.423761933093
2	519	1132.031011650627	0.030856518374
2	536	1158.087782339614	3.279711131696
2	539	1163.248387045982	4.701090767167
2	550	1174.052991537167	3.530792331269
2	551	1177.925953131398	6.058475280144
2	558	1188.375809159259	16.241256838849
2	595	1237.678076930067	6.06977121297
2	603	1289.689352583054	1.065109843173
2	647	1378.993061121231	22.956210316109
2	648	1382.025047971592	9.418560526068
2	659	1420.012298728482	14.359179713284
2	674	1432.455575875285	17.066247134353
2	675	1446.913463192558	24.258377202101
2	686	1466.763714275806	43.786726461959
2	689	1471.233587541083	46.201053362103
2	690	1480.745464781131	50.462405710757
2	691	1481.404480873633	28.066406374834
2	692	1482.160937318949	23.307121656394
2	693	1483.358338827813	12.902706378964
2	713	1510.09015532996	16.640819731816
2	716	1528.440938456298	32.388558250773
2	719	1529.440513935947	14.556134386139
2	720	1532.626204191824	4.070880066993
2	734	1568.216541739257	3.842631762853
2	743	1580.232185742995	15.15840129696
2	746	1585.86644001481	16.98482339109
2	762	1623.581768293056	6.691693896515
2	767	1628.654142840342	1.843337663786
2	776	1638.745816755262	5.945856059681
2	785	1654.050206974004	17.226614304047
2	789	1660.482836244573	1.934127840254
2	807	1702.86257800231	16.154403697005
2	810	1716.486031732113	22.306925878934
2	813	1717.354949959285	12.10271678586
2	816	1721.325221531025	1.390770455465
2	825	1734.390356353217	9.793500619337
2	833	1743.530500250723	3.109168651373
2	848	1772.118078081871	14.924021601428
2	855	1802.401089555945	41.119260971103
2	856	1806.96237639871	45.044267136485
2	876	1839.75888993953	7.9846375561
2	888	1870.922176369193	2.208639355502
2	900	1902.09183174988	3.533386973755
2	911	1916.076973042176	5.570727019244
2	924	1971.543066873331	4.934933360839
2	942	1985.640751342549	8.977114466044
2	956	2024.885254552215	3.178577753942
2	972	2076.757684793151	2.798335990866
2	982	2099.9698739161	7.789436985115
2	996	2123.163611894163	4.997568909159
2	1013	2172.211678837541	3.056927995909
2	1017	2177.373617039545	0.312309766451
2	1020	2185.569032152832	6.65461575817
2	1026	2199.256426789793	3.441948276078
2	1029	2207.496070428578	7.318897991349
2	1036	2223.864392300262	8.973045035756
2	1037	2229.50727624248	13.690289697195
2	1052	2280.791444343516	0.002170164006
2	1064	2293.319538035529	4.659622258172
2	1088	2336.315520485017	10.429059532256
2	1091	2337.700169900125	1.971103179382
2	1107	2373.257407428548	10.015703670106
2	1108	2374.589983077266	5.017070456374
2	1121	2398.753024515431	13.662917302187
2	1137	2429.911400614035	9.530136062693
2	1146	2442.420668371615	4.365296429579
2	1150	2448.937666602595	2.057754712587
3	172	352.921495427544	3.168352967721
3	199	419.824288542282	0
3	209	445.426883461239	0
3	218	481.155473799364	0
3	239	536.946986058516	0
3	242	541.720738592907	0
3	245	542.072140462984	0.335820507799
3	256	560.644333235736	14.894433509831
3	287	642.852204457678	0
3	292	647.72079672139	0.816363805695
3	301	666.123998518003	0
3	304	673.379073049835	0
3	311	692.296201596188	0
3	316	707.174758416955	0
3	319	709.454388919781	2.137802640446
3	322	718.627327699064	0
3	325	719.105891736296	0.01191349529
3	332	725.978438086876	0
3	344	740.857761909457	0
3	356	759.785179545867	0
3	367	771.125614679871	1.128556199871
3	372	776.940151374636	3.938402279467
3	377	798.27991331593	24.322371889728
3	378	801.382686407626	20.514834768744
3	407	853.673845421965	0
3	418	866.091549873619	3.292160031742
3	429	884.630242067813	16.531444228542
3	430	889.489201873064	9.211710053149
3	433	893.030128954518	10.853090850831
3	443	912.935758198835	0
3	452	932.202672012874	0
3	458	936.657389288969	0
3	461	946.297682443241	0
3	464	960.738265453186	0
3	479	1042.502595974247	0
3	482	1060.452690583967	0
3	491	1073.028472791389	0
3	500	1082.640035069906	8.660285408005
3	514	1113.293494763991	0
3	518	1132.000155132253	0
3	533	1154.808071207918	0
3	538	1158.547296278815	0
3	541	1170.522199205898	0
3	550	1174.052991537167	2.185513685913
3	551	1177.925953131398	5.791400810988
3	594	1231.608305717097	0
3	602	1288.624242739881	0
3	644	1356.036850805122	0
3	647	1378.993061121231	6.386573675707
3	656	1405.653119015198	0
3	659	1420.012298728482	4.62296998755
3	674	1432.455575875285	9.800489884828
3	675	1446.913463192558	23.936475378711
3	686	1466.763714275806	41.731180096826
3	689	1471.233587541083	40.950528470709
3	690	1480.745464781131	27.407390282332
3	691	1481.404480873633	22.550665211078
3	692	1482.160937318949	11.7053048701
3	704	1493.449335598144	0
3	713	1510.09015532996	14.037775124435
3	716	1528.440938456298	13.55655890649
3	719	1529.440513935947	0.885189811116
3	731	1564.373909976404	0
3	734	1568.216541739257	3.142757293222
3	743	1580.232185742995	11.350569119275
3	761	1616.890074396541	0
3	764	1626.810805176556	0
3	771	1632.799960695581	0
3	776	1638.745816755262	1.922224085305
3	788	1658.548708404319	0
3	798	1686.708174305305	0
3	807	1702.86257800231	8.683472149131
3	810	1716.486031732113	11.233798558688
3	815	1719.93445107556	0
3	820	1724.59685573388	0
3	832	1740.42133159935	0
3	841	1757.194056480443	0
3	848	1772.118078081871	10.836249497029
3	855	1802.401089555945	40.48298029372
3	875	1831.77425238343	0
3	887	1868.713537013691	0
3	899	1898.558444776125	0
3	910	1910.506246022932	0
3	923	1966.608133512492	0
3	935	1976.663636876505	0
3	955	2021.706676798273	0
3	971	2073.959348802285	0
3	977	2092.180436930985	0
3	993	2118.166042985004	0
3	1012	2169.154750841632	0
3	1016	2177.061307273094	0
3	1019	2178.914416394662	0
3	1025	2195.814478513715	0
3	1028	2200.177172437229	0
3	1031	2214.891347264506	0
3	1036	2223.864392300262	8.047405754977
3	1051	2280.78927417951	0
3	1063	2288.659915777357	0
3	1083	2325.886460952761	0
3	1088	2336.315520485017	0.586453764274
3	1100	2363.241703758442	0
3	1107	2373.257407428548	3.684494807656
3	1116	2385.090107213244	0
3	1134	2420.381264551342	0
3	1145	2438.055371942036	0
3	1149	2446.879911890008	0
4	173	353.878057032297	4.537913382256
4	176	367.376450425266	0
4	179	384.176460755635	0
4	182	386.436038687455	0
4	185	391.952056832985	0
4	188	395.813839015567	1.947723193608
4	191	404.473974224828	0
4	194	410.436848643051	0
4	197	418.962261761174	0
4	200	429.542646043669	9.718357501387
4	203	432.780944678623	2.738273626889
4	206	441.443807283647	0
4	212	473.00260902335	0
4	215	475.369278079737	0
4	221	493.286867919828	0
4	224	501.939221806893	0
4	227	509.038289566614	0
4	230	518.619025209951	0
4	233	528.562184431506	0
4	236	530.409486620472	0
4	257	572.732940287961	24.303253050083
4	260	575.361310624899	22.509119778581
4	261	578.967051313495	20.184888657427
4	262	579.283237429172	19.49811237742
4	265	588.129471630506	13.977288339437
4	268	592.186331917663	10.409191184438
4	269	595.113624035373	3.205100568449
4	272	595.374215059023	0.128330139334
4	275	599.744693744301	0
4	278	614.054973155262	0
4	281	614.297599075603	0.095807935904
4	284	639.373022439287	0
4	293	649.219485425689	2.037931998199
4	296	658.412344747376	0
4	299	662.241880940892	0
4	302	672.418161932694	6.294163414691
4	305	676.494129890814	3.115056840979
4	312	697.513749998959	17.778660329166
4	313	701.834108930855	20.532594059468
4	314	702.823797592933	10.527595996745
4	320	710.564288691132	3.389530274177
4	328	722.331669376391	3.704341677327
4	329	723.647802889429	3.893746018962
4	339	737.096088022853	9.381547207659
4	342	739.714522311745	11.15136366023
4	349	747.208443006201	16.569121153572
4	352	753.389738480535	15.337821412034
4	353	757.831053646068	16.973291736611
4	354	759.058047923624	15.914835598923
4	379	804.303162797483	58.259295592097
4	382	806.990084016042	58.201345635257
4	383	807.728122062037	47.94294251617
4	384	812.287484998331	51.114009213706
4	385	816.674036028714	55.127125013231
4	386	817.950834960375	55.791073898333
4	391	825.169901734677	54.604225652286
4	392	829.004920287998	49.948531897807
4	395	835.211763539117	30.546375804316
4	396	836.52225183484	15.380774715204
4	397	836.837459922508	13.722989914516
4	398	838.689822420488	8.855919862577
4	401	842.231655417736	0.254906044471
4	404	844.753959809814	0
4	434	896.391392769107	38.907319095269
4	435	897.388022229793	33.297496172434
4	436	898.776837771025	34.370744296516
4	437	904.027794558933	39.617744043322
4	438	904.197440269059	31.044887673371
4	441	910.420724248322	30.240203587471
4	444	919.582729804842	27.439596508649
4	445	920.044873388799	14.143729251942
4	446	920.315040042562	7.379281843727
4	449	929.964332537532	0
4	455	933.105463172909	0.0883872842
4	469	974.382168670147	7.343716299512
4	470	976.616558569975	5.849796985284
4	473	988.829171470794	0
4	476	1033.712953239657	0
4	485	1063.897103797653	0
4	488	1067.205057491134	0
4	501	1084.465382537536	10.201535516436
4	502	1087.996359616435	11.925937431292
4	503	1092.31548179726	14.082158969499
4	506	1100.820633055485	0
4	509	1101.542520841805	0
4	512	1111.342333799117	0
4	515	1115.717256697084	2.423761933093
4	521	1137.351662066246	0
4	524	1143.757808395093	0
4	527	1148.722540957953	0
4	530	1151.992584731014	1.386984439227
4	536	1158.087782339614	2.23681129145
4	539	1163.248387045982	4.701090767167
4	558	1188.375809159259	17.853609953361
4	559	1190.753981124599	18.98976910379
4	560	1193.027247833767	19.388829840802
4	565	1196.457965291519	13.413977750205
4	568	1201.074535366196	16.610935067513
4	571	1207.037480491667	20.742789634644
4	572	1207.904757599354	14.476964047744
4	579	1215.179239224673	21.227010203282
4	580	1218.268812005671	20.150147256189
4	587	1223.33653684739	19.095193608468
4	588	1223.579769648009	13.23344915933
4	589	1228.891194110597	14.558570159227
4	590	1229.347573099981	14.516731936465
4	591	1229.429985923304	9.480899001115
4	592	1231.380832816716	8.466537014905
4	595	1237.678076930067	14.384806129716
4	596	1239.600491135678	7.992185418581
4	599	1248.688204836956	0
4	605	1290.898130123353	0
4	608	1292.134440060981	0.311277937819
4	611	1294.576402543527	0
4	614	1304.070144681555	0
4	617	1306.027610017938	0.186694874424
4	620	1319.757161600396	0
4	623	1323.432945874271	0
4	626	1329.748623566149	0
4	629	1331.472350562202	0.789844726939
4	632	1340.718512005517	0
4	635	1345.187440574485	0
4	638	1350.785968730655	0
4	641	1352.286864856484	1.414684005666
4	650	1382.607022192613	0
4	653	1400.916642425074	0
4	693	1483.358338827813	61.250982224019
4	694	1484.783360517029	59.811745951098
4	720	1532.626204191824	106.3966755009
4	721	1533.309529585521	81.837825882379
4	722	1536.714801667911	84.436967383348
4	723	1538.073515219505	75.108341545208
4	724	1542.601516175889	57.084992927292
4	725	1546.243815270099	58.521276816276
4	726	1550.319723275588	62.475627582236
4	727	1554.329575795054	64.410168875862
4	728	1558.725728729372	65.276393131228
4	729	1561.887636871445	58.274141144339
4	746	1585.86644001481	81.563212004465
4	747	1586.609403835511	80.870679853177
4	748	1586.926182071239	22.552272094835
4	749	1588.573251679036	16.793439956353
4	752	1590.197920698868	16.819320633428
4	753	1590.824334240093	15.956959496553
4	754	1595.040458328128	14.090356786768
4	755	1597.211282095918	7.799269800781
4	758	1606.774891541585	0
4	767	1628.654142840342	1.743089628477
4	785	1654.050206974004	22.002583959479
4	786	1654.149668955355	21.349708259774
4	789	1660.482836244573	26.680131312551
4	790	1662.046380000048	17.49883538475
4	791	1662.68617524053	17.486353974698
4	792	1670.883798554477	20.845933356791
4	793	1676.192087934934	25.909083676032
4	796	1679.09420766298	20.545499258661
4	813	1717.354949959285	40.151131287906
4	816	1721.325221531025	34.61704722572
4	817	1722.721021059576	28.492767613153
4	818	1722.991908200532	27.239058080154
4	825	1734.390356353217	37.461788362756
4	828	1735.72469839857	18.657400583292
4	833	1743.530500250723	23.596049175163
4	834	1746.373571989552	21.776716255672
4	835	1747.468727792472	21.73070486044
4	836	1749.169541113844	16.635738692544
4	837	1750.881922672028	15.162875247006
4	838	1751.327423737552	14.180340170698
4	839	1753.36177145118	12.94043985183
4	856	1806.96237639871	49.768319918267
4	857	1807.55761468097	38.62486285063
4	858	1809.696499876731	19.863961241437
4	859	1811.67959690914	11.477671863305
4	860	1811.946075165797	10.548251246428
4	863	1813.417267898949	0
4	866	1820.845952050105	0
4	869	1823.327664513411	2.218664471338
4	872	1824.789371780179	0.341132982648
4	878	1851.763375986915	0
4	881	1853.763101051265	0
4	884	1861.615734364642	0
4	890	1872.60282119802	0
4	893	1879.356073586884	0
4	896	1886.688361683324	0
4	902	1902.442019052124	0
4	905	1905.861314486726	0
4	908	1909.777407995839	0
4	911	1916.076973042176	5.570727019244
4	914	1922.182695436346	0
4	917	1930.15861388626	0
4	920	1963.91214132306	0
4	926	1973.318976600654	0
4	929	1973.486125512329	0.124815744765
4	932	1975.116582120982	0
4	942	1985.640751342549	8.067784269288
4	943	1986.808601329216	7.73196613792
4	944	1987.193258006142	1.931314715258
4	947	1989.30345486024	0
4	950	2015.354681933544	0
4	953	2020.548439221487	0
4	956	2024.885254552215	3.178577753942
4	959	2025.725814737138	0
4	962	2032.01908448859	0
4	965	2055.502620266609	0
4	968	2060.575503583687	0
4	974	2084.709706378142	0
4	982	2099.9698739161	7.030029367264
4	983	2100.748273298016	1.711183883073
4	986	2102.591137611019	0
4	989	2116.368780264422	0
4	996	2123.163611894163	6.681010845394
4	997	2123.44831874315	5.282275758146
4	1000	2126.978206714542	7.65414307283
4	1001	2128.184312471957	4.510037826701
4	1004	2138.040682945383	0
4	1007	2150.885637978048	0
4	1010	2167.367114672204	0
4	1013	2172.211678837541	3.056927995909
4	1022	2186.034893997877	0
4	1037	2229.50727624248	8.280196312159
4	1040	2238.889269602652	0
4	1043	2254.483068097837	0
4	1046	2271.075409916749	0
4	1049	2280.771826103366	0
4	1052	2280.791444343516	0.002170164006
4	1055	2283.864084695993	0
4	1058	2285.228315646586	0.858565805296
4	1061	2288.442495856882	0
4	1064	2293.319538035529	4.659622258172
4	1067	2297.580246024688	0
4	1070	2309.781809862415	0
4	1079	2320.875769193888	8.102956439016
4	1080	2321.497270806804	7.975947578549
4	1081	2321.894063463113	3.561496009417
4	1091	2337.700169900125	18.83161744795
4	1094	2346.459204875018	20.572743922257
4	1095	2357.402293514037	29.495562081034
4	1096	2357.700295342251	20.834394908517
4	1097	2359.987133060681	20.18330856145
4	1108	2374.589983077266	3.442216257258
4	1109	2375.244663402725	4.092629022758
4	1112	2380.887203781705	0
4	1121	2398.753024515431	15.564040255624
4	1122	2398.889388474183	13.799281260939
4	1125	2406.97407904662	20.576405286951
4	1128	2407.680099528078	16.561467317638
4	1129	2411.384211498958	10.792905600575
4	1132	2418.384944926186	10.869016574259
4	1137	2429.911400614035	11.781391898035
4	1140	2431.604063182125	11.222798630783
4	1143	2436.753098558714	12.874271419261
4	1146	2442.420668371615	12.387098998268
4	1147	2443.12814267648	7.583084937646
4	1150	2448.937666602595	10.882294660559
4	1151	2453.014088249932	6.134176359924
4	1154	2457.691458169595	0
4	1157	2461.138953990144	0
4	1160	2464.472812846729	2.179158265836
4	1163	2473.557527797445	0
4	1166	2474.41331895417	0
4	1169	2483.314383275376	0
4	1172	2487.898238471302	0
5	174	354.305306041357	36
5	177	371.479249331814	37
5	180	385.687767853134	38
5	183	387.959592815707	39
5	188	395.813839015567	40
5	189	398.625052965338	41
5	192	406.593690398492	42
5	195	414.34774732149	43
5	203	432.780944678623	44
5	204	434.424233321416	45
5	207	443.961159120593	46
5	213	474.504780562163	47
5	216	477.017232649788	48
5	222	494.079634116009	49
5	225	502.785574720811	50
5	228	510.786675848843	51
5	231	522.204470801191	52
5	234	529.962713016461	53
5	237	530.757938256741	54
5	260	575.361310624899	55
5	261	578.967051313495	56
5	262	579.283237429172	57
5	265	588.129471630506	58
5	268	592.186331917663	59
5	269	595.113624035373	60
5	272	595.374215059023	61
5	273	596.55542215105	62
5	276	600.149487250106	63
5	281	614.297599075603	64
5	282	615.467370460907	65
5	285	641.747840381421	66
5	294	652.308933023422	67
5	297	660.297436316615	68
5	313	701.834108930855	69
5	314	702.823797592933	70
5	329	723.647802889429	71
5	330	724.29467942645	72
5	342	739.714522311745	73
5	352	753.389738480535	74
5	353	757.831053646068	75
5	354	759.058047923624	76
5	382	806.990084016042	77
5	383	807.728122062037	78
5	384	812.287484998331	79
5	385	816.674036028714	80
5	386	817.950834960375	81
5	391	825.169901734677	82
5	392	829.004920287998	83
5	395	835.211763539117	84
5	396	836.52225183484	85
5	397	836.837459922508	86
5	398	838.689822420488	87
5	401	842.231655417736	88
5	402	843.072375564655	89
5	405	847.141861037016	90
5	435	897.388022229793	91
5	436	898.776837771025	92
5	437	904.027794558933	93
5	438	904.197440269059	94
5	441	910.420724248322	95
5	445	920.044873388799	96
5	446	920.315040042562	97
5	447	923.873262541035	98
5	450	930.950144051467	99
5	456	934.712233652876	100
5	470	976.616558569975	101
5	471	979.684418181936	102
5	474	995.762776779079	103
5	477	1034.559123552918	104
5	486	1066.664459894177	105
5	489	1068.597026339897	106
5	502	1087.996359616435	107
5	503	1092.31548179726	108
5	504	1093.311825681573	109
5	507	1101.364778147199	110
5	510	1102.513516043366	111
5	516	1117.318161914469	112
5	522	1137.86149103825	113
5	525	1145.637998512846	114
5	530	1151.992584731014	115
5	531	1152.550114371806	116
5	559	1190.753981124599	117
5	560	1193.027247833767	118
5	565	1196.457965291519	119
5	568	1201.074535366196	120
5	571	1207.037480491667	121
5	572	1207.904757599354	122
5	579	1215.179239224673	123
5	580	1218.268812005671	124
5	587	1223.33653684739	125
5	588	1223.579769648009	126
5	589	1228.891194110597	127
5	590	1229.347573099981	128
5	591	1229.429985923304	129
5	592	1231.380832816716	130
5	596	1239.600491135678	131
5	597	1240.364980970152	132
5	600	1249.617279626921	133
5	608	1292.134440060981	134
5	609	1293.569570597175	135
5	612	1297.152172299351	136
5	617	1306.027610017938	137
5	618	1311.213240666759	138
5	621	1320.920416301698	139
5	624	1327.860796631077	140
5	629	1331.472350562202	141
5	630	1331.885533812383	142
5	633	1343.169675743488	143
5	636	1345.612655199793	144
5	641	1352.286864856484	145
5	642	1354.413447301826	146
5	651	1385.197141393695	147
5	654	1404.986024668252	148
5	694	1484.783360517029	149
5	721	1533.309529585521	150
5	722	1536.714801667911	151
5	723	1538.073515219505	152
5	724	1542.601516175889	153
5	725	1546.243815270099	154
5	726	1550.319723275588	155
5	727	1554.329575795054	156
5	728	1558.725728729372	157
5	729	1561.887636871445	158
5	747	1586.609403835511	159
5	748	1586.926182071239	160
5	749	1588.573251679036	161
5	752	1590.197920698868	162
5	753	1590.824334240093	163
5	754	1595.040458328128	164
5	755	1597.211282095918	165
5	756	1603.064529847986	166
5	759	1612.576160549276	167
5	786	1654.149668955355	168
5	790	1662.046380000048	169
5	791	1662.68617524053	170
5	792	1670.883798554477	171
5	793	1676.192087934934	172
5	796	1679.09420766298	173
5	817	1722.721021059576	174
5	818	1722.991908200532	175
5	828	1735.72469839857	176
5	834	1746.373571989552	177
5	835	1747.468727792472	178
5	836	1749.169541113844	179
5	837	1750.881922672028	180
5	838	1751.327423737552	181
5	839	1753.36177145118	182
5	857	1807.55761468097	183
5	858	1809.696499876731	184
5	859	1811.67959690914	185
5	860	1811.946075165797	186
5	861	1812.427148698221	187
5	864	1814.23553084096	188
5	869	1823.327664513411	189
5	872	1824.789371780179	190
5	873	1827.062120268296	191
5	879	1853.646232368383	192
5	882	1860.254674682406	193
5	885	1863.35526603284	194
5	891	1873.000218487324	195
5	894	1880.150754049456	196
5	897	1886.870385087792	197
5	903	1903.97472985586	198
5	906	1907.085194791181	199
5	912	1919.553082646083	200
5	915	1925.290202980785	201
5	918	1931.372427259008	202
5	921	1965.217777093738	203
5	929	1973.486125512329	204
5	930	1974.832686220878	205
5	933	1976.342487130503	206
5	943	1986.808601329216	207
5	944	1987.193258006142	208
5	945	1987.752641428657	209
5	948	1992.535829457831	210
5	951	2016.599324292175	211
5	957	2025.532574231417	212
5	960	2028.209378007782	213
5	963	2033.014932919381	214
5	966	2059.12576351891	215
5	969	2061.14608872246	216
5	975	2089.674096046875	217
5	983	2100.748273298016	218
5	984	2102.008835110778	219
5	987	2108.569157931194	220
5	997	2123.44831874315	221
5	1000	2126.978206714542	222
5	1001	2128.184312471957	223
5	1002	2133.170641547779	224
5	1005	2138.901529903878	225
5	1008	2153.127805678858	226
5	1014	2174.335039385863	227
5	1023	2187.27930580832	228
5	1038	2231.092041296337	229
5	1041	2240.307772748515	230
5	1044	2254.749648788223	231
5	1047	2272.836864619207	232
5	1053	2283.439703448397	233
5	1058	2285.228315646586	234
5	1059	2286.22398927637	235
5	1065	2295.15604524409	236
5	1068	2298.33703375823	237
5	1079	2320.875769193888	238
5	1080	2321.497270806804	239
5	1081	2321.894063463113	240
5	1094	2346.459204875018	241
5	1095	2357.402293514037	242
5	1096	2357.700295342251	243
5	1097	2359.987133060681	244
5	1098	2361.564387048681	245
5	1109	2375.244663402725	246
5	1110	2375.672546825367	247
5	1122	2398.889388474183	248
5	1125	2406.97407904662	249
5	1128	2407.680099528078	250
5	1129	2411.384211498958	251
5	1132	2418.384944926186	252
5	1140	2431.604063182125	253
5	1143	2436.753098558714	254
5	1147	2443.12814267648	255
5	1151	2453.014088249932	256
5	1152	2454.034689322793	257
5	1155	2458.939104682312	258
5	1160	2464.472812846729	259
5	1161	2467.068075652255	260
5	1164	2473.847099183419	261
5	1167	2481.409561259546	262
5	1170	2486.29391514126	263
5	1173	2493.549980572547	264
6	174	354.305306041357	0
6	176	367.376450425266	0
6	177	371.479249331814	0
6	179	384.176460755635	0
6	180	385.687767853134	0
6	182	386.436038687455	0
6	183	387.959592815707	0
6	185	391.952056832985	0
6	187	393.866115821959	1
6	188	395.813839015567	1
6	189	398.625052965338	0
6	191	404.473974224828	0
6	192	406.593690398492	0
6	194	410.436848643051	0
6	195	414.34774732149	0
6	197	418.962261761174	0
6	202	430.042671051734	1
6	203	432.780944678623	1
6	204	434.424233321416	0
6	206	441.443807283647	0
6	207	443.961159120593	0
6	212	473.00260902335	0
6	213	474.504780562163	0
6	215	475.369278079737	0
6	216	477.017232649788	0
6	221	493.286867919828	0
6	222	494.079634116009	0
6	224	501.939221806893	0
6	225	502.785574720811	0
6	227	509.038289566614	0
6	228	510.786675848843	0
6	230	518.619025209951	0
6	231	522.204470801191	0
6	233	528.562184431506	0
6	234	529.962713016461	0
6	236	530.409486620472	0
6	237	530.757938256741	0
6	249	548.429687237878	0
6	251	552.852190846318	1
6	253	558.782162656068	2
6	255	559.785125051752	3
6	259	574.152183291069	4
6	260	575.361310624899	4
6	261	578.967051313495	3
6	262	579.283237429172	2
6	264	581.777140733225	2
6	265	588.129471630506	2
6	267	591.908523466924	2
6	268	592.186331917663	2
6	269	595.113624035373	1
6	271	595.245884919689	1
6	272	595.374215059023	1
6	273	596.55542215105	0
6	275	599.744693744301	0
6	276	600.149487250106	0
6	278	614.054973155262	0
6	280	614.201791139699	1
6	281	614.297599075603	1
6	282	615.467370460907	0
6	284	639.373022439287	0
6	285	641.747840381421	0
6	291	647.18155342749	0
6	294	652.308933023422	0
6	296	658.412344747376	0
6	297	660.297436316615	0
6	299	662.241880940892	0
6	307	679.735089669793	1
6	309	681.301514871387	2
6	313	701.834108930855	2
6	314	702.823797592933	1
6	327	719.754056870467	1
6	329	723.647802889429	1
6	330	724.29467942645	0
6	334	727.714540815194	0
6	336	728.563158651515	1
6	338	730.639321852629	2
6	341	738.051917068501	3
6	342	739.714522311745	3
6	346	743.143212324701	3
6	348	746.043867205386	4
6	351	748.788738380785	5
6	352	753.389738480535	5
6	353	757.831053646068	4
6	354	759.058047923624	3
6	358	761.173475784625	3
6	360	761.546911015483	4
6	362	762.159761062042	5
6	366	770.565676082391	6
6	374	779.056388390191	7
6	381	804.665387734801	8
6	382	806.990084016042	8
6	383	807.728122062037	7
6	384	812.287484998331	6
6	385	816.674036028714	5
6	386	817.950834960375	4
6	388	821.141477119636	4
6	390	823.114470007992	5
6	391	825.169901734677	5
6	392	829.004920287998	4
6	394	829.833902557911	4
6	395	835.211763539117	4
6	396	836.52225183484	3
6	397	836.837459922508	2
6	398	838.689822420488	1
6	400	841.976749373265	1
6	401	842.231655417736	1
6	402	843.072375564655	0
6	404	844.753959809814	0
6	405	847.141861037016	0
6	409	857.484073673838	0
6	413	864.090526057359	1
6	415	864.406093474509	2
6	417	864.410050515611	3
6	422	873.152552595688	4
6	424	880.180520660851	5
6	432	892.143133296193	6
6	435	897.388022229793	6
6	436	898.776837771025	5
6	437	904.027794558933	4
6	438	904.197440269059	3
6	440	905.901144136857	3
6	441	910.420724248322	3
6	445	920.044873388799	2
6	446	920.315040042562	1
6	447	923.873262541035	0
6	449	929.964332537532	0
6	450	930.950144051467	0
6	454	933.017075888709	0
6	456	934.712233652876	0
6	466	967.038452370635	0
6	468	970.766761584691	1
6	470	976.616558569975	1
6	471	979.684418181936	0
6	473	988.829171470794	0
6	474	995.762776779079	0
6	476	1033.712953239657	0
6	477	1034.559123552918	0
6	485	1063.897103797653	0
6	486	1066.664459894177	0
6	488	1067.205057491134	0
6	489	1068.597026339897	0
6	495	1074.2638470211	0
6	497	1076.070422185143	1
6	499	1078.233322827761	2
6	502	1087.996359616435	2
6	503	1092.31548179726	1
6	504	1093.311825681573	0
6	506	1100.820633055485	0
6	507	1101.364778147199	0
6	509	1101.542520841805	0
6	510	1102.513516043366	0
6	512	1111.342333799117	0
6	516	1117.318161914469	0
6	521	1137.351662066246	0
6	522	1137.86149103825	0
6	524	1143.757808395093	0
6	525	1145.637998512846	0
6	527	1148.722540957953	0
6	529	1150.605600291787	1
6	530	1151.992584731014	1
6	531	1152.550114371806	0
6	535	1155.850971048164	0
6	543	1171.764212020809	1
6	549	1173.638417992965	2
6	553	1183.043987541314	3
6	555	1184.463600298683	4
6	557	1186.294690857023	5
6	559	1190.753981124599	5
6	560	1193.027247833767	4
6	562	1193.42779355161	4
6	564	1193.952229021391	5
6	565	1196.457965291519	5
6	567	1198.118664749482	5
6	568	1201.074535366196	5
6	570	1204.241343238922	5
6	571	1207.037480491667	5
6	572	1207.904757599354	4
6	574	1210.346320488679	4
6	576	1214.33262395137	5
6	578	1214.830841163516	6
6	579	1215.179239224673	6
6	580	1218.268812005671	5
6	582	1219.949086922189	5
6	584	1222.914295801811	6
6	586	1223.293270800351	7
6	587	1223.33653684739	7
6	588	1223.579769648009	6
6	589	1228.891194110597	5
6	590	1229.347573099981	4
6	591	1229.429985923304	3
6	592	1231.380832816716	2
6	596	1239.600491135678	1
6	597	1240.364980970152	0
6	599	1248.688204836956	0
6	600	1249.617279626921	0
6	605	1290.898130123353	0
6	607	1291.823162123162	1
6	608	1292.134440060981	1
6	609	1293.569570597175	0
6	611	1294.576402543527	0
6	612	1297.152172299351	0
6	614	1304.070144681555	0
6	616	1305.840915143514	1
6	617	1306.027610017938	1
6	618	1311.213240666759	0
6	620	1319.757161600396	0
6	621	1320.920416301698	0
6	623	1323.432945874271	0
6	624	1327.860796631077	0
6	626	1329.748623566149	0
6	628	1330.682505835263	1
6	629	1331.472350562202	1
6	630	1331.885533812383	0
6	632	1340.718512005517	0
6	633	1343.169675743488	0
6	635	1345.187440574485	0
6	636	1345.612655199793	0
6	638	1350.785968730655	0
6	640	1350.872180850818	1
6	641	1352.286864856484	1
6	642	1354.413447301826	0
6	650	1382.607022192613	0
6	651	1385.197141393695	0
6	653	1400.916642425074	0
6	654	1404.986024668252	0
6	661	1422.107356603794	0
6	667	1424.971614565931	1
6	671	1426.229528690923	2
6	677	1451.471703703142	3
6	679	1452.277834284563	4
6	685	1462.965173674297	5
6	694	1484.783360517029	5
6	696	1485.516523248597	5
6	698	1487.722538453823	6
6	700	1487.844095693352	7
6	702	1489.919406919192	8
6	708	1503.613495727106	9
6	710	1504.303228010345	10
6	712	1505.738723982334	11
6	721	1533.309529585521	11
6	722	1536.714801667911	10
6	723	1538.073515219505	9
6	724	1542.601516175889	8
6	725	1546.243815270099	7
6	726	1550.319723275588	6
6	727	1554.329575795054	5
6	728	1558.725728729372	4
6	729	1561.887636871445	3
6	738	1571.779811722683	3
6	740	1573.37860006544	4
6	742	1574.86737474354	5
6	745	1580.95010154136	6
6	747	1586.609403835511	6
6	748	1586.926182071239	5
6	749	1588.573251679036	4
6	751	1589.412012295137	4
6	752	1590.197920698868	4
6	753	1590.824334240093	3
6	754	1595.040458328128	2
6	755	1597.211282095918	1
6	756	1603.064529847986	0
6	758	1606.774891541585	0
6	759	1612.576160549276	0
6	766	1626.911053211865	0
6	769	1632.047623014525	1
6	773	1633.802704932022	2
6	778	1644.547544615298	3
6	780	1645.199821265832	4
6	782	1650.037865197686	5
6	784	1650.283004258902	6
6	786	1654.149668955355	6
6	790	1662.046380000048	5
6	791	1662.68617524053	4
6	792	1670.883798554477	3
6	793	1676.192087934934	2
6	795	1677.203818671379	2
6	796	1679.09420766298	2
6	802	1694.228253446423	2
6	804	1695.752850120378	3
6	806	1696.928567990461	4
6	812	1717.067297815278	5
6	817	1722.721021059576	5
6	818	1722.991908200532	4
6	822	1725.738022932032	4
6	824	1732.5338024213	5
6	827	1735.719047425022	6
6	828	1735.72469839857	6
6	830	1737.147083566854	6
6	834	1746.373571989552	6
6	835	1747.468727792472	5
6	836	1749.169541113844	4
6	837	1750.881922672028	3
6	838	1751.327423737552	2
6	839	1753.36177145118	1
6	847	1768.93275183034	1
6	850	1789.832538635294	2
6	852	1800.201925045835	3
6	854	1801.397823919369	4
6	857	1807.55761468097	4
6	858	1809.696499876731	3
6	859	1811.67959690914	2
6	860	1811.946075165797	1
6	861	1812.427148698221	0
6	863	1813.417267898949	0
6	864	1814.23553084096	0
6	866	1820.845952050105	0
6	868	1821.109000042073	1
6	869	1823.327664513411	1
6	871	1824.448238797531	1
6	872	1824.789371780179	1
6	873	1827.062120268296	0
6	878	1851.763375986915	0
6	879	1853.646232368383	0
6	881	1853.763101051265	0
6	882	1860.254674682406	0
6	884	1861.615734364642	0
6	885	1863.35526603284	0
6	890	1872.60282119802	0
6	891	1873.000218487324	0
6	893	1879.356073586884	0
6	894	1880.150754049456	0
6	896	1886.688361683324	0
6	897	1886.870385087792	0
6	902	1902.442019052124	0
6	903	1903.97472985586	0
6	905	1905.861314486726	0
6	906	1907.085194791181	0
6	908	1909.777407995839	0
6	912	1919.553082646083	0
6	914	1922.182695436346	0
6	915	1925.290202980785	0
6	917	1930.15861388626	0
6	918	1931.372427259008	0
6	920	1963.91214132306	0
6	921	1965.217777093738	0
6	926	1973.318976600654	0
6	928	1973.361309767564	1
6	929	1973.486125512329	1
6	930	1974.832686220878	0
6	932	1975.116582120982	0
6	933	1976.342487130503	0
6	937	1977.572967073261	0
6	939	1979.076635191296	1
6	941	1985.261943290884	2
6	943	1986.808601329216	2
6	944	1987.193258006142	1
6	945	1987.752641428657	0
6	947	1989.30345486024	0
6	948	1992.535829457831	0
6	950	2015.354681933544	0
6	951	2016.599324292175	0
6	953	2020.548439221487	0
6	957	2025.532574231417	0
6	959	2025.725814737138	0
6	960	2028.209378007782	0
6	962	2032.01908448859	0
6	963	2033.014932919381	0
6	965	2055.502620266609	0
6	966	2059.12576351891	0
6	968	2060.575503583687	0
6	969	2061.14608872246	0
6	974	2084.709706378142	0
6	975	2089.674096046875	0
6	979	2092.939844548836	0
6	981	2099.037089414943	1
6	983	2100.748273298016	1
6	984	2102.008835110778	0
6	986	2102.591137611019	0
6	987	2108.569157931194	0
6	989	2116.368780264422	0
6	991	2116.482601048769	1
6	995	2119.324063641712	2
6	997	2123.44831874315	2
6	999	2123.674274645256	2
6	1000	2126.978206714542	2
6	1001	2128.184312471957	1
6	1002	2133.170641547779	0
6	1004	2138.040682945383	0
6	1005	2138.901529903878	0
6	1007	2150.885637978048	0
6	1008	2153.127805678858	0
6	1010	2167.367114672204	0
6	1014	2174.335039385863	0
6	1022	2186.034893997877	0
6	1023	2187.27930580832	0
6	1035	2221.227079930321	0
6	1038	2231.092041296337	0
6	1040	2238.889269602652	0
6	1041	2240.307772748515	0
6	1043	2254.483068097837	0
6	1044	2254.749648788223	0
6	1046	2271.075409916749	0
6	1047	2272.836864619207	0
6	1049	2280.771826103366	0
6	1053	2283.439703448397	0
6	1055	2283.864084695993	0
6	1057	2284.36974984129	1
6	1058	2285.228315646586	1
6	1059	2286.22398927637	0
6	1061	2288.442495856882	0
6	1065	2295.15604524409	0
6	1067	2297.580246024688	0
6	1068	2298.33703375823	0
6	1070	2309.781809862415	0
6	1072	2312.772812754872	1
6	1074	2313.521323228255	2
6	1076	2318.332567453696	3
6	1078	2318.868552452175	4
6	1079	2320.875769193888	4
6	1080	2321.497270806804	3
6	1081	2321.894063463113	2
6	1085	2327.906731433003	2
6	1090	2336.865900433734	3
6	1093	2339.803824499231	4
6	1094	2346.459204875018	4
6	1095	2357.402293514037	3
6	1096	2357.700295342251	2
6	1097	2359.987133060681	1
6	1098	2361.564387048681	0
6	1104	2371.147766820008	0
6	1106	2371.152034379967	1
6	1109	2375.244663402725	1
6	1110	2375.672546825367	0
6	1112	2380.887203781705	0
6	1114	2383.188984259807	1
6	1118	2386.397673759669	2
6	1120	2391.11863221044	3
6	1122	2398.889388474183	3
6	1124	2400.591305898383	3
6	1125	2406.97407904662	3
6	1127	2407.515928351927	3
6	1128	2407.680099528078	3
6	1129	2411.384211498958	2
6	1131	2418.130008716	2
6	1132	2418.384944926186	2
6	1136	2423.878827139453	2
6	1139	2430.033569373347	3
6	1140	2431.604063182125	3
6	1142	2435.545057738834	3
6	1143	2436.753098558714	3
6	1147	2443.12814267648	2
6	1151	2453.014088249932	1
6	1152	2454.034689322793	0
6	1154	2457.691458169595	0
6	1155	2458.939104682312	0
6	1157	2461.138953990144	0
6	1159	2462.293654580893	1
6	1160	2464.472812846729	1
6	1161	2467.068075652255	0
6	1163	2473.557527797445	0
6	1164	2473.847099183419	0
6	1166	2474.41331895417	0
6	1167	2481.409561259546	0
6	1169	2483.314383275376	0
6	1170	2486.29391514126	0
6	1172	2487.898238471302	0
6	1173	2493.549980572547	0
7	174	354.305306041357	4.965162391316
7	177	371.479249331814	4.102798906548
7	180	385.687767853134	1.511307097499
7	183	387.959592815707	1.523554128252
7	188	395.813839015567	3.861782182582
7	189	398.625052965338	4.758937143379
7	192	406.593690398492	2.119716173664
7	195	414.34774732149	3.910898678439
7	203	432.780944678623	12.956656136341
7	204	434.424233321416	4.381562269682
7	207	443.961159120593	2.517351836946
7	213	474.504780562163	1.502171538813
7	216	477.017232649788	1.647954570051
7	222	494.079634116009	0.792766196181
7	225	502.785574720811	0.846352913918
7	228	510.786675848843	1.748386282229
7	231	522.204470801191	3.58544559124
7	234	529.962713016461	1.400528584955
7	237	530.757938256741	0.348451636269
7	260	575.361310624899	26.931623387021
7	261	578.967051313495	26.114860467177
7	262	579.283237429172	20.501074773104
7	265	588.129471630506	28.344346578754
7	268	592.186331917663	18.034148626594
7	269	595.113624035373	13.336483302148
7	272	595.374215059023	3.465691592099
7	273	596.55542215105	1.309537231361
7	276	600.149487250106	0.404793505805
7	281	614.297599075603	0.242625920341
7	282	615.467370460907	1.265579321208
7	285	641.747840381421	2.374817942134
7	294	652.308933023422	5.127379595932
7	297	660.297436316615	1.885091569239
7	313	701.834108930855	22.099019261062
7	314	702.823797592933	21.522282721546
7	329	723.647802889429	5.020475190365
7	330	724.29467942645	4.540622555983
7	342	739.714522311745	11.999981496551
7	352	753.389738480535	22.750416627906
7	353	757.831053646068	19.779136577567
7	354	759.058047923624	18.200286014167
7	382	806.990084016042	60.946216810656
7	383	807.728122062037	58.939383681252
7	384	812.287484998331	52.502305452464
7	385	816.674036028714	55.500560244089
7	386	817.950834960375	56.403923944892
7	391	825.169901734677	63.010140672635
7	392	829.004920287998	58.439244205607
7	395	835.211763539117	56.155375148926
7	396	836.52225183484	31.856864100039
7	397	836.837459922508	15.695982802872
7	398	838.689822420488	15.575352412496
7	401	842.231655417736	12.397752859825
7	402	843.072375564655	1.09562619139
7	405	847.141861037016	2.387901227202
7	435	897.388022229793	39.903948555955
7	436	898.776837771025	34.686311713666
7	437	904.027794558933	39.621701084424
7	438	904.197440269059	39.787389753448
7	441	910.420724248322	37.268171652634
7	445	920.044873388799	27.901740092606
7	446	920.315040042562	14.413895905705
7	447	923.873262541035	10.9375043422
7	450	930.950144051467	0.985811513935
7	456	934.712233652876	1.695157764167
7	470	976.616558569975	9.57810619934
7	471	979.684418181936	8.917656597245
7	474	995.762776779079	6.933605308285
7	477	1034.559123552918	0.846170313261
7	486	1066.664459894177	2.767356096524
7	489	1068.597026339897	1.391968848763
7	502	1087.996359616435	13.732512595335
7	503	1092.31548179726	16.245059612117
7	504	1093.311825681573	15.078502853812
7	507	1101.364778147199	0.544145091714
7	510	1102.513516043366	0.970995201561
7	516	1117.318161914469	4.024667150478
7	522	1137.86149103825	0.509828972004
7	525	1145.637998512846	1.880190117753
7	530	1151.992584731014	3.270043773061
7	531	1152.550114371806	1.944514080019
7	559	1190.753981124599	20.231781918701
7	560	1193.027247833767	21.263035812958
7	565	1196.457965291519	22.819547298554
7	568	1201.074535366196	18.030547824882
7	571	1207.037480491667	22.573880192984
7	572	1207.904757599354	21.610066742331
7	579	1215.179239224673	21.751445673063
7	580	1218.268812005671	24.31658298428
7	587	1223.33653684739	25.217872097908
7	588	1223.579769648009	19.338426409087
7	589	1228.891194110597	18.544873621918
7	590	1229.347573099981	15.014949148611
7	591	1229.429985923304	14.599144759788
7	592	1231.380832816716	11.431745894527
7	596	1239.600491135678	16.307220335327
7	597	1240.364980970152	8.756675253055
7	600	1249.617279626921	0.929074789965
7	608	1292.134440060981	1.236309937628
7	609	1293.569570597175	1.746408474013
7	612	1297.152172299351	2.575769755824
7	617	1306.027610017938	1.957465336383
7	618	1311.213240666759	5.372325523245
7	621	1320.920416301698	1.163254701302
7	624	1327.860796631077	4.427850756806
7	629	1331.472350562202	1.723726996053
7	630	1331.885533812383	1.20302797712
7	633	1343.169675743488	2.451163737971
7	636	1345.612655199793	0.425214625308
7	641	1352.286864856484	1.500896125829
7	642	1354.413447301826	3.541266451008
7	651	1385.197141393695	2.590119201082
7	654	1404.986024668252	4.069382243178
7	694	1484.783360517029	62.676003913235
7	721	1533.309529585521	107.0800008946
7	722	1536.714801667911	85.243097964769
7	723	1538.073515219505	85.795680934942
7	724	1542.601516175889	79.636342501592
7	725	1546.243815270099	60.727292021502
7	726	1550.319723275588	62.597184821765
7	727	1554.329575795054	66.485480101702
7	728	1558.725728729372	68.80632181018
7	729	1561.887636871445	68.438301273301
7	747	1586.609403835511	82.306175825166
7	748	1586.926182071239	81.187458088905
7	749	1588.573251679036	24.199341702632
7	752	1590.197920698868	18.418108976185
7	753	1590.824334240093	17.445734174653
7	754	1595.040458328128	20.173083584588
7	755	1597.211282095918	16.261180554558
7	756	1603.064529847986	13.652517552849
7	759	1612.576160549276	5.801269007691
7	786	1654.149668955355	22.10204594083
7	790	1662.046380000048	28.243675068026
7	791	1662.68617524053	18.138630625232
7	792	1670.883798554477	25.683977288645
7	793	1676.192087934934	26.154222737248
7	796	1679.09420766298	28.811203404078
7	817	1722.721021059576	36.012846754271
7	818	1722.991908200532	28.763654754109
7	828	1735.72469839857	38.796130408109
7	834	1746.373571989552	26.439120913992
7	835	1747.468727792472	22.871872058592
7	836	1749.169541113844	23.431518181812
7	837	1750.881922672028	18.348120250728
7	838	1751.327423737552	15.60837631253
7	839	1753.36177145118	16.214687884326
7	857	1807.55761468097	50.363558200527
7	858	1809.696499876731	40.763748046391
7	859	1811.67959690914	21.847058273846
7	860	1811.946075165797	11.744150119962
7	861	1812.427148698221	11.029324778852
7	864	1814.23553084096	0.818262942011
7	869	1823.327664513411	2.481712463306
7	872	1824.789371780179	3.680371738106
7	873	1827.062120268296	2.613881470765
7	879	1853.646232368383	1.882856381468
7	882	1860.254674682406	6.491573631141
7	885	1863.35526603284	1.739531668198
7	891	1873.000218487324	0.397397289304
7	894	1880.150754049456	0.794680462572
7	897	1886.870385087792	0.182023404468
7	903	1903.97472985586	1.532710803736
7	906	1907.085194791181	1.223880304455
7	912	1919.553082646083	9.046836623151
7	915	1925.290202980785	3.107507544439
7	918	1931.372427259008	1.213813372748
7	921	1965.217777093738	1.305635770678
7	929	1973.486125512329	0.167148911675
7	930	1974.832686220878	1.471376453314
7	933	1976.342487130503	1.225905009521
7	943	1986.808601329216	9.235634255955
7	944	1987.193258006142	8.116622814846
7	945	1987.752641428657	2.490698137773
7	948	1992.535829457831	3.232374597591
7	951	2016.599324292175	1.244642358631
7	957	2025.532574231417	3.825897433144
7	960	2028.209378007782	2.483563270644
7	963	2033.014932919381	0.995848430791
7	966	2059.12576351891	3.623143252301
7	969	2061.14608872246	0.570585138773
7	975	2089.674096046875	4.964389668733
7	983	2100.748273298016	7.80842874918
7	984	2102.008835110778	2.971745695835
7	987	2108.569157931194	5.978020320175
7	997	2123.44831874315	6.965717694381
7	1000	2126.978206714542	8.812163729538
7	1001	2128.184312471957	8.860248830245
7	1002	2133.170641547779	9.496366902523
7	1005	2138.901529903878	0.860846958495
7	1008	2153.127805678858	2.24216770081
7	1014	2174.335039385863	5.180288544231
7	1023	2187.27930580832	1.244411810443
7	1038	2231.092041296337	9.864961366016
7	1041	2240.307772748515	1.418503145863
7	1044	2254.749648788223	0.266580690386
7	1047	2272.836864619207	1.761454702458
7	1053	2283.439703448397	2.650429268887
7	1058	2285.228315646586	1.364230950593
7	1059	2286.22398927637	1.85423943508
7	1065	2295.15604524409	6.496129466733
7	1068	2298.33703375823	0.756787733542
7	1079	2320.875769193888	11.093959331473
7	1080	2321.497270806804	8.724458051932
7	1081	2321.894063463113	8.372740234858
7	1094	2346.459204875018	27.590652422843
7	1095	2357.402293514037	31.515832561276
7	1096	2357.700295342251	29.793563909248
7	1097	2359.987133060681	23.121232626947
7	1098	2361.564387048681	21.76056254945
7	1109	2375.244663402725	4.096896582717
7	1110	2375.672546825367	4.5205124454
7	1122	2398.889388474183	15.700404214376
7	1125	2406.97407904662	21.883971833376
7	1128	2407.680099528078	21.282425768409
7	1129	2411.384211498958	20.265579288518
7	1132	2418.384944926186	17.793639027803
7	1140	2431.604063182125	13.474054466125
7	1143	2436.753098558714	16.371834007372
7	1147	2443.12814267648	13.094573303133
7	1151	2453.014088249932	14.958716307896
7	1152	2454.034689322793	7.154777432785
7	1155	2458.939104682312	1.247646512717
7	1160	2464.472812846729	3.333858856585
7	1161	2467.068075652255	4.774421071362
7	1164	2473.847099183419	0.289571385974
7	1167	2481.409561259546	6.996242305376
7	1170	2486.29391514126	2.979531865884
7	1173	2493.549980572547	5.651742101245
8	176	367.376450425266	1
8	179	384.176460755635	1
8	182	386.436038687455	1
8	185	391.952056832985	1
8	187	393.866115821959	2
8	191	404.473974224828	1
8	194	410.436848643051	1
8	197	418.962261761174	1
8	202	430.042671051734	2
8	206	441.443807283647	1
8	212	473.00260902335	1
8	215	475.369278079737	1
8	221	493.286867919828	1
8	224	501.939221806893	1
8	227	509.038289566614	1
8	230	518.619025209951	1
8	233	528.562184431506	1
8	236	530.409486620472	1
8	249	548.429687237878	1
8	251	552.852190846318	2
8	253	558.782162656068	3
8	255	559.785125051752	4
8	259	574.152183291069	5
8	264	581.777140733225	3
8	267	591.908523466924	3
8	271	595.245884919689	2
8	275	599.744693744301	1
8	278	614.054973155262	1
8	280	614.201791139699	2
8	284	639.373022439287	1
8	291	647.18155342749	1
8	296	658.412344747376	1
8	299	662.241880940892	1
8	307	679.735089669793	2
8	309	681.301514871387	3
8	327	719.754056870467	2
8	334	727.714540815194	1
8	336	728.563158651515	2
8	338	730.639321852629	3
8	341	738.051917068501	4
8	346	743.143212324701	4
8	348	746.043867205386	5
8	351	748.788738380785	6
8	358	761.173475784625	4
8	360	761.546911015483	5
8	362	762.159761062042	6
8	366	770.565676082391	7
8	374	779.056388390191	8
8	381	804.665387734801	9
8	388	821.141477119636	5
8	390	823.114470007992	6
8	394	829.833902557911	5
8	400	841.976749373265	2
8	404	844.753959809814	1
8	409	857.484073673838	1
8	413	864.090526057359	2
8	415	864.406093474509	3
8	417	864.410050515611	4
8	422	873.152552595688	5
8	424	880.180520660851	6
8	432	892.143133296193	7
8	440	905.901144136857	4
8	449	929.964332537532	1
8	454	933.017075888709	1
8	466	967.038452370635	1
8	468	970.766761584691	2
8	473	988.829171470794	1
8	476	1033.712953239657	1
8	485	1063.897103797653	1
8	488	1067.205057491134	1
8	495	1074.2638470211	1
8	497	1076.070422185143	2
8	499	1078.233322827761	3
8	506	1100.820633055485	1
8	509	1101.542520841805	1
8	512	1111.342333799117	1
8	521	1137.351662066246	1
8	524	1143.757808395093	1
8	527	1148.722540957953	1
8	529	1150.605600291787	2
8	535	1155.850971048164	1
8	543	1171.764212020809	2
8	549	1173.638417992965	3
8	553	1183.043987541314	4
8	555	1184.463600298683	5
8	557	1186.294690857023	6
8	562	1193.42779355161	5
8	564	1193.952229021391	6
8	567	1198.118664749482	6
8	570	1204.241343238922	6
8	574	1210.346320488679	5
8	576	1214.33262395137	6
8	578	1214.830841163516	7
8	582	1219.949086922189	6
8	584	1222.914295801811	7
8	586	1223.293270800351	8
8	599	1248.688204836956	1
8	605	1290.898130123353	1
8	607	1291.823162123162	2
8	611	1294.576402543527	1
8	614	1304.070144681555	1
8	616	1305.840915143514	2
8	620	1319.757161600396	1
8	623	1323.432945874271	1
8	626	1329.748623566149	1
8	628	1330.682505835263	2
8	632	1340.718512005517	1
8	635	1345.187440574485	1
8	638	1350.785968730655	1
8	640	1350.872180850818	2
8	650	1382.607022192613	1
8	653	1400.916642425074	1
8	661	1422.107356603794	1
8	667	1424.971614565931	2
8	671	1426.229528690923	3
8	677	1451.471703703142	4
8	679	1452.277834284563	5
8	685	1462.965173674297	6
8	696	1485.516523248597	6
8	698	1487.722538453823	7
8	700	1487.844095693352	8
8	702	1489.919406919192	9
8	708	1503.613495727106	10
8	710	1504.303228010345	11
8	712	1505.738723982334	12
8	738	1571.779811722683	4
8	740	1573.37860006544	5
8	742	1574.86737474354	6
8	745	1580.95010154136	7
8	751	1589.412012295137	5
8	758	1606.774891541585	1
8	766	1626.911053211865	1
8	769	1632.047623014525	2
8	773	1633.802704932022	3
8	778	1644.547544615298	4
8	780	1645.199821265832	5
8	782	1650.037865197686	6
8	784	1650.283004258902	7
8	795	1677.203818671379	3
8	802	1694.228253446423	3
8	804	1695.752850120378	4
8	806	1696.928567990461	5
8	812	1717.067297815278	6
8	822	1725.738022932032	5
8	824	1732.5338024213	6
8	827	1735.719047425022	7
8	830	1737.147083566854	7
8	847	1768.93275183034	2
8	850	1789.832538635294	3
8	852	1800.201925045835	4
8	854	1801.397823919369	5
8	863	1813.417267898949	1
8	866	1820.845952050105	1
8	868	1821.109000042073	2
8	871	1824.448238797531	2
8	878	1851.763375986915	1
8	881	1853.763101051265	1
8	884	1861.615734364642	1
8	890	1872.60282119802	1
8	893	1879.356073586884	1
8	896	1886.688361683324	1
8	902	1902.442019052124	1
8	905	1905.861314486726	1
8	908	1909.777407995839	1
8	914	1922.182695436346	1
8	917	1930.15861388626	1
8	920	1963.91214132306	1
8	926	1973.318976600654	1
8	928	1973.361309767564	2
8	932	1975.116582120982	1
8	937	1977.572967073261	1
8	939	1979.076635191296	2
8	941	1985.261943290884	3
8	947	1989.30345486024	1
8	950	2015.354681933544	1
8	953	2020.548439221487	1
8	959	2025.725814737138	1
8	962	2032.01908448859	1
8	965	2055.502620266609	1
8	968	2060.575503583687	1
8	974	2084.709706378142	1
8	979	2092.939844548836	1
8	981	2099.037089414943	2
8	986	2102.591137611019	1
8	989	2116.368780264422	1
8	991	2116.482601048769	2
8	995	2119.324063641712	3
8	999	2123.674274645256	3
8	1004	2138.040682945383	1
8	1007	2150.885637978048	1
8	1010	2167.367114672204	1
8	1022	2186.034893997877	1
8	1035	2221.227079930321	1
8	1040	2238.889269602652	1
8	1043	2254.483068097837	1
8	1046	2271.075409916749	1
8	1049	2280.771826103366	1
8	1055	2283.864084695993	1
8	1057	2284.36974984129	2
8	1061	2288.442495856882	1
8	1067	2297.580246024688	1
8	1070	2309.781809862415	1
8	1072	2312.772812754872	2
8	1074	2313.521323228255	3
8	1076	2318.332567453696	4
8	1078	2318.868552452175	5
8	1085	2327.906731433003	3
8	1090	2336.865900433734	4
8	1093	2339.803824499231	5
8	1104	2371.147766820008	1
8	1106	2371.152034379967	2
8	1112	2380.887203781705	1
8	1114	2383.188984259807	2
8	1118	2386.397673759669	3
8	1120	2391.11863221044	4
8	1124	2400.591305898383	4
8	1127	2407.515928351927	4
8	1131	2418.130008716	3
8	1136	2423.878827139453	3
8	1139	2430.033569373347	4
8	1142	2435.545057738834	4
8	1154	2457.691458169595	1
8	1157	2461.138953990144	1
8	1159	2462.293654580893	2
8	1163	2473.557527797445	1
8	1166	2474.41331895417	1
8	1169	2483.314383275376	1
8	1172	2487.898238471302	1
9	199	419.824288542282	1
9	209	445.426883461239	1
9	218	481.155473799364	1
9	239	536.946986058516	1
9	242	541.720738592907	1
9	244	541.736319955185	2
9	247	545.749899725905	2
9	287	642.852204457678	1
9	289	646.904432915695	2
9	301	666.123998518003	1
9	304	673.379073049835	1
9	311	692.296201596188	1
9	316	707.174758416955	1
9	318	707.316586279335	2
9	322	718.627327699064	1
9	324	719.093978241006	2
9	332	725.978438086876	1
9	344	740.857761909457	1
9	356	759.785179545867	1
9	364	769.99705848	2
9	369	773.001749095169	2
9	371	773.957541426202	3
9	376	780.867851638882	3
9	407	853.673845421965	1
9	411	862.799389841877	2
9	420	868.098797839271	2
9	426	880.277491819915	3
9	428	882.177038103687	4
9	443	912.935758198835	1
9	452	932.202672012874	1
9	458	936.657389288969	1
9	461	946.297682443241	1
9	464	960.738265453186	1
9	479	1042.502595974247	1
9	482	1060.452690583967	1
9	491	1073.028472791389	1
9	493	1073.979749661901	2
9	514	1113.293494763991	1
9	518	1132.000155132253	1
9	533	1154.808071207918	1
9	538	1158.547296278815	1
9	541	1170.522199205898	1
9	545	1171.867477851254	2
9	547	1172.13455232041	3
9	594	1231.608305717097	1
9	602	1288.624242739881	1
9	644	1356.036850805122	1
9	646	1372.606487445524	2
9	656	1405.653119015198	1
9	658	1415.389328740932	2
9	663	1422.655085990457	2
9	665	1422.976987813847	3
9	669	1425.03253417898	4
9	673	1430.283059070374	5
9	681	1453.338074498799	4
9	683	1458.853815662555	5
9	688	1470.455632448849	5
9	704	1493.449335598144	1
9	706	1496.052380205525	2
9	715	1514.884379549808	2
9	718	1528.555324124831	2
9	731	1564.373909976404	1
9	733	1565.073784446035	2
9	736	1568.88161662372	2
9	761	1616.890074396541	1
9	764	1626.810805176556	1
9	771	1632.799960695581	1
9	775	1636.823592669957	2
9	788	1658.548708404319	1
9	798	1686.708174305305	1
9	800	1694.179105853179	2
9	809	1705.252233173425	2
9	815	1719.93445107556	1
9	820	1724.59685573388	1
9	832	1740.42133159935	1
9	841	1757.194056480443	1
9	843	1761.281828584842	2
9	845	1761.918109262225	3
9	875	1831.77425238343	1
9	887	1868.713537013691	1
9	899	1898.558444776125	1
9	910	1910.506246022932	1
9	923	1966.608133512492	1
9	935	1976.663636876505	1
9	955	2021.706676798273	1
9	971	2073.959348802285	1
9	977	2092.180436930985	1
9	993	2118.166042985004	1
9	1012	2169.154750841632	1
9	1016	2177.061307273094	1
9	1019	2178.914416394662	1
9	1025	2195.814478513715	1
9	1028	2200.177172437229	1
9	1031	2214.891347264506	1
9	1033	2215.816986545285	2
9	1051	2280.78927417951	1
9	1063	2288.659915777357	1
9	1083	2325.886460952761	1
9	1087	2335.729066720743	2
9	1100	2363.241703758442	1
9	1102	2369.572912620892	2
9	1116	2385.090107213244	1
9	1134	2420.381264551342	1
9	1145	2438.055371942036	1
9	1149	2446.879911890008	1
10	199	419.824288542282	4
10	301	666.123998518003	5
10	304	673.379073049835	6
10	311	692.296201596188	7
10	316	707.174758416955	8
10	322	718.627327699064	9
10	344	740.857761909457	10
10	356	759.785179545867	11
10	443	912.935758198835	12
10	514	1113.293494763991	13
10	538	1158.547296278815	14
10	541	1170.522199205898	15
10	594	1231.608305717097	16
10	704	1493.449335598144	17
10	731	1564.373909976404	18
10	771	1632.799960695581	19
10	788	1658.548708404319	20
10	798	1686.708174305305	21
10	815	1719.93445107556	22
10	820	1724.59685573388	23
10	832	1740.42133159935	24
10	841	1757.194056480443	25
10	910	1910.506246022932	26
10	955	2021.706676798273	27
10	993	2118.166042985004	28
10	1012	2169.154750841632	29
10	1051	2280.78927417951	30
10	1063	2288.659915777357	31
10	1083	2325.886460952761	32
10	1116	2385.090107213244	33
10	1134	2420.381264551342	34
10	1145	2438.055371942036	35
10	1149	2446.879911890008	36
11	1174	2500	0.1056
12	1174	2500	0.0508

