version 2
run Example_GameMode_Easy-2-20221129-09:37:55-10115
attr configname Example_GameMode_Easy
attr datetime 20221129-09:37:55
attr experiment Example_GameMode_Easy
attr inifile omnetpp.ini
attr iterationvars $0=05
attr iterationvarsf 05-
attr measurement $0=05
attr network Network
attr processid 10115
attr repetition 2
attr replication #2
attr resultdir results
attr runnumber 2
attr seedset 2
param **.minion.arrival_distribution 0
param **.minion.service_distribution 0
param *.minion.arrival_mean 2
param *.minion.service_mean 1
param **.boss.arrival_distribution 0
param **.boss.service_distribution 0
param *.boss.arrival_mean 05
param *.boss.service_mean 5
param *.player.recover_rate_x 100

scalar Network.player boss_throughput:mean 0.2
attr source signal_boss_throughput
scalar Network.player boss_throughput:last 0.2
attr source signal_boss_throughput
scalar Network.player boss_defeated_stat:count 201
attr source signal_boss_defeated
scalar Network.player boss_defeated_stat:mean 100
attr source signal_boss_defeated
scalar Network.player boss_waiting_time_stat:mean 95.894806861234
attr source signal_boss_waiting_time
scalar Network.player boss_response_time_stat:mean 100.51617418674
attr source signal_boss_response_time
scalar Network.player minion_throughput:mean 0.017
attr source signal_minion_throughput
scalar Network.player minion_throughput:last 0.017
attr source signal_minion_throughput
scalar Network.player minion_recovered_stat:count 2
attr source signal_minion_recovered
scalar Network.player minion_recovered_stat:mean 0.5
attr source signal_minion_recovered
scalar Network.player minion_defeated_stat:count 18
attr source signal_minion_defeated
scalar Network.player minion_defeated_stat:mean 8.5
attr source signal_minion_defeated
scalar Network.player minion_waiting_time_stat:mean 2.4917404555141
attr source signal_minion_waiting_time
scalar Network.player minion_response_time_stat:mean 2.9681510548476
attr source signal_minion_response_time

