file 93174 1677535008                                           
version 2
run factors_calibration_range_test-29-20230227-22:56:48-19559
attr configname factors_calibration_range_test
attr datetime 20230227-22:56:48
attr experiment factors_calibration_range_test
attr inifile omnetpp.ini
attr iterationvars "$0=30, $1=5, $2=5, $3=100"
attr iterationvarsf 30,5,5,100-
attr measurement "$0=30, $1=5, $2=5, $3=100"
attr network Network
attr processid 19559
attr repetition 0
attr replication #0
attr resultdir results
attr runnumber 29
attr seedset 0
param *.boss.arrival_mean 30
param *.boss.service_mean 5
param *.minion.arrival_mean 5
param *.minion.service_mean 5
param *.player.recover_rate_x 100
param **.minion.arrival_distribution 0
param **.minion.service_distribution 0
param **.boss.arrival_distribution 0
param **.boss.service_distribution 0

vector 0 Network.player minion_jobs_number_stat:vector ETV
attr source signal_minion_jobs_number
vector 1 Network.player minion_jobs_queue_number_stat:vector ETV
attr source signal_minion_jobs_queue_number
vector 2 Network.player minion_defeated_stat:vector ETV
attr source signal_minion_defeated
vector 3 Network.player minion_response_time_stat:vector ETV
attr source signal_minion_response_time
vector 4 Network.player minion_waiting_time_stat:vector ETV
attr source signal_minion_waiting_time
vector 5 Network.player boss_jobs_number_stat:vector ETV
attr source signal_boss_jobs_number
vector 6 Network.player boss_jobs_queue_number_stat:vector ETV
attr source signal_boss_jobs_queue_number
vector 7 Network.player minion_recovered_stat:vector ETV
attr source signal_minion_recovered
vector 8 Network.player boss_waiting_time_stat:vector ETV
attr source signal_boss_waiting_time
vector 9 Network.player boss_defeated_stat:vector ETV
attr source signal_boss_defeated
vector 10 Network.player boss_response_time_stat:vector ETV
attr source signal_boss_response_time
vector 11 Network.player minion_throughput:vector ETV
attr source signal_minion_throughput
vector 12 Network.player boss_throughput:vector ETV
attr source signal_boss_throughput
0	2033 11617 216 1679 350.805704357327 2493.91951573098 430 18 85 23335 1431331
1	13650 21426 216 1679 350.805704357327 2493.91951573098 792 17 84 42376 2570568
2	35076 10118 221 1675 358.441964234772 2487.715540072291 362 47 408 82355 22688893
3	45194 14473 221 1675 358.441964234772 2487.715540072291 362 69.121087948591 364.87619893098 86723.207399021 23964008.340808
4	59667 17437 221 1675 358.441964234772 2487.715540072291 436 65.024925933928 362.08475502899 101144.47486277 27271893.891915
5	77104 2129 236 1681 370.926266647407 2496.998102004671 82 1 2 89 103
6	79233 4235 236 1681 370.926266647407 2496.998102004671 163 0 1 14 14
7	83468 2022 236 1681 370.926266647407 2496.998102004671 75 14 88 3825 230225
8	85490 2220 236 1681 370.926266647407 2496.998102004671 82 0 8.263109116744 19.251161712596 108.32727149628
9	87710 2187 237 1670 372.087458559751 2479.740429500779 81 15 95 4455 289305
10	89897 3237 237 1670 372.087458559751 2479.740429500779 81 0.116944852461 18.647554819068 364.48865013129 2798.2148988506
11	93134 20 1682 1682 2500 2500 1 0.1632 0.1632 0.1632 0.02663424
12	93154 19 1682 1682 2500 2500 1 0.038 0.038 0.038 0.001444

