version 2
run Continuity_test_mean_response_time-164-20221215-22:13:44-14192
attr configname Continuity_test_mean_response_time
attr datetime 20221215-22:13:44
attr experiment Continuity_test_mean_response_time
attr inifile omnetpp.ini
attr iterationvars $0=5.1
attr iterationvarsf 5.1-
attr measurement $0=5.1
attr network Network
attr processid 14192
attr repetition 64
attr replication #64
attr resultdir results
attr runnumber 164
attr seedset 64
param *.minion.arrival_mean 2
param *.minion.service_mean 1
param *.boss.arrival_mean 10
param *.boss.service_mean 5.1
param *.player.recover_rate_x 100
param **.minion.arrival_distribution 0
param **.minion.service_distribution 0
param **.boss.arrival_distribution 0
param **.boss.service_distribution 0

vector 0 Network.player minion_jobs_number_stat:vector ETV
attr source signal_minion_jobs_number
vector 1 Network.player minion_jobs_queue_number_stat:vector ETV
attr source signal_minion_jobs_queue_number
vector 2 Network.player minion_recovered_stat:vector ETV
attr source signal_minion_recovered
vector 3 Network.player minion_defeated_stat:vector ETV
attr source signal_minion_defeated
vector 4 Network.player boss_jobs_number_stat:vector ETV
attr source signal_boss_jobs_number
vector 5 Network.player boss_jobs_queue_number_stat:vector ETV
attr source signal_boss_jobs_queue_number
vector 6 Network.player boss_defeated_stat:vector ETV
attr source signal_boss_defeated
vector 7 Network.player minion_waiting_time_stat:vector ETV
attr source signal_minion_waiting_time
vector 8 Network.player boss_waiting_time_stat:vector ETV
attr source signal_boss_waiting_time
vector 9 Network.player boss_response_time_stat:vector ETV
attr source signal_boss_response_time
vector 10 Network.player minion_response_time_stat:vector ETV
attr source signal_minion_response_time
vector 11 Network.player minion_throughput:vector ETV
attr source signal_minion_throughput
vector 12 Network.player boss_throughput:vector ETV
attr source signal_boss_throughput
0	0	0	0
0	2	0.093730007336	1
0	8	3.690053869861	2
0	10	5.454415676095	3
0	13	6.960522137999	4
0	15	7.414925322132	5
0	17	8.792572448265	6
0	19	8.96858110365	7
0	21	11.283797624111	8
0	23	11.336469507773	9
0	31	18.397463643964	10
0	33	19.428929752766	11
0	37	20.318077903732	12
0	39	21.26999848748	13
0	41	25.278746203299	14
0	43	25.387321063507	15
0	45	27.092367502136	16
0	48	30.365545017639	17
0	50	30.504205810778	18
0	53	31.459132908559	19
0	57	34.387007402414	18
0	59	35.333651500713	19
0	63	37.564426289206	18
0	69	40.340422638121	15
0	72	41.809809804004	15
0	77	43.382070432372	13
0	81	44.249092232914	12
0	86	45.730303864244	10
0	88	46.047083551585	11
0	94	52.217694533876	8
0	97	53.870201182553	8
0	100	54.838898443942	8
0	106	57.883021957915	5
0	108	58.945393770138	6
0	111	60.423942560871	6
0	113	61.482737609516	7
0	115	61.94870607009	8
0	118	62.476769998677	8
0	121	64.118542355116	8
0	127	65.603258211499	7
0	129	66.625328571402	8
0	131	69.448900596147	9
0	133	69.575526136684	10
0	137	74.812427234329	10
0	141	76.040857204479	9
0	146	78.092635927555	9
0	148	79.11052719802	10
0	150	81.160752640561	11
0	152	81.297262360759	12
0	154	82.445746775831	13
0	156	85.303962590564	14
0	163	89.652069097312	15
0	165	89.703305811658	16
0	167	92.122039653662	17
0	169	93.593313443868	18
0	174	97.533460091602	19
0	176	97.764859366859	20
0	178	99.066355822548	21
0	180	99.565574064225	22
0	182	99.777391765856	23
0	184	101.348981318211	24
0	186	101.693995498021	25
0	189	102.449269790107	26
0	191	102.988914227625	27
0	196	106.82220918944	26
0	201	111.853980709352	24
0	203	111.941539632485	25
0	209	118.275476124841	26
0	211	121.329093438724	27
0	213	123.112795051052	28
0	215	123.488346532132	29
0	217	124.540705021295	30
0	221	125.55136895342	31
0	229	130.065337213474	26
0	232	130.586896113129	26
0	235	132.106897369166	26
0	238	133.200775833751	26
0	245	137.396858662274	22
0	248	138.001996954094	22
0	250	138.032059122757	23
0	252	138.70523433032	24
0	256	142.5344704153	25
0	258	146.968349682998	26
0	266	151.110944685245	24
0	272	155.724505627314	24
0	274	158.111906764674	25
0	276	158.639900921292	26
0	278	158.835845283822	27
0	282	160.354631589365	27
0	285	161.798377870762	27
0	287	162.041560761746	28
0	291	165.915337299561	27
0	293	166.01439004179	28
0	298	168.010093986428	26
0	307	170.429421303295	20
0	309	170.683448974717	21
0	316	177.112630528323	17
0	318	177.812063196989	18
0	325	181.467601300379	16
0	327	181.896769277271	17
0	329	183.260776544781	18
0	331	183.576949400383	19
0	334	186.586388042695	20
0	338	187.04863993034	21
0	340	188.83815822941	22
0	344	189.768933284018	23
0	346	189.836878926937	24
0	348	194.441199948453	25
0	350	194.672553289768	26
0	352	195.926553695494	27
0	355	197.418019166797	28
0	357	197.481263854256	29
0	359	198.92672549643	30
0	363	200.065690722077	31
0	365	200.55383295962	32
0	369	203.120339634891	33
0	373	204.152763541051	32
0	376	204.764912044104	32
0	378	205.574125990372	33
0	380	206.291205502858	34
0	382	207.778293369314	35
0	387	209.439502835392	35
0	389	212.647823629221	36
0	393	213.486306001727	36
0	396	214.718624420535	36
0	401	215.41832504498	34
0	408	220.812331372661	30
0	412	222.083518794784	31
0	414	222.908469076026	32
0	420	228.068337735797	33
0	430	231.644313365224	31
0	432	234.433822282355	32
0	437	238.736803105899	33
0	439	239.772980703054	34
0	441	240.446649191305	35
0	452	245.353074556288	28
0	460	249.233604249252	23
0	462	249.285048076729	24
0	468	251.224310579022	21
0	473	252.47082322773	19
0	477	254.335140133662	18
0	480	256.320470072937	18
0	482	256.943898643356	19
0	486	260.138306326154	18
0	489	260.805891605913	18
0	491	262.478354832913	19
0	494	265.386046919264	19
0	497	266.870874866541	19
0	500	269.984980498022	19
0	502	270.250131722978	20
0	504	270.389331068635	21
0	508	271.924501182511	20
0	511	274.401220567894	20
0	518	280.861265649616	16
0	520	281.087582936624	17
0	525	282.408913314959	15
0	531	289.173066677256	14
0	534	291.887497046246	15
0	537	293.284613471372	15
0	539	294.958403659275	16
0	544	302.381867699168	16
0	546	302.410052567947	17
0	549	306.48475979871	18
0	551	307.007550417786	19
0	555	307.57426278917	18
0	561	310.101852094254	15
0	564	310.705293972568	15
0	571	313.248124191808	13
0	573	314.342361472919	14
0	577	317.78966594405	15
0	585	322.201531670033	12
0	595	333.534696685948	5
0	599	335.775531656151	6
0	601	336.244406239843	7
0	603	336.918727461436	8
0	607	339.270931929886	9
0	609	340.200569436855	10
0	611	342.734482075051	11
0	613	344.981636560977	12
0	615	345.679842165139	13
0	617	347.888286085047	14
0	619	348.594290471709	15
0	621	360.283528323081	16
0	625	362.754723781559	17
0	627	364.050370842802	18
0	631	368.542237028885	19
0	633	369.418519284434	20
0	635	370.106975622685	21
0	638	370.399214011834	22
0	641	370.80377335907	22
0	643	371.062033561247	23
0	649	373.367349369931	20
0	653	375.707298051612	21
0	655	376.353245887127	22
0	659	379.008772875839	22
0	666	383.55771646997	18
0	670	385.04673421485	19
0	672	386.208274469045	20
0	675	389.06206538261	21
0	677	389.182508021424	22
0	679	389.56487982925	23
0	684	393.124858123793	21
0	686	394.175594001827	22
0	688	394.351220206073	23
0	690	394.63779634365	24
0	694	398.300341556907	23
0	696	398.666617962834	24
0	699	399.907619759406	24
0	703	400.824657828867	23
0	709	402.83092295861	20
0	711	403.069968139769	21
0	714	404.175733756302	21
0	720	406.302758710361	20
0	727	409.943209582935	21
0	730	413.181171676403	22
0	735	416.604775584354	23
0	737	416.606026248395	24
0	739	417.211147902533	25
0	741	418.31314807141	26
0	746	421.376146240452	27
0	748	423.464682582921	28
0	751	424.848921495089	29
0	753	425.006022909593	30
0	755	425.957123282329	31
0	758	426.706157094823	31
0	760	426.84160842212	32
0	762	427.846145784709	33
0	765	428.725521769982	33
0	767	429.124717656525	34
0	769	429.523394498092	35
0	774	431.228104291127	33
0	776	431.695640564458	34
0	783	440.250030192686	35
0	789	441.585115057742	36
0	792	443.914878721824	37
0	794	445.523908542223	38
0	798	447.614760324281	39
0	801	448.781026317317	39
0	803	448.856364146974	40
0	809	452.270355533475	39
0	815	454.92370698454	40
0	817	457.89334594252	41
0	819	459.27004199716	42
0	821	459.752553011329	43
0	833	466.728771488487	40
0	835	467.369039569221	41
0	837	467.932723495463	42
0	839	469.974090951194	43
0	841	470.875957605001	44
0	845	471.625903803695	43
0	847	471.771712748246	44
0	851	473.259129661339	43
0	858	478.320295471937	39
0	861	478.621993962554	39
0	863	478.862486538506	40
0	866	479.90472899158	40
0	873	484.451217129043	39
0	876	485.146396347454	39
0	882	487.89037827026	38
0	884	490.633897812424	39
0	886	491.754008648305	40
0	888	493.370574381095	41
0	890	493.401546740349	42
0	892	494.492793322437	43
0	896	498.598572931625	44
0	899	505.303888685339	45
0	901	505.337194308829	46
0	903	506.083100088116	47
0	906	509.049099187188	48
0	911	510.911670634943	48
0	914	513.943630552076	49
0	925	520.247027959612	46
0	929	526.170801012455	47
0	933	526.516124630133	48
0	935	527.905884461095	49
0	937	531.315976979286	50
0	939	531.589380566357	51
0	943	533.63373140977	52
0	945	534.08977637148	53
0	948	534.429885689974	54
0	950	537.805555256116	55
0	954	540.497949536182	56
0	956	540.651688911723	57
0	959	541.525216610401	58
0	961	542.30101177794	59
0	969	544.582913540459	60
0	971	544.596948618091	61
0	976	548.100420627481	59
0	989	556.530943493434	51
0	993	560.727080560305	52
0	997	562.267206117284	53
0	1003	572.751372277089	54
0	1005	573.66808242956	55
0	1007	573.773274150656	56
0	1009	573.866302118674	57
0	1011	574.867609349104	58
0	1014	577.102239243136	59
0	1020	579.185833244648	60
0	1023	581.63076917448	61
0	1025	581.735121517496	62
0	1029	583.754166233245	63
0	1033	587.184059616785	64
0	1037	591.447286642588	65
0	1040	592.232749033999	66
0	1045	594.975508321641	67
0	1047	595.35570424097	68
0	1049	596.195403318347	69
0	1051	597.601586811517	70
0	1053	598.781686362332	71
0	1055	599.716189402427	72
0	1065	611.738635907094	73
0	1067	613.48503411788	74
0	1069	613.540184315362	75
0	1071	616.496215147914	76
0	1073	616.858368606927	77
0	1075	617.121561218288	78
0	1077	617.58824839669	79
0	1079	618.308049608219	80
0	1083	621.681068037973	81
0	1087	622.903387748248	82
0	1091	625.739946697433	83
0	1093	627.139260632175	84
0	1095	627.25131718705	85
0	1097	627.573575740217	86
0	1099	631.810208472561	87
0	1103	633.668251672491	88
0	1105	634.40518260885	89
0	1111	636.881256047755	90
0	1113	637.078164135309	91
0	1116	639.295317138975	92
0	1118	639.346937749578	93
0	1120	639.752523702447	94
0	1126	641.833411339149	95
0	1130	647.782805234432	96
0	1132	651.874128909714	97
0	1134	652.619341393437	98
0	1136	652.644361048963	99
0	1138	653.284462653407	100
0	1140	654.442583158345	101
0	1142	655.044607955152	102
0	1144	655.666089284917	103
0	1146	655.951849185555	104
0	1148	656.70703257076	105
0	1150	657.560093965907	106
0	1152	658.233112194086	107
0	1156	665.327756149893	108
0	1158	666.894534147521	109
0	1161	668.296852282473	110
0	1163	668.513384889202	111
0	1165	669.699173376614	112
0	1167	671.612854137676	113
0	1169	672.680084006118	114
0	1175	676.462734785087	115
0	1182	678.613007923746	116
0	1185	679.022164115854	117
0	1187	679.284834691802	118
0	1189	680.455270455979	119
0	1193	681.173009037336	120
0	1196	682.385018332247	121
0	1198	682.386303002728	122
0	1204	684.383508277637	121
0	1206	684.820818941111	122
0	1210	686.476869891373	123
0	1212	689.204817879908	124
0	1217	691.618025108471	125
0	1219	692.671758374793	126
0	1223	694.409794540032	127
0	1230	695.65722466481	123
0	1233	697.246005541448	123
0	1239	700.26321909445	120
0	1241	700.390788554571	121
0	1245	702.063235318992	122
0	1253	704.287701979778	118
0	1258	707.745586029491	116
0	1260	707.759353110534	117
0	1273	713.881432256156	111
0	1275	713.888086300453	112
0	1281	716.587415115849	113
0	1284	717.688139729793	114
0	1287	721.216199786499	114
0	1292	723.415573410512	112
0	1300	726.209524722675	107
0	1302	728.136175620531	108
0	1304	728.760157354409	109
0	1309	730.971878168996	107
0	1311	732.365394278286	108
0	1314	734.121351958277	108
0	1317	735.118460500048	108
0	1322	738.696888080781	106
0	1324	739.076093472893	107
0	1337	751.971763942099	97
0	1339	752.450378582601	98
0	1346	761.698168109253	99
0	1348	763.361254547998	100
0	1350	765.267098437971	101
0	1352	766.388171357188	102
0	1354	767.135625686521	103
0	1356	767.792700469425	104
0	1362	770.732135297107	102
0	1365	771.827463065146	102
0	1367	771.952339769173	103
0	1370	772.230184934286	103
0	1372	773.597369781305	104
0	1374	773.888287498684	105
0	1377	774.689635819537	105
0	1381	775.93998653799	104
0	1383	776.292842730734	105
0	1386	776.803816903349	105
0	1389	778.025820896044	105
0	1393	780.52117047028	106
0	1395	780.61960573223	107
0	1399	782.586129306345	107
0	1404	783.987924810703	107
0	1406	785.885870353822	108
0	1413	793.272342341157	107
0	1415	795.86255167988	108
0	1417	797.687411825141	109
0	1419	798.890871868055	110
0	1421	799.002645650604	111
0	1423	799.675006720264	112
0	1429	806.535666500629	110
0	1441	813.343934564835	101
0	1444	814.331308366131	101
0	1448	817.380910466797	100
0	1450	818.221618514125	101
0	1452	818.318817258686	102
0	1454	818.606303661037	103
0	1458	819.533779588478	102
0	1460	819.835154572599	103
0	1467	824.675033475612	101
0	1469	826.012570817951	102
0	1477	832.805133946757	102
0	1479	835.804122046222	103
0	1483	840.968768517547	104
0	1485	843.636978407897	105
0	1489	843.940256685219	106
0	1492	845.911687812638	107
0	1494	848.380047649667	108
0	1502	851.102175302625	109
0	1504	851.139932719098	110
0	1506	852.052365963426	111
0	1509	856.135112343183	112
0	1511	859.097065165808	113
0	1513	859.305199610878	114
0	1516	862.242126721908	115
0	1518	863.516265368714	116
0	1520	863.841957438478	117
0	1522	865.008240120896	118
0	1524	866.02176140245	119
0	1526	866.732889220843	120
0	1528	868.728582911803	121
0	1532	870.134318115036	122
0	1534	873.789532672073	123
0	1540	875.739923720448	124
0	1545	877.891608484193	125
0	1547	878.30075095376	126
0	1549	879.685959099182	127
0	1551	879.944725383743	128
0	1553	881.303311164643	129
0	1557	885.794467039091	130
0	1559	885.824481053949	131
0	1562	887.105242433702	132
0	1564	888.114920179826	133
0	1568	888.97950119849	133
0	1579	893.790021972472	125
0	1588	897.640366460346	119
0	1597	900.524162339705	113
0	1599	901.091895782736	114
0	1602	901.405066988917	114
0	1610	906.997864858079	109
0	1615	911.701409905288	107
0	1620	914.855098052388	105
0	1623	915.58125126516	105
0	1625	918.436530641706	106
0	1628	921.789044619139	106
0	1630	922.092622808006	107
0	1636	927.404896259672	106
0	1638	927.627792914023	107
0	1640	928.107977514891	108
0	1642	930.038231534429	109
0	1644	930.425781221192	110
0	1646	933.078760610117	111
0	1648	935.977704978172	112
0	1653	936.944424748906	113
0	1659	938.700275910096	111
0	1666	940.321323335132	107
0	1670	942.421518926713	106
0	1674	944.390194089565	105
0	1676	945.121543444536	106
0	1683	948.176155221671	102
0	1689	951.242168166948	101
0	1691	951.691687652684	102
0	1693	952.584512040248	103
0	1698	954.87984785486	104
0	1700	957.49695545108	105
0	1702	957.674735303823	106
0	1704	959.0027722155	107
0	1706	960.604688066071	108
0	1708	961.334250266518	109
0	1720	966.909446117737	101
0	1722	967.545062090938	102
0	1724	967.740015888457	103
0	1728	968.111497996259	102
0	1731	969.151230959584	102
0	1734	970.013653768759	102
0	1740	971.9795505971	99
0	1742	972.471292907115	100
0	1744	972.590786107413	101
0	1747	975.241554392135	101
0	1752	979.022218306911	99
0	1759	982.218849803049	95
0	1763	983.374102937532	94
0	1766	985.155778727653	94
0	1769	985.526164676098	94
0	1772	986.081208352518	94
0	1776	986.410042746335	93
0	1790	996.001598115496	82
0	1795	997.948179864393	82
0	1797	998.971691487845	83
0	1799	1000.786313850727	84
0	1803	1001.989323103903	85
0	1807	1003.166372014518	86
0	1809	1003.435051488733	87
0	1814	1007.290818601625	88
0	1816	1007.408793382678	89
0	1818	1008.4438932925	90
0	1820	1012.054864210471	91
0	1822	1013.259052289377	92
0	1827	1017.644683804632	93
0	1829	1018.482777638802	94
0	1832	1020.852345483708	95
0	1835	1022.190072141933	96
0	1841	1024.358534272761	94
0	1843	1025.070403296237	95
0	1848	1027.997977223182	93
0	1855	1029.861463601064	89
0	1857	1032.199223486626	90
0	1862	1033.789085555127	88
0	1866	1035.417222460122	87
0	1868	1036.188742200419	88
0	1877	1040.273953457506	88
0	1880	1041.441962430781	88
0	1882	1041.759018260379	89
0	1884	1041.955699834254	90
0	1888	1042.927439542374	91
0	1891	1043.966440689051	92
0	1894	1044.692552518953	92
0	1897	1045.451297943141	92
0	1901	1046.777900447748	91
0	1903	1047.508843184776	92
0	1905	1049.829603799884	93
0	1907	1050.923578007921	94
0	1912	1051.962648466671	92
0	1914	1052.343454459085	93
0	1919	1053.278898258628	93
0	1921	1053.767348280061	94
0	1923	1055.095180304542	95
0	1927	1058.905464644584	96
0	1931	1060.696869583249	97
0	1933	1061.074277699446	98
0	1935	1061.213287707762	99
0	1940	1068.416980830404	100
0	1944	1070.979613950813	101
0	1947	1073.985200083736	102
0	1949	1077.45264450901	103
0	1951	1078.225472326436	104
0	1955	1079.755038771867	105
0	1961	1085.916346337012	105
0	1963	1086.98888116194	106
0	1965	1087.095173736049	107
0	1967	1087.741591358266	108
0	1969	1087.801517817061	109
0	1971	1087.894710045579	110
0	1973	1088.32364294192	111
0	1975	1088.781859856338	112
0	1982	1092.058319309271	109
0	1986	1093.291844668281	108
0	1988	1093.542732835012	109
0	2000	1099.049554725104	108
0	2002	1099.374636031646	109
0	2004	1099.701438799314	110
0	2006	1103.308958535579	111
0	2008	1104.878827312207	112
0	2014	1110.740120033772	113
0	2019	1114.294246266936	114
0	2021	1115.796442022263	115
0	2023	1116.35861444091	116
0	2025	1117.402973032266	117
0	2027	1118.646326885408	118
0	2029	1121.685754181306	119
0	2031	1124.807768260543	120
0	2040	1128.036567540255	121
0	2042	1131.370492491901	122
0	2046	1133.237223234188	123
0	2049	1133.798838393133	124
0	2052	1135.994123597339	125
0	2054	1136.132721695121	126
0	2056	1136.297360025248	127
0	2058	1136.94790324792	128
0	2060	1139.279716183197	129
0	2062	1141.690953198638	130
0	2068	1143.562140273524	131
0	2074	1147.422960723421	131
0	2076	1151.122373072177	132
0	2078	1153.649712494745	133
0	2083	1156.999241800679	131
0	2085	1157.048501226204	132
0	2088	1158.84087694089	132
0	2090	1159.035003811765	133
0	2093	1160.687031743776	133
0	2097	1162.662178794973	134
0	2101	1167.846404363826	134
0	2106	1170.84385279063	134
0	2110	1171.915961251058	135
0	2113	1179.409410197958	136
0	2115	1179.668954426357	137
0	2117	1180.247745172808	138
0	2119	1180.356792075034	139
0	2121	1182.886234409765	140
0	2125	1186.349384047791	141
0	2127	1188.532520046659	142
0	2135	1191.405943787163	143
0	2137	1192.918420735738	144
0	2139	1193.507334471129	145
0	2141	1193.853772534586	146
0	2143	1194.712897753503	147
0	2149	1200.020637999144	148
0	2156	1206.310284173091	149
0	2160	1206.85648781115	150
0	2163	1208.965980434088	151
0	2165	1213.953983363784	152
0	2167	1214.377913948305	153
0	2169	1215.130299509636	154
0	2173	1220.463740098204	155
0	2177	1223.571892531324	156
0	2179	1225.000887990535	157
0	2181	1226.547316479025	158
0	2185	1230.562937687005	159
0	2187	1233.698034683983	160
0	2190	1235.168410674671	161
0	2195	1237.418755118756	162
0	2197	1242.118426395696	163
0	2199	1243.969065591394	164
0	2201	1245.067492176344	165
0	2203	1245.069560398237	166
0	2205	1245.331955571154	167
0	2207	1248.003408384609	168
0	2212	1250.459584113046	169
0	2214	1251.151706058392	170
0	2216	1256.270483318239	171
0	2219	1257.747225620641	172
0	2223	1263.567321602283	173
0	2225	1265.474147413141	174
0	2227	1265.660635027359	175
0	2230	1267.571903263503	176
0	2232	1269.820727631255	177
0	2234	1270.991524393275	178
0	2237	1273.466199932935	179
0	2239	1276.821322858605	180
0	2241	1278.501956398679	181
0	2243	1278.620391102436	182
0	2245	1279.070379464905	183
0	2254	1289.672998832779	184
0	2256	1292.003251238958	185
0	2258	1292.539043581341	186
0	2260	1292.690327567634	187
0	2262	1292.786996631543	188
0	2266	1296.804483381722	189
0	2268	1297.064768235665	190
0	2270	1298.001568774151	191
0	2272	1301.259256165306	192
0	2276	1304.319034025066	193
0	2278	1305.270585994356	194
0	2281	1311.506119635644	195
0	2283	1313.886316877735	196
0	2285	1315.325434902517	197
0	2287	1320.577696377143	198
0	2289	1321.298077769915	199
0	2291	1322.28173786429	200
0	2293	1323.294336820521	201
0	2295	1323.985525105898	202
0	2297	1324.381551466427	203
0	2299	1326.52966285978	204
0	2301	1327.921783637111	205
0	2303	1328.111221506014	206
0	2305	1328.659369450757	207
0	2307	1334.321811623417	208
0	2312	1337.084328898776	209
0	2314	1337.202084105342	210
0	2316	1337.438533997149	211
0	2318	1337.932688921973	212
0	2321	1338.576769120677	213
0	2323	1340.922199723903	214
0	2327	1346.204752309339	215
0	2329	1348.262615271871	216
0	2340	1355.816591043525	217
0	2344	1358.736595248081	218
0	2346	1359.22377108219	219
0	2348	1360.256204737364	220
0	2350	1360.950101530753	221
0	2352	1361.889963797261	222
0	2355	1363.044184831427	223
0	2357	1365.002991177629	224
0	2359	1365.683519909946	225
0	2362	1367.028507282038	226
0	2364	1367.895590351638	227
0	2366	1368.772959745345	228
0	2368	1368.818922204711	229
0	2370	1369.476503921655	230
0	2372	1369.48454137695	231
0	2379	1372.284317941816	230
0	2381	1375.380042038017	231
0	2383	1375.755608968898	232
0	2385	1377.81573588218	233
0	2387	1377.897423759386	234
0	2392	1384.590608830015	235
0	2394	1384.894732652884	236
0	2403	1391.438669525343	231
0	2406	1392.477232536897	231
0	2415	1396.266931354095	225
0	2426	1404.277610821303	217
0	2430	1405.448558796598	216
0	2434	1406.391161538175	215
0	2443	1411.507080930342	214
0	2450	1412.887791259181	214
0	2452	1413.536366736132	215
0	2458	1419.595745994007	212
0	2463	1421.180924971154	210
0	2468	1422.901858001644	208
0	2474	1427.089651014993	205
0	2479	1428.540300024121	203
0	2481	1429.283976173376	204
0	2484	1430.24871726271	204
0	2490	1430.93451689736	201
0	2495	1433.877032242874	202
0	2497	1433.943848886095	203
0	2501	1436.567116587674	202
0	2503	1436.635079294354	203
0	2505	1437.062041228554	204
0	2508	1437.528411129356	204
0	2519	1443.706364287463	201
0	2521	1444.368797799509	202
0	2531	1448.209363198143	198
0	2533	1448.244710448571	199
0	2540	1451.75811367709	196
0	2543	1452.388772961082	196
0	2548	1455.121326113566	196
0	2553	1457.070972797797	197
0	2555	1459.708210743942	198
0	2557	1460.669523047059	199
0	2559	1461.197805062469	200
0	2563	1464.504259778011	201
0	2565	1465.838911268219	202
0	2567	1467.180973229796	203
0	2569	1467.843210896644	204
0	2571	1468.444526551906	205
0	2573	1468.644846805592	206
0	2575	1472.256552534023	207
0	2578	1472.779531731542	208
0	2580	1477.237401207832	209
0	2588	1481.028052618109	205
0	2592	1483.630521855602	206
0	2594	1485.924400187212	207
0	2598	1487.551121562164	208
0	2600	1487.662521446171	209
0	2602	1491.299210366354	210
0	2606	1499.291947938151	211
0	2608	1499.480715948604	212
0	2610	1500.129265395296	213
0	2612	1500.271864736526	214
0	2616	1501.494954852492	215
0	2620	1504.142493238988	216
0	2622	1504.151815406448	217
0	2624	1505.535786998625	218
0	2626	1506.439816864816	219
0	2629	1506.939176036551	220
0	2634	1507.677415933459	221
0	2637	1509.965924490662	222
0	2639	1512.095098914928	223
0	2641	1514.177359612998	224
0	2645	1525.220227570575	225
0	2650	1531.388785234768	226
0	2652	1531.723989529033	227
0	2654	1532.229227376998	228
0	2658	1533.8278247519	229
0	2660	1534.426407023342	230
0	2662	1537.823060050856	231
0	2664	1539.518230098272	232
0	2666	1540.325953333851	233
0	2668	1541.002620451965	234
0	2675	1544.229110384372	235
0	2677	1544.92014546062	236
0	2682	1549.622465116566	237
0	2685	1550.704158713458	238
0	2687	1551.667003174852	239
0	2689	1553.257982727339	240
0	2691	1553.793327207092	241
0	2698	1561.681804086343	239
0	2700	1561.733533331746	240
0	2710	1568.57161701341	238
0	2713	1570.009947563133	239
0	2716	1572.854239752938	239
0	2718	1573.649183323764	240
0	2720	1574.431261396651	241
0	2727	1577.710915756787	237
0	2729	1578.773390100591	238
0	2734	1582.313280128326	236
0	2737	1583.683502142117	236
0	2748	1589.280635824814	231
0	2750	1589.871581286805	232
0	2752	1591.258443499094	233
0	2754	1591.596810850643	234
0	2757	1593.233636181989	234
0	2761	1594.513658465552	235
0	2763	1595.041959390945	236
0	2765	1595.791459182857	237
0	2769	1600.116583707991	238
0	2773	1602.974450695767	239
0	2777	1604.323189749351	240
0	2779	1605.047730806283	241
0	2781	1605.726230746941	242
0	2783	1608.177733901947	243
0	2785	1608.87034729343	244
0	2789	1612.698425469124	245
0	2791	1613.084001794235	246
0	2793	1614.138374516635	247
0	2795	1615.29226998838	248
0	2799	1619.259723079875	249
0	2801	1624.038952120602	250
0	2803	1625.262419856363	251
0	2805	1625.509040028787	252
0	2807	1627.801455000112	253
0	2812	1634.908312965786	254
0	2819	1639.876311855252	255
0	2821	1642.795367965712	256
0	2823	1642.909517859363	257
0	2825	1642.921485008267	258
0	2827	1643.261149963729	259
0	2829	1643.773080989564	260
0	2831	1644.037396590843	261
0	2833	1644.859463842305	262
0	2835	1649.71846810721	263
0	2840	1654.689899513306	264
0	2842	1657.323401004088	265
0	2845	1659.947469405991	266
0	2847	1660.15272288458	267
0	2849	1661.888119911532	268
0	2851	1662.25959748714	269
0	2853	1662.605082414387	270
0	2855	1662.666010954452	271
0	2857	1662.998425650332	272
0	2859	1663.369180467026	273
0	2861	1663.950213906112	274
0	2863	1666.633273367076	275
0	2865	1666.937215598251	276
0	2867	1667.238379356476	277
0	2872	1670.126235372682	278
0	2876	1673.623153838882	277
0	2884	1678.21097691282	272
0	2888	1680.538105211064	271
0	2891	1680.664321990175	271
0	2893	1681.431623024352	272
0	2900	1688.742829732614	270
0	2905	1690.683765791047	271
0	2907	1692.103598171633	272
0	2910	1695.638390251327	273
0	2915	1697.110498300881	271
0	2917	1697.773790918531	272
0	2919	1698.027729870462	273
0	2921	1698.512051988826	274
0	2928	1701.839467788935	274
0	2931	1703.470581023862	275
0	2935	1707.134959135358	276
0	2939	1708.607574693388	277
0	2947	1714.908418675817	275
0	2950	1718.394836761124	275
0	2955	1722.331663654634	275
0	2957	1724.823103325121	276
0	2959	1724.974656245367	277
0	2963	1726.334234742406	277
0	2968	1729.892186140122	275
0	2970	1730.258247704898	276
0	2975	1732.870395138962	277
0	2979	1734.031911119241	276
0	2982	1735.855952126035	276
0	2987	1738.091480855627	274
0	2989	1742.368000648756	275
0	2991	1742.848055303512	276
0	2994	1744.272925626992	276
0	2999	1747.28558331745	276
0	3006	1749.267355538305	273
0	3008	1749.597198826231	274
0	3010	1749.681868547595	275
0	3012	1750.908210915938	276
0	3015	1752.211494088413	276
0	3019	1752.49132204758	277
0	3021	1753.253253253307	278
0	3027	1757.164202151589	279
0	3029	1758.079834133397	280
0	3035	1758.81433876295	281
0	3037	1759.010156618739	282
0	3044	1763.790753672111	283
0	3046	1766.906964894696	284
0	3051	1769.391621854519	285
0	3053	1769.844295371169	286
0	3059	1772.487109632976	287
0	3061	1773.47630475179	288
0	3064	1775.452713739067	289
0	3066	1775.562538433771	290
0	3069	1778.715744467897	291
0	3073	1783.501570747039	292
0	3075	1786.056707722274	293
0	3077	1786.473184091709	294
0	3081	1790.147432780227	295
0	3083	1790.694563816011	296
0	3085	1791.099732247285	297
0	3090	1792.134887327398	298
0	3095	1793.138808316225	299
0	3097	1793.706384623056	300
0	3099	1794.699251978216	301
0	3104	1797.492226775651	301
0	3107	1799.264184793281	301
0	3113	1801.211933987832	302
0	3115	1803.830738019707	303
0	3117	1805.144644830766	304
0	3122	1809.412290818117	305
0	3124	1809.568473980885	306
0	3126	1813.178915610291	307
0	3128	1813.815486706927	308
0	3132	1814.961595645	309
0	3136	1818.991720688807	310
0	3138	1820.326583712243	311
0	3140	1820.84759665359	312
0	3144	1821.690469256168	313
0	3148	1825.396097772897	314
0	3150	1826.347873895431	315
0	3152	1827.171942841205	316
0	3155	1828.093671004104	317
0	3157	1828.191938570753	318
0	3160	1832.906983001447	319
0	3163	1833.521858055647	320
0	3167	1836.415555897538	319
0	3176	1841.435035348144	317
0	3179	1842.930203077463	318
0	3181	1842.982784943037	319
0	3183	1844.581466089062	320
0	3185	1844.690787073858	321
0	3187	1844.960988258404	322
0	3189	1845.357121910897	323
0	3191	1847.300068913177	324
0	3193	1847.533117738	325
0	3195	1850.894757026462	326
0	3197	1852.628577834155	327
0	3204	1855.288552351596	324
0	3207	1856.345456827978	324
0	3209	1856.357722729812	325
0	3215	1863.779875505331	326
0	3219	1869.21228351161	327
0	3223	1870.864286458369	326
0	3228	1875.759175965938	326
0	3236	1878.048183173917	322
0	3245	1883.922616880222	318
0	3247	1884.448215800587	319
0	3249	1885.478037624657	320
0	3251	1888.607116619877	321
0	3253	1888.910535693304	322
0	3255	1890.308319742085	323
0	3257	1896.7540797329	324
0	3262	1898.569837526842	325
0	3266	1900.619761466724	326
0	3268	1904.379934304688	327
0	3270	1906.528311965311	328
0	3272	1907.249328480687	329
0	3274	1907.898482330513	330
0	3277	1913.535509173363	331
0	3279	1913.640215579891	332
0	3281	1914.026202932005	333
0	3283	1914.543258791606	334
0	3285	1915.636988860724	335
0	3287	1919.852253525812	336
0	3289	1922.679855732797	337
0	3291	1922.723268772908	338
0	3295	1926.614559238218	338
0	3303	1929.302024611997	337
0	3307	1933.19820071542	338
0	3310	1933.882844175189	338
0	3315	1936.068788956611	336
0	3317	1936.559572191099	337
0	3319	1936.777654652339	338
0	3321	1936.847852367237	339
0	3325	1937.556245728702	338
0	3329	1939.912393383882	337
0	3333	1942.441872017753	336
0	3336	1944.027368364803	336
0	3338	1946.561558938537	337
0	3340	1947.78313311165	338
0	3355	1962.782183871051	329
0	3357	1962.93865951795	330
0	3363	1965.428766890081	327
0	3372	1968.616112161031	327
0	3374	1969.126781059702	328
0	3377	1971.464470787397	328
0	3379	1971.827803503154	329
0	3381	1973.358734146982	330
0	3385	1974.835374523103	329
0	3389	1976.260543154113	328
0	3391	1978.728122418346	329
0	3394	1978.96740782563	329
0	3397	1979.852780503767	329
0	3403	1984.253390160438	326
0	3406	1987.446741143497	326
0	3411	1989.575705100372	324
0	3416	1990.274018848898	322
0	3420	1990.415322402451	323
0	3422	1991.637691564015	324
0	3424	1992.102861266277	325
0	3426	1992.612674522819	326
0	3428	1992.912489672605	327
0	3431	1994.710721003655	328
0	3434	1996.40653323009	328
0	3439	1998.397732114264	328
0	3441	1998.511218284829	329
0	3443	1998.721292596183	330
0	3445	1999.164652391893	331
0	3447	1999.862034430747	332
1	0	0	0
1	2	0.093730007336	0
1	8	3.690053869861	1
1	10	5.454415676095	2
1	13	6.960522137999	3
1	15	7.414925322132	4
1	17	8.792572448265	5
1	19	8.96858110365	6
1	21	11.283797624111	7
1	23	11.336469507773	8
1	31	18.397463643964	9
1	33	19.428929752766	10
1	37	20.318077903732	11
1	39	21.26999848748	12
1	41	25.278746203299	13
1	43	25.387321063507	14
1	45	27.092367502136	15
1	48	30.365545017639	16
1	50	30.504205810778	17
1	53	31.459132908559	18
1	54	33.86897485022	18
1	55	33.989939060065	17
1	57	34.387007402414	17
1	59	35.333651500713	18
1	60	35.633224165991	18
1	61	36.939106741948	17
1	63	37.564426289206	17
1	64	37.937246272355	17
1	65	38.685220798646	16
1	66	40.041151199591	15
1	67	40.28668353309	14
1	69	40.340422638121	14
1	70	41.709768334229	14
1	72	41.809809804004	14
1	73	42.519076859211	14
1	74	42.670569691041	13
1	75	43.17593682476	12
1	77	43.382070432372	12
1	78	43.567951466967	12
1	79	44.114138088458	11
1	81	44.249092232914	11
1	82	44.40078282611	11
1	83	44.771178805565	10
1	84	45.481667277964	9
1	86	45.730303864244	9
1	88	46.047083551585	10
1	89	46.630497510435	10
1	90	47.297129938327	9
1	91	48.944908002337	8
1	92	49.068027059084	7
1	94	52.217694533876	7
1	95	53.693443466552	7
1	97	53.870201182553	7
1	98	53.996650323445	7
1	100	54.838898443942	7
1	101	54.930673877709	7
1	102	54.98417513367	6
1	103	55.576176016459	5
1	104	57.716564813148	4
1	106	57.883021957915	4
1	108	58.945393770138	5
1	109	59.732679322916	5
1	111	60.423942560871	5
1	113	61.482737609516	6
1	115	61.94870607009	7
1	116	62.406741151353	7
1	118	62.476769998677	7
1	119	63.538081357607	7
1	121	64.118542355116	7
1	122	64.25270051964	7
1	123	65.366913193502	6
1	127	65.603258211499	6
1	129	66.625328571402	7
1	131	69.448900596147	8
1	133	69.575526136684	9
1	135	73.076309357409	9
1	137	74.812427234329	9
1	138	75.198372215289	9
1	139	75.783335897882	8
1	141	76.040857204479	8
1	142	77.753097753866	8
1	146	78.092635927555	8
1	148	79.11052719802	9
1	150	81.160752640561	10
1	152	81.297262360759	11
1	154	82.445746775831	12
1	156	85.303962590564	13
1	163	89.652069097312	14
1	165	89.703305811658	15
1	167	92.122039653662	16
1	169	93.593313443868	17
1	174	97.533460091602	18
1	176	97.764859366859	19
1	178	99.066355822548	20
1	180	99.565574064225	21
1	182	99.777391765856	22
1	184	101.348981318211	23
1	186	101.693995498021	24
1	189	102.449269790107	25
1	191	102.988914227625	26
1	193	105.11681904444	26
1	194	105.25847427472	25
1	196	106.82220918944	25
1	197	108.615903354547	25
1	198	109.290263981783	24
1	199	110.537240574494	23
1	201	111.853980709352	23
1	203	111.941539632485	24
1	209	118.275476124841	25
1	211	121.329093438724	26
1	213	123.112795051052	27
1	215	123.488346532132	28
1	217	124.540705021295	29
1	221	125.55136895342	30
1	222	126.116788900212	30
1	223	126.808984056524	29
1	224	127.758626649646	28
1	225	128.393185652363	27
1	226	128.950696556037	26
1	227	129.55285360537	25
1	229	130.065337213474	25
1	230	130.58343017274	25
1	232	130.586896113129	25
1	233	131.233439277421	25
1	235	132.106897369166	25
1	236	132.117476030519	25
1	238	133.200775833751	25
1	239	133.603973679524	25
1	240	133.799042030216	24
1	241	134.58135774224	23
1	242	135.493284904269	22
1	243	136.961832791502	21
1	245	137.396858662274	21
1	246	137.981887886809	21
1	248	138.001996954094	21
1	250	138.032059122757	22
1	252	138.70523433032	23
1	256	142.5344704153	24
1	258	146.968349682998	25
1	260	148.087014606723	25
1	261	148.403807308977	24
1	262	148.657928339858	23
1	266	151.110944685245	23
1	268	154.686574499412	23
1	272	155.724505627314	23
1	274	158.111906764674	24
1	276	158.639900921292	25
1	278	158.835845283822	26
1	280	160.082915495291	26
1	282	160.354631589365	26
1	283	160.493729939631	26
1	285	161.798377870762	26
1	287	162.041560761746	27
1	288	163.427709747804	27
1	289	165.085208483721	26
1	291	165.915337299561	26
1	293	166.01439004179	27
1	294	166.27074990741	27
1	295	166.988033019771	26
1	296	168.004025627623	25
1	298	168.010093986428	25
1	299	168.324746909578	25
1	300	168.637235572779	24
1	301	169.398031923779	23
1	302	169.474994740548	22
1	303	169.632687355624	21
1	304	169.75830813828	20
1	305	169.855363606181	19
1	307	170.429421303295	19
1	309	170.683448974717	20
1	310	171.805339719437	20
1	311	171.842707628349	19
1	312	173.411173075973	18
1	313	174.890940970507	17
1	314	175.974900903742	16
1	316	177.112630528323	16
1	318	177.812063196989	17
1	319	178.486026748586	17
1	320	179.196710246976	16
1	321	179.828431229843	15
1	325	181.467601300379	15
1	327	181.896769277271	16
1	329	183.260776544781	17
1	331	183.576949400383	18
1	334	186.586388042695	19
1	338	187.04863993034	20
1	340	188.83815822941	21
1	344	189.768933284018	22
1	346	189.836878926937	23
1	348	194.441199948453	24
1	350	194.672553289768	25
1	352	195.926553695494	26
1	355	197.418019166797	27
1	357	197.481263854256	28
1	359	198.92672549643	29
1	363	200.065690722077	30
1	365	200.55383295962	31
1	369	203.120339634891	32
1	370	203.360884053066	32
1	371	203.768840236384	31
1	373	204.152763541051	31
1	374	204.432003847524	31
1	376	204.764912044104	31
1	378	205.574125990372	32
1	380	206.291205502858	33
1	382	207.778293369314	34
1	383	208.575561273443	34
1	387	209.439502835392	34
1	389	212.647823629221	35
1	391	212.999197907569	35
1	393	213.486306001727	35
1	394	213.907953737632	35
1	396	214.718624420535	35
1	397	214.91577656557	35
1	398	215.154988897665	34
1	399	215.355392710814	33
1	401	215.41832504498	33
1	402	216.071796662893	33
1	403	217.272989876735	32
1	404	218.417672353571	31
1	405	220.209288069583	30
1	406	220.609808029742	29
1	408	220.812331372661	29
1	412	222.083518794784	30
1	414	222.908469076026	31
1	420	228.068337735797	32
1	421	228.136196544044	32
1	422	229.073966873992	31
1	423	229.298885854701	30
1	430	231.644313365224	30
1	432	234.433822282355	31
1	437	238.736803105899	32
1	439	239.772980703054	33
1	441	240.446649191305	34
1	443	241.953916135135	34
1	444	241.989189409048	33
1	445	242.307022046341	32
1	446	243.211934345363	31
1	447	243.497661230555	30
1	448	243.726808634638	29
1	449	244.111984770837	28
1	450	244.422272027583	27
1	452	245.353074556288	27
1	453	245.612547279992	27
1	454	245.779525562083	26
1	455	246.867949685391	25
1	456	247.95066141611	24
1	457	248.182753562984	23
1	458	249.099105743896	22
1	460	249.233604249252	22
1	462	249.285048076729	23
1	463	249.356289229992	23
1	464	250.577927889943	22
1	465	251.055174883266	21
1	466	251.207489274632	20
1	468	251.224310579022	20
1	469	251.401032973426	20
1	470	251.873240636477	19
1	471	252.279602702569	18
1	473	252.47082322773	18
1	474	253.071829267465	18
1	475	253.17777370123	17
1	477	254.335140133662	17
1	478	255.237256863568	17
1	480	256.320470072937	17
1	482	256.943898643356	18
1	483	259.032589065774	18
1	484	259.06736154358	17
1	486	260.138306326154	17
1	487	260.189899913797	17
1	489	260.805891605913	17
1	491	262.478354832913	18
1	492	263.987713975206	18
1	494	265.386046919264	18
1	495	265.933652799231	18
1	497	266.870874866541	18
1	498	269.872585857829	18
1	500	269.984980498022	18
1	502	270.250131722978	19
1	504	270.389331068635	20
1	505	271.384064699538	20
1	506	271.615541255914	19
1	508	271.924501182511	19
1	509	272.069464388405	19
1	511	274.401220567894	19
1	512	274.424571926046	19
1	513	274.684638876828	18
1	514	276.214095274005	17
1	515	277.446634423557	16
1	516	278.687826818214	15
1	518	280.861265649616	15
1	520	281.087582936624	16
1	521	281.697013003238	16
1	522	281.70655554988	15
1	523	281.74618336168	14
1	525	282.408913314959	14
1	526	283.506432899934	14
1	527	283.767867408325	13
1	531	289.173066677256	13
1	534	291.887497046246	14
1	535	292.895977859336	14
1	537	293.284613471372	14
1	539	294.958403659275	15
1	540	295.375376696714	15
1	544	302.381867699168	15
1	546	302.410052567947	16
1	549	306.48475979871	17
1	551	307.007550417786	18
1	552	307.133128814646	18
1	553	307.513054445822	17
1	555	307.57426278917	17
1	556	307.644988679264	17
1	557	307.89751180921	16
1	558	307.954957336996	15
1	559	307.984977468077	14
1	561	310.101852094254	14
1	562	310.318808403872	14
1	564	310.705293972568	14
1	565	310.868555170844	14
1	566	311.126310818915	13
1	567	311.460150100133	12
1	571	313.248124191808	12
1	573	314.342361472919	13
1	577	317.78966594405	14
1	580	320.351407257635	14
1	581	320.953784903227	13
1	582	321.204270926361	12
1	583	322.140290988269	11
1	585	322.201531670033	11
1	586	322.761074068102	11
1	587	323.420841027154	10
1	588	326.387638044861	9
1	589	327.969124788136	8
1	590	328.176401147431	7
1	591	329.535459541482	6
1	592	329.752422345251	5
1	593	333.290264379111	4
1	595	333.534696685948	4
1	599	335.775531656151	5
1	601	336.244406239843	6
1	603	336.918727461436	7
1	607	339.270931929886	8
1	609	340.200569436855	9
1	611	342.734482075051	10
1	613	344.981636560977	11
1	615	345.679842165139	12
1	617	347.888286085047	13
1	619	348.594290471709	14
1	621	360.283528323081	15
1	625	362.754723781559	16
1	627	364.050370842802	17
1	631	368.542237028885	18
1	633	369.418519284434	19
1	635	370.106975622685	20
1	638	370.399214011834	21
1	639	370.607170554816	21
1	641	370.80377335907	21
1	643	371.062033561247	22
1	644	371.200875303876	22
1	645	372.572002627064	21
1	646	373.059709508195	20
1	647	373.114191903423	19
1	649	373.367349369931	19
1	653	375.707298051612	20
1	655	376.353245887127	21
1	657	378.830765098236	21
1	659	379.008772875839	21
1	660	379.566428647255	21
1	661	379.633213854601	20
1	662	380.068458233633	19
1	663	381.909529884321	18
1	664	382.107785946806	17
1	666	383.55771646997	17
1	670	385.04673421485	18
1	672	386.208274469045	19
1	675	389.06206538261	20
1	677	389.182508021424	21
1	679	389.56487982925	22
1	680	389.891250052998	22
1	681	390.428913262037	21
1	682	390.638948366331	20
1	684	393.124858123793	20
1	686	394.175594001827	21
1	688	394.351220206073	22
1	690	394.63779634365	23
1	691	395.422166496379	23
1	692	398.288641063557	22
1	694	398.300341556907	22
1	696	398.666617962834	23
1	697	399.337575937967	23
1	699	399.907619759406	23
1	700	400.65067383961	23
1	701	400.810588211058	22
1	703	400.824657828867	22
1	704	400.935007738906	22
1	705	401.00739672951	21
1	706	401.421275733514	20
1	707	401.943887162791	19
1	709	402.83092295861	19
1	711	403.069968139769	20
1	712	403.772074905761	20
1	714	404.175733756302	20
1	715	405.627912446001	20
1	716	405.883085774153	19
1	720	406.302758710361	19
1	727	409.943209582935	20
1	730	413.181171676403	21
1	735	416.604775584354	22
1	737	416.606026248395	23
1	739	417.211147902533	24
1	741	418.31314807141	25
1	746	421.376146240452	26
1	748	423.464682582921	27
1	751	424.848921495089	28
1	753	425.006022909593	29
1	755	425.957123282329	30
1	756	426.543211685706	30
1	758	426.706157094823	30
1	760	426.84160842212	31
1	762	427.846145784709	32
1	763	428.677242237579	32
1	765	428.725521769982	32
1	767	429.124717656525	33
1	769	429.523394498092	34
1	770	429.840085633022	34
1	771	429.986564360782	33
1	772	430.396889001095	32
1	774	431.228104291127	32
1	776	431.695640564458	33
1	783	440.250030192686	34
1	789	441.585115057742	35
1	792	443.914878721824	36
1	794	445.523908542223	37
1	798	447.614760324281	38
1	799	448.756501362369	38
1	801	448.781026317317	38
1	803	448.856364146974	39
1	804	450.375293463163	39
1	805	450.646214021816	38
1	809	452.270355533475	38
1	815	454.92370698454	39
1	817	457.89334594252	40
1	819	459.27004199716	41
1	821	459.752553011329	42
1	828	464.565471985448	42
1	829	465.004559704046	41
1	830	466.237374514523	40
1	831	466.546338428211	39
1	833	466.728771488487	39
1	835	467.369039569221	40
1	837	467.932723495463	41
1	839	469.974090951194	42
1	841	470.875957605001	43
1	842	471.310447573606	43
1	843	471.445229513817	42
1	845	471.625903803695	42
1	847	471.771712748246	43
1	848	472.737593368256	43
1	849	472.934273554022	42
1	851	473.259129661339	42
1	852	474.439699359276	42
1	853	474.870259965228	41
1	854	476.803507221961	40
1	855	477.838715955638	39
1	856	478.13220562935	38
1	858	478.320295471937	38
1	859	478.435633612775	38
1	861	478.621993962554	38
1	863	478.862486538506	39
1	864	479.446832560165	39
1	866	479.90472899158	39
1	870	482.483088339143	39
1	871	482.646974198101	38
1	873	484.451217129043	38
1	874	484.85233987078	38
1	876	485.146396347454	38
1	877	485.317070703796	38
1	878	486.673841335017	37
1	882	487.89037827026	37
1	884	490.633897812424	38
1	886	491.754008648305	39
1	888	493.370574381095	40
1	890	493.401546740349	41
1	892	494.492793322437	42
1	896	498.598572931625	43
1	899	505.303888685339	44
1	901	505.337194308829	45
1	903	506.083100088116	46
1	906	509.049099187188	47
1	907	509.11391439136	47
1	911	510.911670634943	47
1	914	513.943630552076	48
1	915	513.956208839603	48
1	916	514.231714054503	47
1	917	514.818258995987	46
1	918	515.678914404604	45
1	925	520.247027959612	45
1	929	526.170801012455	46
1	933	526.516124630133	47
1	935	527.905884461095	48
1	937	531.315976979286	49
1	939	531.589380566357	50
1	943	533.63373140977	51
1	945	534.08977637148	52
1	948	534.429885689974	53
1	950	537.805555256116	54
1	954	540.497949536182	55
1	956	540.651688911723	56
1	959	541.525216610401	57
1	961	542.30101177794	58
1	969	544.582913540459	59
1	971	544.596948618091	60
1	972	545.177244898024	60
1	973	546.137092392189	59
1	974	546.708761479243	58
1	976	548.100420627481	58
1	977	548.385743276119	58
1	978	548.568919632968	57
1	979	549.173702365054	56
1	980	550.1091084517	55
1	981	551.678789853741	54
1	982	551.900260070802	53
1	983	553.617848667297	52
1	984	554.271714198029	51
1	985	554.527333480689	50
1	989	556.530943493434	50
1	993	560.727080560305	51
1	997	562.267206117284	52
1	1003	572.751372277089	53
1	1005	573.66808242956	54
1	1007	573.773274150656	55
1	1009	573.866302118674	56
1	1011	574.867609349104	57
1	1014	577.102239243136	58
1	1020	579.185833244648	59
1	1023	581.63076917448	60
1	1025	581.735121517496	61
1	1029	583.754166233245	62
1	1033	587.184059616785	63
1	1037	591.447286642588	64
1	1040	592.232749033999	65
1	1045	594.975508321641	66
1	1047	595.35570424097	67
1	1049	596.195403318347	68
1	1051	597.601586811517	69
1	1053	598.781686362332	70
1	1055	599.716189402427	71
1	1065	611.738635907094	72
1	1067	613.48503411788	73
1	1069	613.540184315362	74
1	1071	616.496215147914	75
1	1073	616.858368606927	76
1	1075	617.121561218288	77
1	1077	617.58824839669	78
1	1079	618.308049608219	79
1	1083	621.681068037973	80
1	1087	622.903387748248	81
1	1091	625.739946697433	82
1	1093	627.139260632175	83
1	1095	627.25131718705	84
1	1097	627.573575740217	85
1	1099	631.810208472561	86
1	1103	633.668251672491	87
1	1105	634.40518260885	88
1	1111	636.881256047755	89
1	1113	637.078164135309	90
1	1116	639.295317138975	91
1	1118	639.346937749578	92
1	1120	639.752523702447	93
1	1126	641.833411339149	94
1	1130	647.782805234432	95
1	1132	651.874128909714	96
1	1134	652.619341393437	97
1	1136	652.644361048963	98
1	1138	653.284462653407	99
1	1140	654.442583158345	100
1	1142	655.044607955152	101
1	1144	655.666089284917	102
1	1146	655.951849185555	103
1	1148	656.70703257076	104
1	1150	657.560093965907	105
1	1152	658.233112194086	106
1	1156	665.327756149893	107
1	1158	666.894534147521	108
1	1161	668.296852282473	109
1	1163	668.513384889202	110
1	1165	669.699173376614	111
1	1167	671.612854137676	112
1	1169	672.680084006118	113
1	1175	676.462734785087	114
1	1182	678.613007923746	115
1	1185	679.022164115854	116
1	1187	679.284834691802	117
1	1189	680.455270455979	118
1	1193	681.173009037336	119
1	1196	682.385018332247	120
1	1198	682.386303002728	121
1	1199	682.637904739926	121
1	1200	683.519370881444	120
1	1204	684.383508277637	120
1	1206	684.820818941111	121
1	1210	686.476869891373	122
1	1212	689.204817879908	123
1	1217	691.618025108471	124
1	1219	692.671758374793	125
1	1223	694.409794540032	126
1	1224	694.575679996231	126
1	1225	694.683147970541	125
1	1226	694.911508610703	124
1	1227	695.253870766778	123
1	1228	695.579845144663	122
1	1230	695.65722466481	122
1	1231	697.227288736093	122
1	1233	697.246005541448	122
1	1234	698.039484540515	122
1	1235	698.463417246192	121
1	1236	699.279223655973	120
1	1237	700.002026227518	119
1	1239	700.26321909445	119
1	1241	700.390788554571	120
1	1245	702.063235318992	121
1	1247	702.569507992041	121
1	1248	702.831608652856	120
1	1249	703.021772834095	119
1	1250	703.250088633322	118
1	1251	704.062747173948	117
1	1253	704.287701979778	117
1	1254	705.189699749534	117
1	1255	705.679903122139	116
1	1256	707.412891848667	115
1	1258	707.745586029491	115
1	1260	707.759353110534	116
1	1261	707.909609975403	116
1	1262	708.407755290624	115
1	1263	708.518767866909	114
1	1264	709.976374791162	113
1	1265	712.597081032954	112
1	1266	712.836784492805	111
1	1267	713.13186003487	110
1	1273	713.881432256156	110
1	1275	713.888086300453	111
1	1281	716.587415115849	112
1	1284	717.688139729793	113
1	1285	719.247507839091	113
1	1287	721.216199786499	113
1	1288	721.586867639054	113
1	1289	721.931671725978	112
1	1290	722.12712593766	111
1	1292	723.415573410512	111
1	1293	723.862169238234	111
1	1294	724.331575501179	110
1	1295	724.673303027266	109
1	1296	725.258724076413	108
1	1297	725.884748407572	107
1	1298	726.202198915789	106
1	1300	726.209524722675	106
1	1302	728.136175620531	107
1	1304	728.760157354409	108
1	1305	728.83543941932	108
1	1306	729.49571248402	107
1	1307	730.633301908159	106
1	1309	730.971878168996	106
1	1311	732.365394278286	107
1	1312	732.707966860887	107
1	1314	734.121351958277	107
1	1315	734.269699289011	107
1	1317	735.118460500048	107
1	1318	736.007047014568	107
1	1319	737.509465187847	106
1	1320	737.685787063016	105
1	1322	738.696888080781	105
1	1324	739.076093472893	106
1	1325	739.63553343787	106
1	1326	741.50879372035	105
1	1327	741.551491077712	104
1	1328	742.575947667445	103
1	1329	744.301856593595	102
1	1330	747.22155085185	101
1	1331	748.621902512502	100
1	1332	749.029280862965	99
1	1333	749.349027087548	98
1	1334	750.301049563551	97
1	1335	750.598727526176	96
1	1337	751.971763942099	96
1	1339	752.450378582601	97
1	1346	761.698168109253	98
1	1348	763.361254547998	99
1	1350	765.267098437971	100
1	1352	766.388171357188	101
1	1354	767.135625686521	102
1	1356	767.792700469425	103
1	1358	769.184410133626	103
1	1359	769.647859123368	102
1	1360	770.192854290544	101
1	1362	770.732135297107	101
1	1363	771.675977666931	101
1	1365	771.827463065146	101
1	1367	771.952339769173	102
1	1368	772.014110238318	102
1	1370	772.230184934286	102
1	1372	773.597369781305	103
1	1374	773.888287498684	104
1	1375	774.523878388536	104
1	1377	774.689635819537	104
1	1378	775.3449926315	104
1	1379	775.85824341366	103
1	1381	775.93998653799	103
1	1383	776.292842730734	104
1	1384	776.329570694252	104
1	1386	776.803816903349	104
1	1387	777.085308673746	104
1	1389	778.025820896044	104
1	1393	780.52117047028	105
1	1395	780.61960573223	106
1	1397	782.525160402056	106
1	1399	782.586129306345	106
1	1400	782.611352529859	106
1	1404	783.987924810703	106
1	1406	785.885870353822	107
1	1408	787.110787332061	107
1	1409	791.057973021092	106
1	1413	793.272342341157	106
1	1415	795.86255167988	107
1	1417	797.687411825141	108
1	1419	798.890871868055	109
1	1421	799.002645650604	110
1	1423	799.675006720264	111
1	1425	805.629470397093	111
1	1426	806.493254285876	110
1	1427	806.504833907874	109
1	1429	806.535666500629	109
1	1430	806.615773685565	109
1	1431	807.097393195027	108
1	1432	807.174137118831	107
1	1433	807.271478589079	106
1	1434	808.376892202764	105
1	1435	809.083242808074	104
1	1436	809.455174121172	103
1	1437	810.650386392621	102
1	1438	811.183017261047	101
1	1439	812.167777476816	100
1	1441	813.343934564835	100
1	1442	813.788896554259	100
1	1444	814.331308366131	100
1	1445	816.302211143798	100
1	1446	816.923976123988	99
1	1448	817.380910466797	99
1	1450	818.221618514125	100
1	1452	818.318817258686	101
1	1454	818.606303661037	102
1	1455	818.720138462713	102
1	1456	819.479160177176	101
1	1458	819.533779588478	101
1	1460	819.835154572599	102
1	1461	819.894085700147	102
1	1462	820.206875800989	101
1	1463	823.644459604117	100
1	1467	824.675033475612	100
1	1469	826.012570817951	101
1	1471	826.331418774777	101
1	1477	832.805133946757	101
1	1479	835.804122046222	102
1	1483	840.968768517547	103
1	1485	843.636978407897	104
1	1489	843.940256685219	105
1	1492	845.911687812638	106
1	1494	848.380047649667	107
1	1502	851.102175302625	108
1	1504	851.139932719098	109
1	1506	852.052365963426	110
1	1509	856.135112343183	111
1	1511	859.097065165808	112
1	1513	859.305199610878	113
1	1516	862.242126721908	114
1	1518	863.516265368714	115
1	1520	863.841957438478	116
1	1522	865.008240120896	117
1	1524	866.02176140245	118
1	1526	866.732889220843	119
1	1528	868.728582911803	120
1	1532	870.134318115036	121
1	1534	873.789532672073	122
1	1540	875.739923720448	123
1	1545	877.891608484193	124
1	1547	878.30075095376	125
1	1549	879.685959099182	126
1	1551	879.944725383743	127
1	1553	881.303311164643	128
1	1557	885.794467039091	129
1	1559	885.824481053949	130
1	1562	887.105242433702	131
1	1564	888.114920179826	132
1	1566	888.757857537263	132
1	1568	888.97950119849	132
1	1569	889.126178183675	132
1	1570	889.202308163656	131
1	1571	889.319846622646	130
1	1572	890.117712288687	129
1	1573	890.300254742059	128
1	1574	890.607954850189	127
1	1575	892.090339556389	126
1	1576	892.562874006851	125
1	1577	893.482095940683	124
1	1579	893.790021972472	124
1	1580	894.255850877461	124
1	1581	894.33668162142	123
1	1582	894.395801866709	122
1	1583	894.560339631606	121
1	1584	895.718803326042	120
1	1585	896.569163606438	119
1	1586	897.639038115306	118
1	1588	897.640366460346	118
1	1589	897.706420797085	118
1	1590	898.671095196238	117
1	1591	898.781156221092	116
1	1592	899.172094294543	115
1	1593	899.738752517249	114
1	1594	899.932821195557	113
1	1595	899.951715931371	112
1	1597	900.524162339705	112
1	1599	901.091895782736	113
1	1600	901.404335637698	113
1	1602	901.405066988917	113
1	1603	902.142764929592	113
1	1604	902.318008162911	112
1	1605	903.585411513134	111
1	1606	904.852776243371	110
1	1607	904.975967974776	109
1	1608	904.980113958505	108
1	1610	906.997864858079	108
1	1611	910.094775211522	108
1	1612	910.098041899276	107
1	1613	910.40592889666	106
1	1615	911.701409905288	106
1	1616	911.917667105175	106
1	1617	911.980303437769	105
1	1618	912.476424901666	104
1	1620	914.855098052388	104
1	1621	915.537101866208	104
1	1623	915.58125126516	104
1	1625	918.436530641706	105
1	1626	919.29368443606	105
1	1628	921.789044619139	105
1	1630	922.092622808006	106
1	1631	922.715117703976	106
1	1632	925.299017812509	105
1	1636	927.404896259672	105
1	1638	927.627792914023	106
1	1640	928.107977514891	107
1	1642	930.038231534429	108
1	1644	930.425781221192	109
1	1646	933.078760610117	110
1	1648	935.977704978172	111
1	1653	936.944424748906	112
1	1655	937.996672434316	112
1	1656	938.313894137337	111
1	1657	938.644770934524	110
1	1659	938.700275910096	110
1	1660	939.012860617782	110
1	1661	939.027951349233	109
1	1662	939.217295026497	108
1	1663	939.268020931257	107
1	1664	939.425469550144	106
1	1666	940.321323335132	106
1	1667	940.796321599931	106
1	1668	941.516425695161	105
1	1670	942.421518926713	105
1	1671	942.594698607279	105
1	1672	942.62712590298	104
1	1674	944.390194089565	104
1	1676	945.121543444536	105
1	1677	945.317077363039	105
1	1678	946.016683734783	104
1	1679	946.7640085273	103
1	1680	947.179786616971	102
1	1681	948.027922133189	101
1	1683	948.176155221671	101
1	1684	948.599643979676	101
1	1685	949.788036916186	100
1	1689	951.242168166948	100
1	1691	951.691687652684	101
1	1693	952.584512040248	102
1	1698	954.87984785486	103
1	1700	957.49695545108	104
1	1702	957.674735303823	105
1	1704	959.0027722155	106
1	1706	960.604688066071	107
1	1708	961.334250266518	108
1	1710	961.976852640534	108
1	1711	962.549416203333	107
1	1712	962.649348867026	106
1	1713	963.655748292943	105
1	1714	965.345318120891	104
1	1715	965.502015560832	103
1	1716	966.328956846724	102
1	1717	966.36317733526	101
1	1718	966.893937688463	100
1	1720	966.909446117737	100
1	1722	967.545062090938	101
1	1724	967.740015888457	102
1	1725	967.78096905787	102
1	1726	968.058733911061	101
1	1728	968.111497996259	101
1	1729	968.327021181958	101
1	1731	969.151230959584	101
1	1732	969.809859768738	101
1	1734	970.013653768759	101
1	1735	971.113146844252	101
1	1736	971.166346126508	100
1	1737	971.178239774655	99
1	1738	971.499418288954	98
1	1740	971.9795505971	98
1	1742	972.471292907115	99
1	1744	972.590786107413	100
1	1745	974.860367108264	100
1	1747	975.241554392135	100
1	1748	975.738491166029	100
1	1749	975.897425266032	99
1	1750	978.968988756218	98
1	1752	979.022218306911	98
1	1753	979.966036772607	98
1	1754	980.027095875239	97
1	1755	980.797805279773	96
1	1756	981.481856660435	95
1	1757	982.019139899536	94
1	1759	982.218849803049	94
1	1760	982.230130887783	94
1	1761	982.379538879923	93
1	1763	983.374102937532	93
1	1764	983.429447195122	93
1	1766	985.155778727653	93
1	1767	985.489374414098	93
1	1769	985.526164676098	93
1	1770	985.735995922798	93
1	1772	986.081208352518	93
1	1773	986.253761408547	93
1	1774	986.395899598775	92
1	1776	986.410042746335	92
1	1777	986.602199580855	92
1	1778	987.537136185133	91
1	1779	988.203705459518	90
1	1780	989.25848039049	89
1	1781	989.31806114476	88
1	1782	990.893277443945	87
1	1783	991.045244149651	86
1	1784	992.50477949709	85
1	1785	994.617006368282	84
1	1786	994.634287472823	83
1	1787	995.350070884995	82
1	1788	995.710708105022	81
1	1790	996.001598115496	81
1	1791	996.021304571255	81
1	1795	997.948179864393	81
1	1797	998.971691487845	82
1	1799	1000.786313850727	83
1	1803	1001.989323103903	84
1	1807	1003.166372014518	85
1	1809	1003.435051488733	86
1	1814	1007.290818601625	87
1	1816	1007.408793382678	88
1	1818	1008.4438932925	89
1	1820	1012.054864210471	90
1	1822	1013.259052289377	91
1	1827	1017.644683804632	92
1	1829	1018.482777638802	93
1	1832	1020.852345483708	94
1	1835	1022.190072141933	95
1	1837	1022.784785186698	95
1	1838	1023.648550967315	94
1	1839	1023.996993570165	93
1	1841	1024.358534272761	93
1	1843	1025.070403296237	94
1	1844	1026.973156462756	94
1	1845	1027.536540577024	93
1	1846	1027.728890610697	92
1	1848	1027.997977223182	92
1	1849	1028.380524711119	92
1	1850	1029.012145304508	91
1	1851	1029.020208028332	90
1	1852	1029.441705703194	89
1	1853	1029.738111520761	88
1	1855	1029.861463601064	88
1	1857	1032.199223486626	89
1	1858	1032.578086090587	89
1	1859	1033.072338588857	88
1	1860	1033.444345419573	87
1	1862	1033.789085555127	87
1	1863	1034.405317981174	87
1	1864	1034.568626275767	86
1	1866	1035.417222460122	86
1	1868	1036.188742200419	87
1	1875	1039.837964899232	87
1	1877	1040.273953457506	87
1	1878	1040.457961210584	87
1	1880	1041.441962430781	87
1	1882	1041.759018260379	88
1	1884	1041.955699834254	89
1	1888	1042.927439542374	90
1	1891	1043.966440689051	91
1	1892	1044.183485377986	91
1	1894	1044.692552518953	91
1	1895	1044.737766002192	91
1	1897	1045.451297943141	91
1	1898	1045.844524838851	91
1	1899	1046.660728369683	90
1	1901	1046.777900447748	90
1	1903	1047.508843184776	91
1	1905	1049.829603799884	92
1	1907	1050.923578007921	93
1	1908	1051.421042133021	93
1	1909	1051.436026390026	92
1	1910	1051.722686108089	91
1	1912	1051.962648466671	91
1	1914	1052.343454459085	92
1	1915	1052.743027676909	92
1	1919	1053.278898258628	92
1	1921	1053.767348280061	93
1	1923	1055.095180304542	94
1	1927	1058.905464644584	95
1	1931	1060.696869583249	96
1	1933	1061.074277699446	97
1	1935	1061.213287707762	98
1	1940	1068.416980830404	99
1	1944	1070.979613950813	100
1	1947	1073.985200083736	101
1	1949	1077.45264450901	102
1	1951	1078.225472326436	103
1	1955	1079.755038771867	104
1	1957	1082.557802276489	104
1	1961	1085.916346337012	104
1	1963	1086.98888116194	105
1	1965	1087.095173736049	106
1	1967	1087.741591358266	107
1	1969	1087.801517817061	108
1	1971	1087.894710045579	109
1	1973	1088.32364294192	110
1	1975	1088.781859856338	111
1	1977	1089.456641965541	111
1	1978	1089.900001565463	110
1	1979	1091.035637374161	109
1	1980	1091.509432386645	108
1	1982	1092.058319309271	108
1	1983	1092.258241628042	108
1	1984	1092.864347428419	107
1	1986	1093.291844668281	107
1	1988	1093.542732835012	108
1	1992	1094.618135097355	108
1	1993	1094.740967491132	107
1	2000	1099.049554725104	107
1	2002	1099.374636031646	108
1	2004	1099.701438799314	109
1	2006	1103.308958535579	110
1	2008	1104.878827312207	111
1	2014	1110.740120033772	112
1	2019	1114.294246266936	113
1	2021	1115.796442022263	114
1	2023	1116.35861444091	115
1	2025	1117.402973032266	116
1	2027	1118.646326885408	117
1	2029	1121.685754181306	118
1	2031	1124.807768260543	119
1	2040	1128.036567540255	120
1	2042	1131.370492491901	121
1	2046	1133.237223234188	122
1	2049	1133.798838393133	123
1	2052	1135.994123597339	124
1	2054	1136.132721695121	125
1	2056	1136.297360025248	126
1	2058	1136.94790324792	127
1	2060	1139.279716183197	128
1	2062	1141.690953198638	129
1	2068	1143.562140273524	130
1	2069	1143.584511584667	130
1	2074	1147.422960723421	130
1	2076	1151.122373072177	131
1	2078	1153.649712494745	132
1	2079	1155.682211780645	132
1	2080	1155.98279829995	131
1	2081	1156.400249071228	130
1	2083	1156.999241800679	130
1	2085	1157.048501226204	131
1	2086	1158.027730392194	131
1	2088	1158.84087694089	131
1	2090	1159.035003811765	132
1	2091	1159.236647028642	132
1	2093	1160.687031743776	132
1	2097	1162.662178794973	133
1	2099	1165.510072952808	133
1	2101	1167.846404363826	133
1	2102	1168.574183084467	133
1	2106	1170.84385279063	133
1	2110	1171.915961251058	134
1	2113	1179.409410197958	135
1	2115	1179.668954426357	136
1	2117	1180.247745172808	137
1	2119	1180.356792075034	138
1	2121	1182.886234409765	139
1	2125	1186.349384047791	140
1	2127	1188.532520046659	141
1	2135	1191.405943787163	142
1	2137	1192.918420735738	143
1	2139	1193.507334471129	144
1	2141	1193.853772534586	145
1	2143	1194.712897753503	146
1	2149	1200.020637999144	147
1	2156	1206.310284173091	148
1	2160	1206.85648781115	149
1	2163	1208.965980434088	150
1	2165	1213.953983363784	151
1	2167	1214.377913948305	152
1	2169	1215.130299509636	153
1	2173	1220.463740098204	154
1	2177	1223.571892531324	155
1	2179	1225.000887990535	156
1	2181	1226.547316479025	157
1	2185	1230.562937687005	158
1	2187	1233.698034683983	159
1	2190	1235.168410674671	160
1	2195	1237.418755118756	161
1	2197	1242.118426395696	162
1	2199	1243.969065591394	163
1	2201	1245.067492176344	164
1	2203	1245.069560398237	165
1	2205	1245.331955571154	166
1	2207	1248.003408384609	167
1	2212	1250.459584113046	168
1	2214	1251.151706058392	169
1	2216	1256.270483318239	170
1	2219	1257.747225620641	171
1	2223	1263.567321602283	172
1	2225	1265.474147413141	173
1	2227	1265.660635027359	174
1	2230	1267.571903263503	175
1	2232	1269.820727631255	176
1	2234	1270.991524393275	177
1	2237	1273.466199932935	178
1	2239	1276.821322858605	179
1	2241	1278.501956398679	180
1	2243	1278.620391102436	181
1	2245	1279.070379464905	182
1	2254	1289.672998832779	183
1	2256	1292.003251238958	184
1	2258	1292.539043581341	185
1	2260	1292.690327567634	186
1	2262	1292.786996631543	187
1	2266	1296.804483381722	188
1	2268	1297.064768235665	189
1	2270	1298.001568774151	190
1	2272	1301.259256165306	191
1	2276	1304.319034025066	192
1	2278	1305.270585994356	193
1	2281	1311.506119635644	194
1	2283	1313.886316877735	195
1	2285	1315.325434902517	196
1	2287	1320.577696377143	197
1	2289	1321.298077769915	198
1	2291	1322.28173786429	199
1	2293	1323.294336820521	200
1	2295	1323.985525105898	201
1	2297	1324.381551466427	202
1	2299	1326.52966285978	203
1	2301	1327.921783637111	204
1	2303	1328.111221506014	205
1	2305	1328.659369450757	206
1	2307	1334.321811623417	207
1	2312	1337.084328898776	208
1	2314	1337.202084105342	209
1	2316	1337.438533997149	210
1	2318	1337.932688921973	211
1	2321	1338.576769120677	212
1	2323	1340.922199723903	213
1	2327	1346.204752309339	214
1	2329	1348.262615271871	215
1	2340	1355.816591043525	216
1	2344	1358.736595248081	217
1	2346	1359.22377108219	218
1	2348	1360.256204737364	219
1	2350	1360.950101530753	220
1	2352	1361.889963797261	221
1	2355	1363.044184831427	222
1	2357	1365.002991177629	223
1	2359	1365.683519909946	224
1	2362	1367.028507282038	225
1	2364	1367.895590351638	226
1	2366	1368.772959745345	227
1	2368	1368.818922204711	228
1	2370	1369.476503921655	229
1	2372	1369.48454137695	230
1	2374	1370.277673840363	230
1	2375	1370.43204599479	229
1	2379	1372.284317941816	229
1	2381	1375.380042038017	230
1	2383	1375.755608968898	231
1	2385	1377.81573588218	232
1	2387	1377.897423759386	233
1	2392	1384.590608830015	234
1	2394	1384.894732652884	235
1	2396	1387.297840215868	235
1	2397	1388.157524711392	234
1	2398	1388.209810858775	233
1	2399	1388.241411914546	232
1	2400	1390.207385751485	231
1	2401	1391.281991034723	230
1	2403	1391.438669525343	230
1	2404	1392.360741373045	230
1	2406	1392.477232536897	230
1	2407	1393.33591896396	230
1	2408	1393.646984137151	229
1	2409	1393.690124065532	228
1	2410	1393.907012486637	227
1	2411	1394.337409470296	226
1	2412	1395.206826960672	225
1	2413	1395.701403358402	224
1	2415	1396.266931354095	224
1	2416	1396.317274485263	224
1	2417	1396.887575707404	223
1	2418	1399.189076943405	222
1	2419	1399.306237925115	221
1	2420	1399.922561620358	220
1	2421	1400.002959620058	219
1	2422	1401.372703688108	218
1	2423	1402.099696523154	217
1	2424	1404.26185833974	216
1	2426	1404.277610821303	216
1	2427	1405.027929826548	216
1	2428	1405.276471178265	215
1	2430	1405.448558796598	215
1	2431	1405.940084303143	215
1	2432	1406.019373986928	214
1	2434	1406.391161538175	214
1	2435	1407.570003150825	214
1	2439	1408.60752129702	213
1	2443	1411.507080930342	213
1	2448	1412.855597106853	213
1	2450	1412.887791259181	213
1	2452	1413.536366736132	214
1	2453	1413.905848479303	214
1	2454	1415.783579008368	213
1	2455	1416.835902693353	212
1	2456	1416.96371598249	211
1	2458	1419.595745994007	211
1	2459	1420.857457545485	211
1	2460	1420.884930702416	210
1	2461	1420.919232781274	209
1	2463	1421.180924971154	209
1	2464	1421.210953176952	209
1	2465	1422.189180552158	208
1	2466	1422.603412848438	207
1	2468	1422.901858001644	207
1	2469	1423.560560762991	207
1	2470	1425.653030053252	206
1	2471	1426.077454384256	205
1	2472	1427.065406753936	204
1	2474	1427.089651014993	204
1	2475	1427.370306492123	204
1	2476	1428.194144542321	203
1	2477	1428.238667249276	202
1	2479	1428.540300024121	202
1	2481	1429.283976173376	203
1	2482	1430.171739076417	203
1	2484	1430.24871726271	203
1	2485	1430.472204195802	203
1	2486	1430.591635869575	202
1	2487	1430.7875228316	201
1	2488	1430.931489209299	200
1	2490	1430.93451689736	200
1	2495	1433.877032242874	201
1	2497	1433.943848886095	202
1	2498	1434.266893200314	202
1	2499	1434.445339801586	201
1	2501	1436.567116587674	201
1	2503	1436.635079294354	202
1	2505	1437.062041228554	203
1	2506	1437.436931467288	203
1	2508	1437.528411129356	203
1	2509	1437.528447640845	203
1	2510	1438.694773223414	202
1	2511	1439.756815997611	201
1	2515	1441.084438192906	200
1	2519	1443.706364287463	200
1	2521	1444.368797799509	201
1	2523	1445.546859706308	201
1	2524	1445.943301859945	200
1	2525	1445.96482042567	199
1	2526	1446.823210689138	198
1	2527	1446.824915385942	197
1	2531	1448.209363198143	197
1	2533	1448.244710448571	198
1	2535	1448.765533260114	198
1	2536	1449.75591263917	197
1	2537	1449.798616732403	196
1	2538	1451.734926076407	195
1	2540	1451.75811367709	195
1	2541	1451.781432270246	195
1	2543	1452.388772961082	195
1	2544	1453.572952961509	195
1	2548	1455.121326113566	195
1	2553	1457.070972797797	196
1	2555	1459.708210743942	197
1	2557	1460.669523047059	198
1	2559	1461.197805062469	199
1	2563	1464.504259778011	200
1	2565	1465.838911268219	201
1	2567	1467.180973229796	202
1	2569	1467.843210896644	203
1	2571	1468.444526551906	204
1	2573	1468.644846805592	205
1	2575	1472.256552534023	206
1	2578	1472.779531731542	207
1	2580	1477.237401207832	208
1	2582	1477.847135934166	208
1	2583	1478.370990483574	207
1	2584	1478.696967949965	206
1	2585	1480.425878447056	205
1	2586	1480.489036749391	204
1	2588	1481.028052618109	204
1	2592	1483.630521855602	205
1	2594	1485.924400187212	206
1	2598	1487.551121562164	207
1	2600	1487.662521446171	208
1	2602	1491.299210366354	209
1	2606	1499.291947938151	210
1	2608	1499.480715948604	211
1	2610	1500.129265395296	212
1	2612	1500.271864736526	213
1	2616	1501.494954852492	214
1	2620	1504.142493238988	215
1	2622	1504.151815406448	216
1	2624	1505.535786998625	217
1	2626	1506.439816864816	218
1	2629	1506.939176036551	219
1	2634	1507.677415933459	220
1	2637	1509.965924490662	221
1	2639	1512.095098914928	222
1	2641	1514.177359612998	223
1	2645	1525.220227570575	224
1	2650	1531.388785234768	225
1	2652	1531.723989529033	226
1	2654	1532.229227376998	227
1	2658	1533.8278247519	228
1	2660	1534.426407023342	229
1	2662	1537.823060050856	230
1	2664	1539.518230098272	231
1	2666	1540.325953333851	232
1	2668	1541.002620451965	233
1	2675	1544.229110384372	234
1	2677	1544.92014546062	235
1	2682	1549.622465116566	236
1	2685	1550.704158713458	237
1	2687	1551.667003174852	238
1	2689	1553.257982727339	239
1	2691	1553.793327207092	240
1	2694	1559.690780603276	240
1	2695	1560.458441634506	239
1	2696	1561.664982083953	238
1	2698	1561.681804086343	238
1	2700	1561.733533331746	239
1	2701	1562.359639968584	239
1	2702	1562.472081684706	238
1	2703	1563.014530342535	237
1	2710	1568.57161701341	237
1	2713	1570.009947563133	238
1	2714	1570.854619948371	238
1	2716	1572.854239752938	238
1	2718	1573.649183323764	239
1	2720	1574.431261396651	240
1	2721	1574.496384551459	240
1	2722	1575.224205438307	239
1	2723	1576.20560530158	238
1	2724	1576.845924170583	237
1	2725	1576.97620149652	236
1	2727	1577.710915756787	236
1	2729	1578.773390100591	237
1	2730	1579.508727548936	237
1	2731	1579.74823357791	236
1	2732	1579.906475045902	235
1	2734	1582.313280128326	235
1	2735	1582.639797576103	235
1	2737	1583.683502142117	235
1	2738	1584.071689750736	235
1	2739	1584.628337065952	234
1	2740	1584.947165243912	233
1	2744	1588.474986190152	232
1	2745	1588.818396542309	231
1	2746	1589.235936833077	230
1	2748	1589.280635824814	230
1	2750	1589.871581286805	231
1	2752	1591.258443499094	232
1	2754	1591.596810850643	233
1	2755	1593.181417433209	233
1	2757	1593.233636181989	233
1	2761	1594.513658465552	234
1	2763	1595.041959390945	235
1	2765	1595.791459182857	236
1	2769	1600.116583707991	237
1	2773	1602.974450695767	238
1	2777	1604.323189749351	239
1	2779	1605.047730806283	240
1	2781	1605.726230746941	241
1	2783	1608.177733901947	242
1	2785	1608.87034729343	243
1	2789	1612.698425469124	244
1	2791	1613.084001794235	245
1	2793	1614.138374516635	246
1	2795	1615.29226998838	247
1	2799	1619.259723079875	248
1	2801	1624.038952120602	249
1	2803	1625.262419856363	250
1	2805	1625.509040028787	251
1	2807	1627.801455000112	252
1	2812	1634.908312965786	253
1	2819	1639.876311855252	254
1	2821	1642.795367965712	255
1	2823	1642.909517859363	256
1	2825	1642.921485008267	257
1	2827	1643.261149963729	258
1	2829	1643.773080989564	259
1	2831	1644.037396590843	260
1	2833	1644.859463842305	261
1	2835	1649.71846810721	262
1	2840	1654.689899513306	263
1	2842	1657.323401004088	264
1	2845	1659.947469405991	265
1	2847	1660.15272288458	266
1	2849	1661.888119911532	267
1	2851	1662.25959748714	268
1	2853	1662.605082414387	269
1	2855	1662.666010954452	270
1	2857	1662.998425650332	271
1	2859	1663.369180467026	272
1	2861	1663.950213906112	273
1	2863	1666.633273367076	274
1	2865	1666.937215598251	275
1	2867	1667.238379356476	276
1	2872	1670.126235372682	277
1	2873	1672.393697728495	277
1	2874	1672.746615214674	276
1	2876	1673.623153838882	276
1	2877	1673.680353992183	276
1	2878	1673.832453251654	275
1	2879	1674.206348719985	274
1	2880	1674.221044390421	273
1	2881	1676.771301327871	272
1	2882	1677.933555597818	271
1	2884	1678.21097691282	271
1	2885	1679.155212557558	271
1	2886	1680.178239051006	270
1	2888	1680.538105211064	270
1	2889	1680.64619850183	270
1	2891	1680.664321990175	270
1	2893	1681.431623024352	271
1	2894	1681.814412639703	271
1	2895	1682.729037772608	270
1	2896	1683.793170374212	269
1	2900	1688.742829732614	269
1	2905	1690.683765791047	270
1	2907	1692.103598171633	271
1	2910	1695.638390251327	272
1	2911	1696.051833526428	272
1	2912	1696.425816896455	271
1	2913	1697.072122473986	270
1	2915	1697.110498300881	270
1	2917	1697.773790918531	271
1	2919	1698.027729870462	272
1	2921	1698.512051988826	273
1	2922	1698.637862234338	273
1	2928	1701.839467788935	273
1	2931	1703.470581023862	274
1	2935	1707.134959135358	275
1	2939	1708.607574693388	276
1	2943	1711.495641967907	276
1	2944	1713.928309773475	275
1	2945	1714.190454487172	274
1	2947	1714.908418675817	274
1	2948	1715.17296671811	274
1	2950	1718.394836761124	274
1	2951	1718.61627979911	274
1	2955	1722.331663654634	274
1	2957	1724.823103325121	275
1	2959	1724.974656245367	276
1	2961	1725.998755828507	276
1	2963	1726.334234742406	276
1	2964	1726.393950923904	276
1	2965	1728.933830999844	275
1	2966	1729.1898723655	274
1	2968	1729.892186140122	274
1	2970	1730.258247704898	275
1	2975	1732.870395138962	276
1	2976	1732.909148194598	276
1	2977	1733.381467191514	275
1	2979	1734.031911119241	275
1	2980	1734.059634588963	275
1	2982	1735.855952126035	275
1	2983	1735.858595172204	275
1	2984	1736.323924299963	274
1	2985	1736.341956710649	273
1	2987	1738.091480855627	273
1	2989	1742.368000648756	274
1	2991	1742.848055303512	275
1	2992	1742.956706595849	275
1	2994	1744.272925626992	275
1	2995	1744.30445917732	275
1	2999	1747.28558331745	275
1	3001	1747.885755377828	275
1	3002	1748.403248675583	274
1	3003	1748.917272815541	273
1	3004	1749.214476252542	272
1	3006	1749.267355538305	272
1	3008	1749.597198826231	273
1	3010	1749.681868547595	274
1	3012	1750.908210915938	275
1	3013	1751.613743266639	275
1	3015	1752.211494088413	275
1	3019	1752.49132204758	276
1	3021	1753.253253253307	277
1	3027	1757.164202151589	278
1	3029	1758.079834133397	279
1	3035	1758.81433876295	280
1	3037	1759.010156618739	281
1	3044	1763.790753672111	282
1	3046	1766.906964894696	283
1	3051	1769.391621854519	284
1	3053	1769.844295371169	285
1	3059	1772.487109632976	286
1	3061	1773.47630475179	287
1	3064	1775.452713739067	288
1	3066	1775.562538433771	289
1	3069	1778.715744467897	290
1	3073	1783.501570747039	291
1	3075	1786.056707722274	292
1	3077	1786.473184091709	293
1	3081	1790.147432780227	294
1	3083	1790.694563816011	295
1	3085	1791.099732247285	296
1	3090	1792.134887327398	297
1	3095	1793.138808316225	298
1	3097	1793.706384623056	299
1	3099	1794.699251978216	300
1	3102	1796.403911002498	300
1	3104	1797.492226775651	300
1	3105	1798.998721547032	300
1	3107	1799.264184793281	300
1	3113	1801.211933987832	301
1	3115	1803.830738019707	302
1	3117	1805.144644830766	303
1	3122	1809.412290818117	304
1	3124	1809.568473980885	305
1	3126	1813.178915610291	306
1	3128	1813.815486706927	307
1	3132	1814.961595645	308
1	3136	1818.991720688807	309
1	3138	1820.326583712243	310
1	3140	1820.84759665359	311
1	3144	1821.690469256168	312
1	3148	1825.396097772897	313
1	3150	1826.347873895431	314
1	3152	1827.171942841205	315
1	3155	1828.093671004104	316
1	3157	1828.191938570753	317
1	3160	1832.906983001447	318
1	3163	1833.521858055647	319
1	3164	1835.836642966615	319
1	3165	1835.906879560615	318
1	3167	1836.415555897538	318
1	3168	1837.141244105931	318
1	3169	1838.711513817253	317
1	3170	1839.269487284686	316
1	3176	1841.435035348144	316
1	3179	1842.930203077463	317
1	3181	1842.982784943037	318
1	3183	1844.581466089062	319
1	3185	1844.690787073858	320
1	3187	1844.960988258404	321
1	3189	1845.357121910897	322
1	3191	1847.300068913177	323
1	3193	1847.533117738	324
1	3195	1850.894757026462	325
1	3197	1852.628577834155	326
1	3199	1854.305100860564	326
1	3200	1854.323511965855	325
1	3201	1854.710380266877	324
1	3202	1855.117936685589	323
1	3204	1855.288552351596	323
1	3205	1856.02185433115	323
1	3207	1856.345456827978	323
1	3209	1856.357722729812	324
1	3215	1863.779875505331	325
1	3219	1869.21228351161	326
1	3220	1870.222630335248	326
1	3221	1870.578055068696	325
1	3223	1870.864286458369	325
1	3224	1871.08788008728	325
1	3228	1875.759175965938	325
1	3230	1875.957685431557	325
1	3231	1876.267311245778	324
1	3232	1876.405577570732	323
1	3233	1876.450768439834	322
1	3234	1876.746255303841	321
1	3236	1878.048183173917	321
1	3237	1878.656884135703	321
1	3238	1879.702929045828	320
1	3239	1879.97980917863	319
1	3240	1880.13768284647	318
1	3241	1880.954285066494	317
1	3245	1883.922616880222	317
1	3247	1884.448215800587	318
1	3249	1885.478037624657	319
1	3251	1888.607116619877	320
1	3253	1888.910535693304	321
1	3255	1890.308319742085	322
1	3257	1896.7540797329	323
1	3262	1898.569837526842	324
1	3266	1900.619761466724	325
1	3268	1904.379934304688	326
1	3270	1906.528311965311	327
1	3272	1907.249328480687	328
1	3274	1907.898482330513	329
1	3277	1913.535509173363	330
1	3279	1913.640215579891	331
1	3281	1914.026202932005	332
1	3283	1914.543258791606	333
1	3285	1915.636988860724	334
1	3287	1919.852253525812	335
1	3289	1922.679855732797	336
1	3291	1922.723268772908	337
1	3293	1924.265509547924	337
1	3295	1926.614559238218	337
1	3296	1926.841792588233	337
1	3297	1927.073760662084	336
1	3303	1929.302024611997	336
1	3307	1933.19820071542	337
1	3308	1933.798014141568	337
1	3310	1933.882844175189	337
1	3311	1934.158315676286	337
1	3312	1934.255251937616	336
1	3313	1935.212630562039	335
1	3315	1936.068788956611	335
1	3317	1936.559572191099	336
1	3319	1936.777654652339	337
1	3321	1936.847852367237	338
1	3322	1937.170381650418	338
1	3323	1937.382324084177	337
1	3325	1937.556245728702	337
1	3326	1938.472003145597	337
1	3327	1939.480864762697	336
1	3329	1939.912393383882	336
1	3330	1941.318895098456	336
1	3331	1941.991013465263	335
1	3333	1942.441872017753	335
1	3334	1943.088086804759	335
1	3336	1944.027368364803	335
1	3338	1946.561558938537	336
1	3340	1947.78313311165	337
1	3341	1949.367980460073	337
1	3342	1950.441135917895	336
1	3343	1951.305975560198	335
1	3344	1953.922196625497	334
1	3345	1954.923833562242	333
1	3346	1956.576881798693	332
1	3350	1959.516393820292	331
1	3351	1960.075528657783	330
1	3352	1960.165903966229	329
1	3353	1961.014004088092	328
1	3355	1962.782183871051	328
1	3357	1962.93865951795	329
1	3358	1963.278343518	329
1	3359	1963.757687943055	328
1	3360	1964.002779637493	327
1	3361	1965.107128591331	326
1	3363	1965.428766890081	326
1	3370	1968.571166947853	326
1	3372	1968.616112161031	326
1	3374	1969.126781059702	327
1	3375	1969.479700825489	327
1	3377	1971.464470787397	327
1	3379	1971.827803503154	328
1	3381	1973.358734146982	329
1	3382	1973.614416414375	329
1	3383	1974.678787886434	328
1	3385	1974.835374523103	328
1	3386	1976.025456917173	328
1	3387	1976.259624493683	327
1	3389	1976.260543154113	327
1	3391	1978.728122418346	328
1	3392	1978.895019727654	328
1	3394	1978.96740782563	328
1	3395	1979.840340461086	328
1	3397	1979.852780503767	328
1	3398	1980.239523268772	328
1	3399	1981.293148707214	327
1	3400	1981.91408467454	326
1	3401	1983.199345702342	325
1	3403	1984.253390160438	325
1	3404	1984.599058360817	325
1	3406	1987.446741143497	325
1	3407	1988.127031865379	325
1	3408	1988.354460900794	324
1	3409	1989.280284315524	323
1	3411	1989.575705100372	323
1	3412	1989.670358338262	323
1	3413	1989.847686504689	322
1	3414	1990.181336980517	321
1	3416	1990.274018848898	321
1	3420	1990.415322402451	322
1	3422	1991.637691564015	323
1	3424	1992.102861266277	324
1	3426	1992.612674522819	325
1	3428	1992.912489672605	326
1	3431	1994.710721003655	327
1	3432	1996.206911581944	327
1	3434	1996.40653323009	327
1	3435	1996.491880441743	327
1	3439	1998.397732114264	327
1	3441	1998.511218284829	328
1	3443	1998.721292596183	329
1	3445	1999.164652391893	330
1	3447	1999.862034430747	331
2	0	0	0
2	4	0.884238626116	1
2	125	65.53998233074	2
2	144	77.842132783268	3
2	159	88.517258013388	4
2	205	114.993768147799	5
2	254	139.421906884496	6
2	264	149.416730119126	7
2	270	154.975979055164	8
2	323	180.158181495266	9
2	336	186.677648698664	10
2	385	209.134189534668	11
2	410	220.989736515629	12
2	425	229.379204750532	13
2	428	231.280815833812	14
2	529	284.250504590062	15
2	542	295.596685271611	16
2	569	312.229295324635	17
2	597	333.747701032464	18
2	651	373.812241214451	19
2	668	384.990085484222	20
2	718	405.915390967378	21
2	744	419.037826915871	22
2	778	431.73336390547	23
2	807	450.795898534815	24
2	868	480.226782301355	25
2	880	487.127531995856	26
2	909	510.752310666102	27
2	920	516.227846621525	28
2	987	554.985326516823	29
2	1202	683.90755212787	30
2	1243	700.777392915146	31
2	1269	713.50507682676	32
2	1341	753.269675449881	33
2	1391	779.425400816743	34
2	1402	783.308601307214	35
2	1411	792.714812258675	36
2	1465	824.257459816337	37
2	1473	826.593155355856	38
2	1543	877.331592820238	39
2	1634	926.015811964137	40
2	1651	936.87304198166	41
2	1687	950.227873464738	42
2	1696	954.749753520779	43
2	1793	997.705716761033	44
2	1870	1036.275427688972	45
2	1886	1042.765171436556	46
2	1917	1053.202799797775	47
2	1959	1084.274208763666	48
2	1990	1094.101844131482	49
2	1995	1095.67275728987	50
2	2065	1142.577552841974	51
2	2071	1144.14816278674	52
2	2095	1161.710429517387	53
2	2104	1168.956687316329	54
2	2377	1371.258688784483	55
2	2437	1407.622820127852	56
2	2441	1410.607431395522	57
2	2446	1412.465287314505	58
2	2492	1431.3430117024	59
2	2513	1440.153007482664	60
2	2517	1442.19694102966	61
2	2529	1447.523086591393	62
2	2546	1454.759467546885	63
2	2590	1481.475467815834	64
2	2705	1564.065640412426	65
2	2708	1567.682128276115	66
2	2742	1585.753140000832	67
2	2759	1593.369081677909	68
2	2898	1683.850870552346	69
2	2924	1699.111918254623	70
2	2953	1719.733211644138	71
2	2972	1730.48775157314	72
2	2997	1744.599944737291	73
2	3017	1752.225761931649	74
2	3109	1799.803425055029	75
2	3172	1839.380890889969	76
2	3211	1857.184218636641	77
2	3226	1872.617946700095	78
2	3243	1881.662568332258	79
2	3299	1927.263912330817	80
2	3348	1957.536006468972	81
2	3365	1965.692733998529	82
2	3418	1990.370335201799	83
2	3437	1998.091821212714	84
3	0	0	0
3	54	33.86897485022	1
3	55	33.989939060065	2
3	60	35.633224165991	3
3	61	36.939106741948	4
3	64	37.937246272355	5
3	65	38.685220798646	6
3	66	40.041151199591	7
3	67	40.28668353309	8
3	70	41.709768334229	9
3	73	42.519076859211	10
3	74	42.670569691041	11
[...]
10	852	474.439699359276	68.136940648915
10	853	474.870259965228	64.927050382293
10	854	476.803507221961	63.622335545558
10	855	477.838715955638	61.233940371284
10	856	478.13220562935	61.526179380955
10	859	478.435633612775	61.224485710242
10	864	479.446832560165	61.133684488755
10	870	482.483088339143	61.106942098691
10	871	482.646974198101	59.18229161518
10	874	484.85233987078	60.003418375691
10	877	485.317070703796	60.311047794203
10	878	486.673841335017	60.716718052688
10	907	509.11391439136	82.27230596924
10	915	513.956208839603	85.230687069621
10	916	514.231714054503	85.106996397978
10	917	514.818258995987	85.294864497895
10	918	515.678914404604	84.450810113477
10	972	545.177244898024	113.44388099255
10	973	546.137092392189	105.8870621995
10	974	546.708761479243	105.1236464215
10	977	548.385743276119	104.47086455429
10	978	548.568919632968	103.04501109074
10	979	549.173702365054	101.55894204077
10	980	550.1091084517	101.32808213438
10	981	551.678789853741	102.82242570677
10	982	551.900260070802	101.10436153599
10	983	553.617848667297	101.34749313382
10	984	554.271714198029	99.348007213489
10	985	554.527333480689	96.633987538169
10	1199	682.637904739926	222.8853517286
10	1200	683.519370881444	216.79059939296
10	1224	694.575679996231	226.64295650077
10	1225	694.683147970541	224.70905701935
10	1226	694.911508610703	224.0355510057
10	1227	695.253870766778	223.62796696308
10	1228	695.579845144663	223.80813239642
10	1231	697.227288736093	223.96815907475
10	1234	698.039484540515	219.71918906858
10	1235	698.463417246192	219.84142328364
10	1236	699.279223655973	220.41673711747
10	1237	700.002026227518	220.09729723594
10	1247	702.569507992041	218.118290863
10	1248	702.831608652856	217.6852123054
10	1249	703.021772834095	215.89424083824
10	1250	703.250088633322	215.35971036306
10	1251	704.062747173948	213.42884936152
10	1254	705.189699749534	213.43569110123
10	1255	705.679903122139	212.30932874104
10	1256	707.412891848667	214.01134510832
10	1261	707.909609975403	213.41681665297
10	1262	708.407755290624	209.809182359
10	1263	708.518767866909	203.21487918157
10	1264	709.976374791162	204.63918048233
10	1265	712.597081032954	206.51398094484
10	1266	712.836784492805	203.78768530562
10	1267	713.13186003487	202.37954936877
10	1285	719.247507839091	205.30387728701
10	1288	721.586867639054	205.35902101753
10	1289	721.931671725978	201.68464376637
10	1290	722.12712593766	195.9563249252
10	1293	723.862169238234	197.3460446081
10	1294	724.331575501179	196.42569104008
10	1295	724.673303027266	193.35732604798
10	1296	725.258724076413	193.66934351006
10	1297	725.884748407572	192.2510169978
10	1298	726.202198915789	192.11242254431
10	1305	728.83543941932	194.40555372935
10	1306	729.49571248402	191.6901572279
10	1307	730.633301908159	190.13535237198
10	1312	732.707966860887	192.05627794916
10	1315	734.269699289011	192.74448267861
10	1318	736.007047014568	193.70603523663
10	1319	737.509465187847	192.92655164739
10	1320	737.685787063016	193.08883844492
10	1325	739.63553343787	191.53511281039
10	1326	741.50879372035	186.52346720353
10	1327	741.551491077712	185.02054758428
10	1328	742.575947667445	181.84886710714
10	1329	744.301856593595	182.03465047631
10	1330	747.22155085185	174.47017857476
10	1331	748.621902512502	174.95382008294
10	1332	749.029280862965	175.25600671231
10	1333	749.349027087548	175.48272496887
10	1334	750.301049563551	175.43344021445
10	1335	750.598727526176	173.49648828304
10	1358	769.184410133626	187.55364095915
10	1359	769.647859123368	187.91273760587
10	1360	770.192854290544	186.4386880573
10	1363	771.675977666931	184.49191805015
10	1368	772.014110238318	180.56682359573
10	1375	774.523878388536	182.29112935454
10	1378	775.3449926315	180.36948430986
10	1379	775.85824341366	180.50253917269
10	1384	776.329570694252	180.13416737591
10	1387	777.085308673746	179.48372186223
10	1397	782.525160402056	182.80897099963
10	1400	782.611352529859	170.87271662276
10	1408	787.110787332061	173.5706030167
10	1409	791.057973021092	174.56175787318
10	1425	805.629470397093	188.5079091788
10	1426	806.493254285876	188.90500588919
10	1427	806.504833907874	188.19678429966
10	1430	806.615773685565	184.93470564759
10	1431	807.097393195027	184.19400544678
10	1432	807.174137118831	181.4341904214
10	1433	807.271478589079	180.1322179569
10	1434	808.376892202764	181.12557501571
10	1435	809.083242808074	181.50966706786
10	1436	809.455174121172	177.64496564861
10	1437	810.650386392621	176.98213472013
10	1438	811.183017261047	176.7778346522
10	1439	812.167777476816	175.28652142906
10	1442	813.788896554259	176.71073241895
10	1445	816.302211143798	177.00689400482
10	1446	816.923976123988	177.57703837441
10	1455	818.720138462713	178.96761476027
10	1456	819.479160177176	177.64574883803
10	1461	819.894085700147	172.11128046571
10	1462	820.206875800989	168.33274689128
10	1463	823.644459604117	171.02511821068
10	1471	826.331418774777	173.04695612137
10	1566	888.757857537263	233.09176825235
10	1569	889.126178183675	233.17432899812
10	1570	889.202308163656	232.4952755929
10	1571	889.319846622646	231.75975265674
10	1572	890.117712288687	231.8846000946
10	1573	890.300254742059	224.97249859217
10	1574	890.607954850189	223.71342070267
10	1575	892.090339556389	223.79348727392
10	1576	892.562874006851	224.04948911765
10	1577	893.482095940683	223.78292256407
10	1580	894.255850877461	222.64299673978
10	1581	894.33668162142	221.6565976153
10	1582	894.395801866709	217.93306708162
10	1583	894.560339631606	215.94733170786
10	1584	895.718803326042	216.69663921019
10	1585	896.569163606438	217.28432891464
10	1586	897.639038115306	217.18376765933
10	1589	897.706420797085	216.53341175975
10	1590	898.671095196238	216.28607686399
10	1591	898.781156221092	216.39485321836
10	1592	899.172094294543	215.26454216667
10	1593	899.738752517249	215.35524423961
10	1594	899.932821195557	215.11200225445
10	1595	899.951715931371	213.47484604
10	1600	901.404335637698	212.19951775779
10	1603	902.142764929592	210.52473982112
10	1604	902.318008162911	209.64624978812
10	1605	903.585411513134	209.1756169731
10	1606	904.852776243371	209.19555157856
10	1607	904.975967974776	207.72996243333
10	1608	904.980113958505	204.71689486406
10	1611	910.094775211522	209.70398665695
10	1612	910.098041899276	209.32064898413
10	1613	910.40592889666	208.34269357767
10	1616	911.917667105175	207.6299651254
10	1617	911.980303437769	204.23471740828
10	1618	912.476424901666	204.71707179113
10	1621	915.537101866208	202.03202503945
10	1626	919.29368443606	205.4122521799
10	1631	922.715117703976	208.82703140352
10	1632	925.299017812509	208.71160269666
10	1655	937.996672434316	214.5810990238
10	1656	938.313894137337	212.10436941466
10	1657	938.644770934524	210.50859531399
10	1660	939.012860617782	210.25270326337
10	1661	939.027951349233	208.05607318024
10	1662	939.217295026497	206.85190074821
10	1663	939.268020931257	205.14666897298
10	1664	939.425469550144	204.3070090501
10	1667	940.796321599931	202.09943351915
10	1668	941.516425695161	202.44033222227
10	1671	942.594698607279	190.62293466518
10	1672	942.62712590298	190.17674732038
10	1677	945.317077363039	192.04740191316
10	1678	946.016683734783	184.31851562553
10	1679	946.7640085273	183.4027539793
10	1680	947.179786616971	181.912688179
10	1681	948.027922133189	181.639750776
10	1684	948.599643979676	181.46401829315
10	1685	949.788036916186	181.99533644676
10	1710	961.976852640534	190.02451287136
10	1711	962.549416203333	190.31923126905
10	1712	962.649348867026	189.05197908572
10	1713	963.655748292943	189.76746079426
10	1714	965.345318120891	190.65568230135
10	1715	965.502015560832	189.56202902284
10	1716	966.328956846724	190.03611411599
10	1717	966.36317733526	189.55936043191
10	1718	966.893937688463	188.86811679242
10	1725	967.78096905787	188.35556824113
10	1726	968.058733911061	187.53756344078
10	1729	968.327021181958	187.70741544973
10	1732	969.809859768738	187.22373046239
10	1735	971.113146844252	187.80454553704
10	1736	971.166346126508	187.1784213158
10	1737	971.178239774655	185.29236942083
10	1738	971.499418288954	178.78460603028
10	1745	974.860367108264	181.58802476711
10	1748	975.738491166029	179.87593948615
10	1749	975.897425266032	178.21001344089
10	1750	978.968988756218	180.07811688816
10	1753	979.966036772607	180.963391122
10	1754	980.027095875239	180.35208915498
10	1755	980.797805279773	174.26213877914
10	1756	981.481856660435	168.1379220956
10	1757	982.019139899536	167.6878315334
10	1760	982.230130887783	164.84922042099
10	1761	982.379538879923	164.1579203658
10	1764	983.429447195122	165.11062993644
10	1767	985.489374414098	166.88307075306
10	1770	985.735995922798	166.20221633432
10	1773	986.253761408547	166.41860683595
10	1774	986.395899598775	162.13843978244
10	1777	986.602199580855	161.92716610524
10	1778	987.537136185133	161.52456536718
10	1779	988.203705459518	161.61055010366
10	1780	989.25848039049	156.45334644373
10	1781	989.31806114476	153.51393909854
10	1782	990.893277443945	149.9245089264
10	1783	991.045244149651	147.40826574175
10	1784	992.50477949709	148.56452281187
10	1785	994.617006368282	148.70531855564
10	1786	994.634287472823	146.25423982316
10	1787	995.350070884995	144.24789558237
10	1788	995.710708105022	144.57077538592
10	1791	996.021304571255	143.96893860783
10	1837	1022.784785186698	163.68772002089
10	1838	1023.648550967315	164.34335135644
10	1839	1023.996993570165	161.75486684826
10	1844	1026.973156462756	163.45689109404
10	1845	1027.536540577024	163.69458313855
10	1846	1027.728890610697	162.7206504898
10	1849	1028.380524711119	162.35876330867
10	1850	1029.012145304508	162.27925608366
10	1851	1029.020208028332	160.29162511653
10	1852	1029.441705703194	159.30738758816
10	1853	1029.738111520761	155.94857884869
10	1858	1032.578086090587	156.83816237014
10	1859	1033.072338588857	155.74074576862
10	1860	1033.444345419573	155.55273693538
10	1863	1034.405317981174	156.10456702741
10	1864	1034.568626275767	154.88266717658
10	1875	1039.837964899232	158.53465373459
10	1878	1040.457961210584	154.66349417149
10	1892	1044.183485377986	157.07824294428
10	1895	1044.737766002192	156.62284582237
10	1898	1045.844524838851	156.86502364036
10	1899	1046.660728369683	152.87070639721
10	1908	1051.421042133021	153.78067567267
10	1909	1051.436026390026	150.91186405032
10	1910	1051.722686108089	150.63079032535
10	1915	1052.743027676909	151.33796068799
10	1957	1082.557802276489	170.8563923712
10	1977	1089.456641965541	173.87539070038
10	1978	1089.900001565463	171.46347092376
10	1979	1091.035637374161	169.24659275502
10	1980	1091.509432386645	169.41680957864
10	1983	1092.258241628042	166.2424296639
10	1984	1092.864347428419	165.45945116875
10	1992	1094.618135097355	166.51015758246
10	1993	1094.740967491132	164.7027359567
10	2069	1143.584511584667	207.60680660649
10	2079	1155.682211780645	218.73778703174
10	2080	1155.98279829995	217.28252238985
10	2081	1156.400249071228	216.0789257361
10	2086	1158.027730392194	215.60621146548
10	2091	1159.236647028642	214.84645293908
10	2099	1165.510072952808	217.33391773114
10	2102	1168.574183084467	218.34630961973
10	2374	1370.277673840363	418.58598618768
10	2375	1370.43204599479	417.84753395454
10	2396	1387.297840215868	432.41799236101
10	2397	1388.157524711392	430.66056926031
10	2398	1388.209810858775	430.53507555495
10	2399	1388.241411914546	429.23863969905
10	2400	1390.207385751485	429.60269768541
10	2401	1391.281991034723	429.9477407682
10	2404	1392.360741373045	425.45129525531
10	2407	1393.33591896396	425.79085687302
10	2408	1393.646984137151	425.90696824869
10	2409	1393.690124065532	425.57862606927
10	2410	1393.907012486637	424.75578152705
10	2411	1394.337409470296	424.32375570154
10	2412	1395.206826960672	423.22727636357
10	2413	1395.701403358402	423.23011045129
10	2416	1396.317274485263	423.72648837785
10	2417	1396.887575707404	421.64602131527
10	2418	1399.189076943405	420.16685863649
10	2419	1399.306237925115	417.08738812207
10	2420	1399.922561620358	416.54845868283
10	2421	1400.002959620058	414.8471808924
10	2422	1401.372703688108	415.84653901201
10	2423	1402.099696523154	416.01848817064
10	2424	1404.26185833974	417.8518155934
10	2427	1405.027929826548	409.02633171105
10	2428	1405.276471178265	407.57075441723
10	2431	1405.940084303143	407.99190443875
10	2432	1406.019373986928	407.04768249908
10	2435	1407.570003150825	406.7836893001
10	2439	1408.60752129702	405.4411492825
10	2448	1412.855597106853	405.44680372417
10	2453	1413.905848479303	405.4619551868
10	2454	1415.783579008368	403.7287147979
10	2455	1416.835902693353	403.57685040398
10	2456	1416.96371598249	399.31903217786
10	2459	1420.857457545485	402.37467990668
10	2460	1420.884930702416	400.03258521871
10	2461	1420.919232781274	398.72916063934
10	2464	1421.210953176952	396.85241890419
10	2465	1422.189180552158	397.11877725592
10	2466	1422.603412848438	394.60543562526
10	2469	1423.560560762991	393.69909716193
10	2470	1425.653030053252	393.45380656663
10	2471	1426.077454384256	392.28836882913
10	2472	1427.065406753936	391.64818429381
10	2475	1427.370306492123	391.1815642917
10	2476	1428.194144542321	391.91871685335
10	2477	1428.238667249276	387.96471379177
10	2482	1430.171739076417	388.72977664564
10	2485	1430.472204195802	388.71318593542
10	2486	1430.591635869575	388.63593603532
10	2487	1430.7875228316	388.02235139504
10	2488	1430.931489209299	388.00404966692
10	2498	1434.266893200314	389.57434068136
10	2499	1434.445339801586	388.99404185844
10	2506	1437.436931467288	390.65903101954
10	2509	1437.528447640845	390.01960445607
10	2510	1438.694773223414	388.86516942353
10	2511	1439.756815997611	388.83323798969
10	2515	1441.084438192906	388.74098373382
10	2523	1445.546859706308	392.26796144768
10	2524	1445.943301859945	392.17595357988
10	2525	1445.96482042567	390.86964012113
10	2526	1446.823210689138	387.91774604455
10	2527	1446.824915385942	386.12804580269
10	2535	1448.765533260114	387.55224555235
10	2536	1449.75591263917	381.33893180877
10	2537	1449.798616732403	378.81900278159
10	2538	1451.734926076407	377.74972599267
10	2541	1451.781432270246	374.32878776124
10	2544	1453.572952961509	375.34748063507
10	2582	1477.847135934166	393.5729271705
10	2583	1478.370990483574	392.45464414656
10	2584	1478.696967949965	391.70808678803
10	2585	1480.425878447056	393.33070471101
10	2586	1480.489036749391	392.74744539112
10	2694	1559.690780603276	471.7960705577
10	2695	1560.458441634506	472.13479869259
10	2696	1561.664982083953	472.88312222761
10	2701	1562.359639968584	470.30132065931
10	2702	1562.472081684706	469.18023701642
10	2703	1563.014530342535	469.47179750752
10	2714	1570.854619948371	471.80506522327
10	2721	1574.496384551459	475.12174851981
10	2722	1575.224205438307	475.52276663899
10	2723	1576.20560530158	472.896646766
10	2724	1576.845924170583	471.96709685838
10	2725	1576.97620149652	466.23608146275
10	2730	1579.508727548936	465.214481282
10	2731	1579.74823357791	463.95179155565
10	2732	1579.906475045902	463.54786060499
10	2735	1582.639797576103	465.23682454384
10	2738	1584.071689750736	465.42536286533
10	2739	1584.628337065952	462.94258288465
10	2740	1584.947165243912	460.13939698337
10	2744	1588.474986190152	457.10449369825
10	2745	1588.818396542309	455.58117330812
10	2746	1589.235936833077	455.43709843994
10	2755	1593.181417433209	457.18729383587
10	2873	1672.393697728495	536.09633770325
10	2874	1672.746615214674	535.79871196675
10	2877	1673.680353992183	534.40063780899
10	2878	1673.832453251654	532.14150005302
10	2879	1674.206348719985	531.62879587801
10	2880	1674.221044390421	530.6589041169
10	2881	1676.771301327871	532.62313854113
10	2882	1677.933555597818	530.5105948744
10	2885	1679.155212557558	528.03283948538
10	2886	1680.178239051006	526.52852655626
10	2889	1680.64619850183	523.64695670115
10	2894	1681.814412639703	524.7659114135
10	2895	1682.729037772608	523.88816083172
10	2896	1683.793170374212	524.75816656245
10	2911	1696.051833526428	534.34140400904
10	2912	1696.425816896455	533.76363810148
10	2913	1697.072122473986	529.22571811016
10	2922	1698.637862234338	529.68117491801
10	2943	1711.495641967907	539.57968071685
10	2944	1713.928309773475	534.51889957552
10	2945	1714.190454487172	534.52150006082
10	2948	1715.17296671811	534.9252215453
10	2951	1718.61627979911	538.25948772408
10	2961	1725.998755828507	539.64937178072
10	2964	1726.393950923904	537.86143087724
10	2965	1728.933830999844	537.52788721268
10	2966	1729.1898723655	536.27145162976
10	2976	1732.909148194598	539.05537566001
10	2977	1733.381467191514	538.66856943801
10	2980	1734.059634588963	534.03899658982
10	2983	1735.858595172204	529.54831099911
10	2984	1736.323924299963	529.46743648881
10	2985	1736.341956710649	527.37597627656
10	2992	1742.956706595849	529.00272323207
10	2995	1744.30445917732	529.92654522902
10	3001	1747.885755377828	527.42201527962
10	3002	1748.403248675583	524.83135614426
10	3003	1748.917272815541	523.91638482501
10	3004	1749.214476252542	522.66715977352
10	3013	1751.613743266639	521.05080557963
10	3102	1796.403911002498	561.23550032783
10	3105	1798.998721547032	561.57996642828
10	3164	1835.836642966615	591.86757737522
10	3165	1835.906879560615	590.83938738427
10	3168	1837.141244105931	592.07168370769
10	3169	1838.711513817253	593.3795582461
10	3170	1839.269487284686	591.26607890008
10	3199	1854.305100860564	603.15339480217
10	3200	1854.323511965855	598.05302864762
10	3201	1854.710380266877	596.96315464624
10	3202	1855.117936685589	591.55061508331
10	3205	1856.02185433115	590.54770691801
10	3220	1870.222630335248	602.65072707174
10	3221	1870.578055068696	600.75732743744
10	3224	1871.08788008728	600.096355694
10	3230	1875.957685431557	599.13636257295
10	3231	1876.267311245778	597.7653548471
10	3232	1876.405577570732	597.7851864683
10	3233	1876.450768439834	597.38038897493
10	3234	1876.746255303841	587.07325647106
10	3237	1878.656884135703	586.65363289674
10	3238	1879.702929045828	587.16388546449
10	3239	1879.97980917863	587.289481611
10	3240	1880.13768284647	587.35068621493
10	3241	1880.954285066494	584.14980168477
10	3293	1924.265509547924	626.26394077377
10	3296	1926.841792588233	625.58253642293
10	3297	1927.073760662084	622.75472663702
10	3308	1933.798014141568	622.29189450592
10	3311	1934.158315676286	620.27199879855
10	3312	1934.255251937616	618.9298170351
10	3313	1935.212630562039	614.6349341849
10	3322	1937.170381650418	615.8723038805
10	3323	1937.382324084177	615.10058621989
10	3326	1938.472003145597	615.17766632508
10	3327	1939.480864762697	615.4953396568
10	3330	1941.318895098456	616.93734363203
10	3331	1941.991013465263	615.46135060548
10	3334	1943.088086804759	615.16630316765
10	3341	1949.367980460073	621.25675895406
10	3342	1950.441135917895	621.78176646714
10	3343	1951.305975560198	616.98416393678
10	3344	1953.922196625497	616.83786772672
10	3345	1954.923833562242	617.7217494569
10	3346	1956.576881798693	619.13834780154
10	3350	1959.516393820292	620.93962469962
10	3351	1960.075528657783	619.15332893388
10	3352	1960.165903966229	613.96115165689
10	3353	1961.014004088092	612.75138881622
10	3358	1963.278343518	607.46175247448
10	3359	1963.757687943055	605.02109269497
10	3360	1964.002779637493	604.7790085553
10	3361	1965.107128591331	604.85092385397
10	3370	1968.571166947853	606.68120315059
10	3375	1969.479700825489	606.43551599406
10	3382	1973.614416414375	608.61142523675
10	3383	1974.678787886434	608.99526797649
10	3386	1976.025456917173	608.99694963514
10	3387	1976.259624493683	608.36403414204
10	3392	1978.895019727654	610.12205998231
10	3395	1979.840340461086	611.02141825638
10	3398	1980.239523268772	610.76301934712
10	3399	1981.293148707214	611.80860733026
10	3400	1981.91408467454	610.65539589006
10	3401	1983.199345702342	610.91502776053
10	3404	1984.599058360817	609.2190163228
10	3407	1988.127031865379	612.37142289648
10	3408	1988.354460900794	610.53872501861
10	3409	1989.280284315524	611.38286055614
10	3412	1989.670358338262	605.07974950825
10	3413	1989.847686504689	604.9529538518
10	3414	1990.181336980517	598.74266745517
10	3432	1996.206911581944	599.93998022785
10	3435	1996.491880441743	592.21426962044
11	3448	2000	0.346
12	3448	2000	0.1175

