version 2
run Continuity_test_mean_response_time-110-20221216-15:31:03-5711
attr configname Continuity_test_mean_response_time
attr datetime 20221216-15:31:03
attr experiment Continuity_test_mean_response_time
attr inifile omnetpp.ini
attr iterationvars $0=5.2
attr iterationvarsf 5.2-
attr measurement $0=5.2
attr network Network
attr processid 5711
attr repetition 10
attr replication #10
attr resultdir results
attr runnumber 110
attr seedset 10
param *.minion.arrival_mean 2
param *.minion.service_mean 1
param *.boss.arrival_mean 10
param *.boss.service_mean 5.2
param *.player.recover_rate_x 100
param **.minion.arrival_distribution 0
param **.minion.service_distribution 0
param **.boss.arrival_distribution 0
param **.boss.service_distribution 0

vector 0 Network.player minion_jobs_number_stat:vector ETV
attr source signal_minion_jobs_number
vector 1 Network.player minion_jobs_queue_number_stat:vector ETV
attr source signal_minion_jobs_queue_number
vector 2 Network.player minion_recovered_stat:vector ETV
attr source signal_minion_recovered
vector 3 Network.player minion_defeated_stat:vector ETV
attr source signal_minion_defeated
vector 4 Network.player boss_jobs_number_stat:vector ETV
attr source signal_boss_jobs_number
vector 5 Network.player boss_jobs_queue_number_stat:vector ETV
attr source signal_boss_jobs_queue_number
vector 6 Network.player boss_defeated_stat:vector ETV
attr source signal_boss_defeated
vector 7 Network.player minion_waiting_time_stat:vector ETV
attr source signal_minion_waiting_time
vector 8 Network.player minion_response_time_stat:vector ETV
attr source signal_minion_response_time
vector 9 Network.player boss_waiting_time_stat:vector ETV
attr source signal_boss_waiting_time
vector 10 Network.player boss_response_time_stat:vector ETV
attr source signal_boss_response_time
vector 11 Network.player minion_throughput:vector ETV
attr source signal_minion_throughput
vector 12 Network.player boss_throughput:vector ETV
attr source signal_boss_throughput
0	0	0	0
0	2	1.047440218537	1
0	5	3.113135442449	1
0	7	3.227050985249	2
0	9	3.465002631759	3
0	17	6.572393033866	1
0	20	9.014158349441	1
0	23	9.691562316881	1
0	26	10.004977916162	1
0	29	11.201927180137	1
0	32	12.966737678057	1
0	34	13.691296944251	2
0	36	13.979222031648	3
0	38	15.474004438679	4
0	41	15.850145318881	4
0	44	17.805478964126	4
0	51	22.667111004026	2
0	55	25.666265249721	2
0	58	25.881444210025	2
0	60	28.199708520786	3
0	63	29.586273475495	3
0	68	37.506480958512	1
0	71	38.991029971799	1
0	74	40.827696043866	1
0	77	44.53145843585	1
0	80	47.895137196993	1
0	83	48.951323442805	1
0	88	51.417750145001	1
0	90	52.079093014492	2
0	92	52.134934754563	3
0	94	52.668333321903	4
0	101	57.360722261327	4
0	103	58.38813171643	5
0	107	59.583459735117	4
0	113	65.633374160364	1
0	116	65.886598414221	1
0	122	69.868028730008	1
0	125	73.475290085053	1
0	128	76.835292151127	1
0	130	77.287207737491	2
0	134	78.390411366597	1
0	136	78.773223164392	2
0	140	80.894794844966	1
0	145	82.087369728611	2
0	148	83.792452352236	2
0	152	86.008534210348	1
0	155	88.288761456731	1
0	161	94.600521804672	1
0	163	95.073855615949	2
0	167	98.657373583967	1
0	173	100.38784436138	1
0	178	101.807657913324	1
0	182	103.723805041991	1
0	185	105.712436886302	1
0	187	106.081897324095	2
0	197	109.685937447576	1
0	201	110.570438169264	2
0	203	111.756432531214	3
0	205	111.957025010351	4
0	207	114.830436658214	5
0	212	116.355428146645	6
0	214	118.381704693385	7
0	216	119.049176983938	8
0	218	119.94893874886	9
0	220	122.810994631052	10
0	222	122.840358227939	11
0	226	127.874604487857	12
0	228	129.436310685498	13
0	230	131.682468949475	14
0	234	132.448376188178	15
0	239	135.947017933958	13
0	241	136.260302974277	14
0	248	143.950811374093	15
0	251	145.542908163038	16
0	253	145.712631730302	17
0	255	146.127864370525	18
0	263	147.610383413699	13
0	266	148.628642464939	13
0	268	149.208773441076	14
0	273	149.757747676156	14
0	278	152.234695156924	15
0	280	152.309382203096	16
0	282	152.431952212408	17
0	284	154.113135216478	18
0	286	155.811277678038	19
0	294	160.93307754696	15
0	300	164.228295423927	14
0	302	164.622894001598	15
0	304	165.966780511582	16
0	306	168.395349874653	17
0	308	168.950791961963	18
0	311	171.496814734768	19
0	314	172.818105211472	19
0	316	172.881218694902	20
0	318	172.882010103122	21
0	325	174.630510519137	21
0	330	176.03610413217	22
0	333	178.428626659238	23
0	338	181.180228827371	22
0	340	185.992866507506	23
0	342	186.603415177741	24
0	349	193.407690474126	20
0	351	194.153352316937	21
0	358	197.765834294158	17
0	373	206.742590647931	5
0	380	212.77942075953	3
0	382	213.441011498226	4
0	384	214.852769404219	5
0	386	215.214084437028	6
0	388	215.646664565552	7
0	392	220.164126611097	7
0	395	220.308504168361	7
0	399	222.268466759823	6
0	410	227.470332413249	1
0	413	228.751561679018	1
0	416	229.74450819159	1
0	418	230.121120058357	2
0	422	231.170194209632	1
0	425	234.352842404161	1
0	427	234.727683598592	2
0	431	236.608797508262	1
0	433	236.892720059736	2
0	435	237.258938171404	3
0	438	238.685558710321	3
0	440	238.790445804277	4
0	442	239.623732949895	5
0	448	240.848268647783	4
0	450	242.069264097734	5
0	453	242.866524790272	6
0	455	242.966168232701	7
0	458	243.989817384436	7
0	460	244.58285916036	8
0	462	244.658654160068	9
0	470	249.737640967389	4
0	476	258.179626024668	1
0	478	258.36463242463	2
0	481	258.915280508703	2
0	485	260.814028936309	1
0	487	261.168183028701	2
0	491	263.951432320077	1
0	494	264.686589174852	1
0	496	265.949724713228	2
0	498	266.136501167051	3
0	503	268.143702401102	1
0	507	269.037488114896	2
0	509	270.15719374613	3
0	511	270.174436170163	4
0	521	276.521404438522	5
0	523	280.183328485014	6
0	525	284.421471320758	7
0	527	284.994322913185	8
0	529	285.245905738183	9
0	532	290.294340740627	10
0	534	290.455566856911	11
0	536	292.593034734858	12
0	538	297.103304649718	13
0	540	297.544507690763	14
0	542	297.568819138669	15
0	544	297.983881383837	16
0	551	300.72269914542	13
0	553	300.860645602068	14
0	555	301.147744796466	15
0	568	314.355962344536	5
0	570	314.675720013087	6
0	572	314.973474948707	7
0	575	316.190020308271	7
0	582	317.882402459026	3
0	586	321.354978308316	2
0	592	325.382210642372	3
0	595	326.409524602904	4
0	597	326.760540986403	5
0	601	328.909508923058	5
0	603	329.039964253165	6
0	606	330.007573039536	6
0	608	330.056600851779	7
0	612	335.440763734274	8
0	617	338.845650689283	9
0	619	339.150570024074	10
0	621	339.385713598091	11
0	627	343.413459563054	9
0	630	345.147604586405	9
0	634	346.506760484259	10
0	636	347.143809485003	11
0	638	347.429416713369	12
0	647	353.786550366066	11
0	654	357.966507727057	9
0	661	360.040385009165	10
0	663	360.279564783872	11
0	666	362.683453579788	12
0	670	364.169190410019	13
0	672	364.221800008413	14
0	674	364.889647759505	15
0	676	370.352675197382	16
0	680	370.752620210252	17
0	682	372.323146872927	18
0	685	374.520564239603	19
0	687	375.871214717376	20
0	689	377.337672336664	21
0	697	380.488403810424	19
0	699	381.172262897344	20
0	701	381.955481599167	21
0	703	384.436539087268	22
0	707	386.031722777251	23
0	716	392.782428264611	24
0	718	394.66379532013	25
0	720	394.672261953512	26
0	723	395.023316424196	27
0	725	395.514593414652	28
0	727	395.815327038259	29
0	729	397.052388658177	30
0	731	397.860690972048	31
0	733	403.070936386709	32
0	735	404.109687844298	33
0	737	405.145162947428	34
0	739	406.403816897718	35
0	741	411.100524053322	36
0	743	412.115100716738	37
0	747	416.941941275629	38
0	750	418.587968909768	39
0	753	419.807417882989	39
0	756	420.518227522204	39
0	764	423.273756052885	34
0	766	423.296520209754	35
0	769	423.864812728343	35
0	772	424.734854929052	35
0	778	427.608136589077	34
0	780	430.17712759561	35
0	784	433.473422934441	36
0	788	437.206978799576	37
0	795	444.245415986065	38
0	797	447.777853920531	39
0	799	450.896613619568	40
0	802	454.21508198335	41
0	804	456.154365220673	42
0	808	456.772816939198	43
0	810	456.873949968257	44
0	812	457.688499171375	45
0	815	459.516049204936	46
0	818	461.956361972481	47
0	820	462.554562550972	48
0	822	462.704264645649	49
0	824	463.666513490737	50
0	826	463.773710490433	51
0	829	465.581346286599	52
0	833	467.373180086745	53
0	835	467.960764899844	54
0	850	474.229553363999	49
0	852	474.230406875991	50
0	856	476.177440756339	50
0	858	476.637796851959	51
0	862	477.279534751931	50
0	867	478.223726442085	48
0	873	480.118261179674	45
0	878	481.503185670383	45
0	880	483.626001743198	46
0	882	484.775765427889	47
0	884	486.006713874668	48
0	886	487.109011547765	49
0	888	491.538291633917	50
0	891	492.227790798027	51
0	893	492.458730916177	52
0	898	494.711505559487	50
0	900	494.882663790832	51
0	904	496.662876655073	50
0	908	497.579647694258	49
0	914	501.408541767379	46
0	920	504.875064532737	43
0	922	504.886806354838	44
0	925	505.905063150675	44
0	927	506.077947907436	45
0	935	508.719064065936	40
0	939	510.17396573021	39
0	943	511.030956405539	38
0	946	511.667542216048	38
0	951	516.607183102734	36
0	953	518.139066631112	37
0	958	521.993516313959	37
0	960	522.24164737139	38
0	975	531.69804220167	29
0	981	535.053892814768	27
0	983	535.952051333068	28
0	990	540.988036962556	28
0	992	541.660252573365	29
0	1001	551.386818409747	25
0	1004	553.18561173819	25
0	1007	553.739121546654	25
0	1015	561.835794977461	23
0	1021	564.48277800595	20
0	1029	567.667037916638	18
0	1031	567.771111762405	19
0	1034	568.858987920106	19
0	1038	569.53592924404	18
0	1046	573.348315751246	13
0	1052	576.754892605788	10
0	1056	577.960412917112	11
0	1058	579.186019545493	12
0	1062	580.032405412858	13
0	1065	581.101150788213	14
0	1067	584.256329106735	15
0	1070	584.876929778571	16
0	1072	585.041691895946	17
0	1076	585.34779852285	18
0	1078	585.812681076501	19
0	1084	588.2703382368	20
0	1087	589.899023852145	21
0	1089	590.969420176225	22
0	1092	594.857093048659	23
0	1094	596.117660201894	24
0	1096	596.356054494425	25
0	1098	597.350312069691	26
0	1100	600.648095425196	27
0	1104	601.403925344901	27
0	1110	603.946576283084	24
0	1112	604.764724004443	25
0	1115	607.393174607648	25
0	1117	607.543694226216	26
0	1122	613.147290843746	24
0	1128	615.492885270289	21
0	1130	615.595332569526	22
0	1134	615.858044387325	23
0	1136	616.012933715592	24
0	1138	617.875474486761	25
0	1140	618.026649345873	26
0	1144	621.94873362046	26
0	1149	628.059057452386	24
0	1151	628.085171278316	25
0	1153	628.322746207217	26
0	1157	630.488858936827	25
0	1162	632.377954116113	23
0	1164	632.855644376033	24
0	1167	633.548649757215	24
0	1169	635.565611998796	25
0	1172	637.712804524553	25
0	1175	638.312790650718	25
0	1193	648.716193365166	13
0	1195	648.836496176374	14
0	1208	654.731796764441	4
0	1211	655.420815249972	4
0	1214	656.785958474105	4
0	1220	664.425302316038	1
0	1222	665.62530275614	2
0	1225	666.415557814388	2
0	1229	666.838443772614	1
0	1231	667.094308302599	2
0	1234	668.889158503716	2
0	1237	670.285931569703	2
0	1241	673.34575372761	1
0	1244	674.835093191341	1
0	1246	675.869582106536	2
0	1250	680.338692772055	3
0	1252	682.779085043904	4
0	1254	685.790869775586	5
0	1256	686.044740116711	6
0	1258	686.256608099668	7
0	1262	686.701260586075	8
0	1264	687.222945412422	9
0	1266	687.299456440411	10
0	1268	688.796911472519	11
0	1270	690.466119789254	12
0	1272	693.271204986503	13
0	1274	693.442206186809	14
0	1276	696.693919443044	15
0	1279	698.355859176957	16
0	1285	702.849402162643	16
0	1287	704.409239739331	17
0	1289	704.692690279753	18
0	1291	704.739452566118	19
0	1295	707.905358701927	20
0	1297	710.03192640148	21
0	1305	712.70922565292	22
0	1307	713.076726737827	23
0	1309	713.683544790898	24
0	1311	714.188642735638	25
0	1316	716.87856360395	26
0	1318	722.941946326492	27
0	1320	725.858195671726	28
0	1323	726.323521721763	29
0	1327	728.582607182085	30
0	1331	731.219769582382	31
0	1335	736.094485831956	32
0	1338	744.483787465515	33
0	1340	745.663587230221	34
0	1346	748.493418076044	35
0	1348	749.307119966186	36
0	1350	749.443115021271	37
0	1352	752.06961684204	38
0	1355	756.586900551649	39
0	1357	756.770250201946	40
0	1362	760.481983350192	41
0	1364	762.939367995597	42
0	1366	764.2395399304	43
0	1370	765.282836184096	44
0	1376	770.450606677162	45
0	1378	772.170723750603	46
0	1380	772.800358899696	47
0	1382	773.360563889616	48
0	1384	776.704172157936	49
0	1386	777.296469038437	50
0	1388	778.791743441834	51
0	1390	779.510998819281	52
0	1392	779.676109566927	53
0	1394	779.695485275231	54
0	1396	780.515271710035	55
0	1398	781.022107767747	56
0	1400	781.58982313902	57
0	1406	782.594313931113	58
0	1408	783.210863045869	59
0	1410	783.380070460549	60
0	1415	786.69973676569	61
0	1417	786.761936640728	62
0	1419	790.54738885084	63
0	1421	793.834183878757	64
0	1423	797.753482058154	65
0	1425	798.60945236225	66
0	1427	799.00907527848	67
0	1429	799.014833586145	68
0	1431	799.28640119675	69
0	1435	803.5893427734	70
0	1437	803.722143798987	71
0	1440	804.56577883164	72
0	1442	806.591384694864	73
0	1445	807.649431814926	74
0	1447	808.122014857806	75
0	1455	816.707643046346	76
0	1457	817.206777140209	77
0	1460	817.945501446035	78
0	1464	819.081960851567	79
0	1466	822.550658959617	80
0	1469	823.023579587004	81
0	1471	824.691544541797	82
0	1473	825.258357965122	83
0	1475	826.943302919618	84
0	1478	828.641904136383	85
0	1480	829.11924058947	86
0	1482	829.24816579418	87
0	1487	830.281137287144	88
0	1489	830.698847410903	89
0	1491	833.036507104877	90
0	1493	834.212957104151	91
0	1496	836.134977297824	92
0	1498	837.278415119649	93
0	1500	842.063832191673	94
0	1502	843.002522067162	95
0	1504	843.068179656341	96
0	1506	843.122431724203	97
0	1510	843.575291501309	98
0	1512	844.080127413779	99
0	1514	845.258509275225	100
0	1516	846.18772118012	101
0	1524	856.730633558454	102
0	1526	858.468758324561	103
0	1528	858.487685160369	104
0	1530	859.38537843304	105
0	1532	859.451046410436	106
0	1534	859.753939800496	107
0	1538	861.846156434053	108
0	1542	863.453656140539	109
0	1545	867.239951620856	110
0	1547	867.924562002225	111
0	1549	870.173392572719	112
0	1553	871.404947778483	113
0	1555	872.632622581896	114
0	1557	875.723427971786	115
0	1560	876.114861181858	116
0	1570	882.871428572152	117
0	1572	884.139010423502	118
0	1576	891.350486397197	119
0	1578	891.961673061941	120
0	1580	895.367636829999	121
0	1582	898.870155284372	122
0	1584	898.89257574099	123
0	1586	901.420531632186	124
0	1588	901.511903326366	125
0	1591	904.097261331948	126
0	1593	908.815591317906	127
0	1595	910.050542499786	128
0	1597	911.713522912744	129
0	1599	914.383389121411	130
0	1603	917.405474188764	131
0	1605	920.267436575876	132
0	1607	922.255449344682	133
0	1609	922.625664813708	134
0	1611	922.747476695763	135
0	1613	923.719442316487	136
0	1615	924.996047318231	137
0	1617	926.772290538857	138
0	1619	927.391852089135	139
0	1622	929.525440619925	140
0	1624	931.309812739169	141
0	1627	932.879307262555	142
0	1631	935.031933218144	143
0	1633	936.23262265182	144
0	1635	937.750155597184	145
0	1638	939.256602299267	146
0	1641	941.25243248415	147
0	1643	941.514236181333	148
0	1647	942.200800131225	147
0	1652	942.964258322558	145
0	1654	944.564226605401	146
0	1658	948.040660930583	145
0	1663	953.329254048457	146
0	1666	953.780406122862	146
0	1671	957.744417678243	146
0	1673	959.142013540216	147
0	1677	961.77972141292	147
0	1680	962.700042520178	147
0	1684	963.444396628907	146
0	1694	967.228307616195	139
0	1696	967.859852084283	140
0	1698	968.026916599265	141
0	1700	970.086000143666	142
0	1702	970.1257171187	143
0	1711	974.018632549601	137
0	1717	977.586871779992	134
0	1720	980.86032085953	134
0	1722	982.620651832837	135
0	1724	983.265666823851	136
0	1728	986.973279004874	137
0	1734	988.97362247933	137
0	1736	991.367866597751	138
0	1738	992.765151355657	139
0	1740	994.77158091468	140
0	1743	996.795264524759	141
0	1747	998.602655439146	140
0	1751	1000.605861364708	139
0	1753	1000.962676650804	140
0	1755	1001.067120086593	141
0	1757	1002.232077284693	142
0	1759	1003.292592390549	143
0	1761	1003.809646431376	144
0	1764	1005.923808536196	144
0	1767	1007.964772372976	144
0	1776	1011.213056779961	140
0	1781	1017.753057947908	139
0	1783	1018.895484415905	140
0	1785	1020.388929303623	141
0	1787	1020.958985062213	142
0	1791	1021.641080458385	141
0	1795	1023.763921365755	140
0	1803	1030.278165066678	135
0	1805	1030.933717381472	136
0	1809	1032.842770190402	135
0	1811	1033.02145600149	136
0	1816	1035.061350713934	134
0	1820	1038.274722524826	135
0	1824	1040.114634006632	135
0	1828	1040.954910867604	134
0	1832	1042.25611359695	133
0	1835	1043.630080705832	133
0	1837	1045.26542336624	134
0	1842	1046.592993293069	134
0	1844	1047.244591185221	135
0	1846	1049.561028747291	136
0	1848	1049.572053044016	137
0	1852	1053.583376100829	137
0	1854	1054.610795577082	138
0	1857	1055.747757166106	138
0	1860	1056.517559295552	138
0	1863	1056.924961830355	138
0	1865	1057.857330107147	139
0	1870	1061.869228952783	139
0	1872	1063.193267621271	140
0	1877	1064.362006589848	139
0	1880	1064.428765834131	139
0	1882	1064.711519867119	140
0	1886	1066.241237571831	139
0	1890	1072.17493748514	138
0	1894	1074.475117621467	137
0	1900	1078.245929789075	134
0	1906	1080.23579716573	131
0	1908	1080.927893568199	132
0	1910	1081.232075228262	133
0	1912	1081.446270222799	134
0	1914	1082.276775205825	135
0	1918	1084.012996065266	134
0	1920	1084.191058081603	135
0	1922	1084.343697950863	136
0	1926	1084.926346613197	137
0	1928	1086.061782712164	138
0	1930	1086.31091232321	139
0	1935	1087.989822354896	138
0	1941	1089.356665674059	138
0	1945	1093.843716007222	139
0	1947	1094.301355291365	140
0	1949	1094.402564698527	141
0	1952	1095.758061748589	142
0	1954	1097.067116755991	143
0	1959	1098.236859517143	143
0	1961	1100.081043222075	144
0	1965	1100.827440644762	145
0	1968	1101.655251906352	146
0	1970	1103.304193914242	147
0	1975	1107.825579208093	148
0	1979	1109.26625079566	149
0	1981	1109.487704283713	150
0	1983	1110.663598881812	151
0	1985	1111.988616960493	152
0	1987	1112.10494944169	153
0	1989	1115.099640791064	154
0	1992	1115.53651600708	155
0	1994	1116.016431293845	156
0	1996	1118.114384139068	157
0	1998	1119.146977643027	158
0	2005	1122.104451875232	155
0	2007	1122.717845683241	156
0	2010	1123.779564667361	156
0	2013	1125.734856736379	156
0	2015	1125.848956860597	157
0	2018	1126.893067322182	157
0	2020	1127.25673817262	158
0	2023	1128.37427823842	158
0	2031	1136.115112393622	153
0	2033	1136.354300832541	154
0	2035	1136.74010873044	155
0	2037	1137.786221979441	156
0	2041	1139.707275135478	155
0	2043	1139.777266323701	156
0	2057	1147.719378152737	150
0	2059	1148.214697393471	151
0	2063	1149.38418121248	151
0	2067	1151.005587842305	150
0	2069	1151.018666654243	151
0	2071	1151.769378562933	152
0	2075	1153.674921578361	151
0	2077	1154.315676737198	152
0	2079	1155.682432343943	153
0	2081	1156.016498031018	154
0	2086	1157.028129507593	152
0	2089	1158.752061748883	152
0	2091	1159.147267848089	153
0	2094	1160.016446687897	153
0	2100	1163.485685441119	152
0	2102	1166.236400864389	153
0	2104	1166.4508965085	154
0	2106	1166.556751039097	155
0	2108	1167.497516209928	156
0	2112	1170.501134227802	157
0	2115	1172.598468427888	158
0	2120	1175.406893391068	157
0	2136	1185.557610127554	148
0	2138	1187.983841577302	149
0	2140	1189.004600299793	150
0	2142	1189.172761654858	151
0	2144	1189.923878059539	152
0	2147	1191.388632468959	153
0	2152	1195.117236845054	154
0	2154	1195.897307938984	155
0	2156	1197.795269058795	156
0	2158	1198.007263529266	157
0	2160	1201.804207339181	158
0	2162	1202.063883645877	159
0	2165	1204.436242957081	160
0	2168	1204.674924903622	160
0	2170	1205.042192947447	161
0	2172	1205.516102298509	162
0	2175	1206.333016095823	162
0	2179	1206.78150367487	161
0	2185	1210.479258106534	160
0	2187	1213.252946900284	161
0	2189	1213.465411183437	162
0	2191	1215.02282064852	163
0	2193	1217.368805847451	164
0	2196	1218.625946607399	165
0	2200	1219.954503851947	166
0	2202	1220.490643980146	167
0	2206	1223.385496480168	167
0	2210	1224.697393130538	168
0	2212	1225.026117230415	169
0	2217	1226.398020860967	168
0	2220	1227.402738965549	168
0	2223	1229.331654564646	168
0	2228	1230.372102971571	166
0	2235	1237.752077706218	162
0	2237	1237.765643395187	163
0	2239	1238.885218956109	164
0	2246	1241.239451202368	160
0	2252	1243.416887395756	157
0	2254	1244.191481157846	158
0	2256	1245.099614834086	159
0	2262	1248.810828604866	156
0	2267	1251.545121724325	154
0	2269	1252.135568940301	155
0	2271	1252.821870803515	156
0	2276	1255.749283835561	154
0	2278	1256.452156351763	155
0	2280	1256.737823697944	156
0	2284	1257.174961030337	157
0	2286	1260.187017839135	158
0	2291	1265.527148882549	159
0	2293	1266.275251403617	160
0	2295	1267.669306220147	161
0	2297	1269.659335896213	162
0	2304	1274.245591961561	162
0	2306	1275.477171496957	163
0	2312	1278.702375118646	162
0	2314	1279.335608398653	163
0	2319	1281.032580365507	164
0	2323	1282.939103381942	165
0	2325	1283.937830774371	166
0	2327	1284.657242336857	167
0	2333	1296.935655225023	168
0	2335	1296.941935689288	169
0	2337	1297.555543143468	170
0	2339	1298.04384932723	171
0	2341	1298.901703699515	172
0	2343	1298.939234200584	173
0	2345	1300.361870727337	174
0	2359	1309.774923016265	175
0	2361	1310.841966988047	176
0	2363	1311.084709062087	177
0	2365	1311.179651542573	178
0	2367	1312.563548783783	179
0	2369	1312.96105222407	180
0	2371	1313.722828477643	181
0	2373	1314.424357485157	182
0	2375	1319.053518063051	183
0	2377	1322.220880441525	184
0	2380	1323.735313042791	185
0	2383	1325.838226409206	185
0	2389	1328.984603248003	182
0	2393	1331.138095286272	181
0	2396	1331.349732832761	181
0	2401	1334.277731602801	179
0	2403	1334.692559372049	180
0	2406	1335.476641407516	180
0	2415	1338.567597017289	174
0	2430	1350.86629690113	165
0	2434	1352.241211647073	164
0	2436	1353.349011077761	165
0	2440	1353.646032069876	166
0	2442	1353.91693546428	167
0	2444	1356.203424177205	168
0	2446	1358.950534900893	169
0	2448	1359.529739073577	170
0	2450	1360.372405606047	171
0	2453	1361.834034872879	172
0	2456	1363.93073164538	172
0	2458	1365.572213429028	173
0	2460	1365.701361961398	174
0	2464	1367.263134662109	173
0	2467	1367.548567168563	173
0	2469	1368.165800034991	174
0	2473	1369.76991931052	175
0	2475	1369.911446626179	176
0	2480	1375.234858687119	177
0	2485	1376.824770125697	178
0	2487	1377.74620152222	179
0	2498	1382.540080367427	178
0	2500	1383.209887561985	179
0	2502	1384.946471186132	180
0	2504	1386.421616372761	181
0	2506	1390.805167144422	182
0	2508	1393.395725026822	183
0	2510	1393.632044870462	184
0	2512	1395.691209992187	185
0	2516	1397.089983757408	186
0	2518	1397.713891066458	187
0	2522	1400.853842580105	188
0	2524	1401.253343713388	189
0	2526	1402.792982371912	190
0	2529	1407.382762860633	191
0	2533	1411.84196546752	192
0	2536	1415.520006258872	193
0	2539	1418.569694647997	194
0	2541	1420.336340385223	195
0	2543	1421.56627388021	196
0	2545	1422.706690541425	197
0	2550	1425.056772154178	198
0	2552	1427.65547371891	199
0	2554	1427.674992688844	200
0	2556	1427.78826347014	201
0	2558	1428.649487470532	202
0	2560	1430.304264411636	203
0	2562	1430.510461234084	204
0	2564	1431.099954001823	205
0	2566	1433.052021606095	206
0	2568	1433.184156086291	207
0	2570	1433.991220429157	208
0	2573	1435.842568711429	209
0	2575	1435.992689363652	210
0	2579	1440.095365012102	211
0	2581	1440.347245054267	212
0	2583	1440.453925248483	213
0	2586	1443.892577848632	214
0	2588	1445.707630882201	215
0	2590	1447.696585335376	216
0	2592	1448.602594612758	217
0	2596	1453.293881054575	218
0	2600	1456.903753334471	219
0	2604	1458.853041995688	219
0	2611	1462.633717087846	215
0	2613	1463.004296892661	216
0	2616	1464.608370923989	216
0	2621	1470.682026329981	216
0	2623	1471.422537027242	217
0	2625	1471.520715136257	218
0	2627	1472.590417819541	219
0	2629	1472.831531825189	220
0	2631	1474.448163485041	221
0	2637	1476.707687517413	222
0	2640	1482.992862502791	223
0	2642	1483.493445292964	224
0	2644	1483.584942827202	225
0	2646	1484.368565104248	226
0	2648	1484.621565487045	227
0	2650	1484.879974712173	228
0	2652	1485.078526709273	229
0	2654	1486.83423595915	230
0	2663	1496.378484739874	226
0	2668	1498.675644029425	224
0	2677	1501.670577062567	218
0	2679	1502.009729524491	219
0	2684	1502.673752227845	219
0	2686	1505.37022741846	220
0	2688	1506.143115420099	221
0	2692	1507.518181275317	222
0	2694	1510.135508835373	223
0	2696	1511.897176679731	224
0	2698	1516.544994978946	225
0	2700	1516.670944868768	226
0	2705	1518.105072418133	227
0	2709	1520.025446115327	228
0	2711	1520.451723565183	229
0	2713	1522.589850926365	230
0	2715	1523.601135516167	231
0	2717	1527.517495798664	232
0	2720	1529.541073938984	233
0	2727	1531.225831333458	231
0	2733	1535.079825025876	228
0	2739	1539.777450189296	225
0	2742	1540.402987807245	225
0	2749	1543.988537710523	223
0	2751	1549.968162800489	224
0	2753	1551.644716835932	225
0	2755	1552.407702118545	226
0	2757	1556.161313268704	227
0	2762	1557.096200252435	226
0	2764	1557.149014983802	227
0	2770	1560.307919928501	224
0	2779	1563.710873079324	220
0	2781	1566.101033780025	221
0	2788	1572.605227006983	218
0	2790	1572.65806561447	219
0	2793	1573.120794314048	219
0	2798	1576.812658142333	217
0	2801	1578.500765027239	217
0	2808	1582.159128221757	213
0	2819	1588.338193821987	208
0	2821	1588.359173912924	209
0	2823	1588.901348052718	210
0	2829	1592.185751276485	209
0	2831	1593.469202104776	210
0	2833	1593.690430151986	211
0	2835	1593.849193201544	212
0	2837	1596.021147977273	213
0	2839	1596.634308072124	214
0	2841	1598.085069185319	215
0	2845	1600.337745962438	216
0	2847	1600.513205443848	217
0	2849	1600.655931290064	218
0	2853	1603.097024330956	219
0	2859	1606.381637341742	220
0	2863	1609.051885467807	221
0	2866	1611.496626816065	222
0	2868	1611.660847202092	223
0	2873	1614.4871110826	224
0	2875	1618.428361533525	225
0	2877	1618.464804889876	226
0	2879	1618.48458241078	227
0	2881	1618.67106647288	228
0	2883	1620.070230161296	229
0	2885	1621.802902093425	230
0	2889	1624.702973880304	231
0	2891	1626.201530135903	232
0	2895	1628.632569842195	233
0	2897	1635.658290068407	234
0	2902	1648.29236007607	235
0	2904	1649.62314986296	236
0	2910	1651.974692084769	237
0	2912	1658.272732230031	238
0	2914	1659.620764100576	239
0	2916	1659.894843815377	240
0	2920	1661.529815655959	241
0	2922	1662.463231934466	242
0	2924	1663.165005799135	243
0	2927	1667.426274148677	244
0	2929	1667.56273707657	245
0	2934	1671.609627659138	246
0	2938	1676.509183149027	247
0	2942	1683.603122714464	248
0	2946	1684.827159943257	249
0	2948	1688.97885047785	250
0	2950	1689.342605327287	251
0	2952	1689.55925646784	252
0	2954	1693.811029072213	253
0	2958	1696.33417201835	254
0	2961	1698.095864635978	255
0	2963	1698.717883892732	256
0	2965	1698.994593707449	257
0	2967	1699.546837883161	258
0	2969	1700.441751115647	259
0	2972	1701.576636425483	260
0	2978	1708.888092105866	261
0	2982	1712.164124700485	262
0	2984	1712.618501836141	263
0	2986	1712.686281596253	264
0	2990	1715.046914206044	265
0	2992	1715.650981019714	266
0	2994	1715.744857708363	267
0	2998	1716.385563190003	268
0	3000	1717.17645500248	269
0	3002	1718.090717201318	270
0	3004	1718.111303849165	271
0	3007	1720.39557716226	272
0	3009	1721.941601471996	273
0	3011	1724.295889405058	274
0	3015	1734.235220431717	275
0	3017	1734.286864281082	276
0	3019	1734.655406275403	277
0	3021	1736.437889779835	278
0	3029	1739.395346094634	274
0	3031	1739.480593054797	275
0	3041	1744.178865325622	268
0	3046	1744.69858710745	266
0	3051	1746.063792385288	264
0	3057	1751.252044477546	261
0	3062	1753.40199681228	261
0	3064	1755.798680100314	262
0	3066	1757.135180790977	263
0	3068	1758.38633078517	264
0	3070	1758.782623771842	265
0	3073	1760.123250863115	266
0	3079	1761.995003813367	263
0	3081	1763.987188930252	264
0	3085	1764.422372737416	265
0	3087	1767.811090804713	266
0	3090	1775.850665683982	267
0	3092	1776.384745180012	268
0	3095	1776.989988517842	268
0	3099	1779.949912493532	267
0	3106	1782.163822257592	263
0	3111	1783.786052434	264
0	3113	1784.46437524533	265
0	3115	1785.730422159286	266
0	3119	1787.439490025394	265
0	3121	1787.99215530012	266
0	3123	1788.269967455441	267
0	3125	1788.324604793728	268
0	3127	1789.068567533296	269
0	3132	1789.482746423478	267
0	3134	1789.556369309598	268
0	3136	1789.564551390825	269
0	3138	1789.781921229556	270
0	3141	1790.35609232183	270
0	3144	1791.804713188239	270
0	3148	1793.979635065187	269
0	3152	1795.730264492542	268
0	3159	1799.004751972684	266
0	3161	1799.011018610538	267
0	3163	1806.540590350121	268
0	3165	1806.902332948619	269
0	3169	1812.782354450075	270
0	3172	1817.84057095029	271
0	3179	1822.687901794761	272
0	3181	1822.878727652452	273
0	3183	1823.884394480366	274
0	3186	1830.146200649088	275
0	3188	1830.992356648278	276
0	3194	1840.110080258752	277
0	3196	1842.202829213372	278
0	3198	1842.436843892073	279
0	3206	1846.177640853046	280
0	3210	1850.680766510607	281
0	3212	1851.57582809468	282
0	3214	1852.447424079828	283
0	3219	1859.054569936142	284
0	3221	1861.592218065076	285
0	3223	1862.835955155613	286
0	3225	1864.827336875034	287
0	3230	1867.318081355456	288
0	3232	1868.320211592982	289
0	3234	1870.37774661952	290
0	3245	1876.7850148344	291
0	3247	1876.93160992606	292
0	3251	1877.852849124886	292
0	3253	1877.887599876321	293
0	3259	1880.267232770348	294
0	3261	1880.758390500578	295
0	3267	1883.058157794623	296
0	3269	1884.159093638325	297
0	3273	1890.701196202933	298
0	3276	1891.250809048825	299
0	3280	1894.107422282545	299
0	3284	1897.562053161619	298
0	3292	1899.789160786039	293
0	3295	1901.323145458467	293
0	3303	1906.486510416534	291
0	3306	1909.499362704093	291
0	3312	1912.173000113376	288
0	3314	1913.056846585202	289
0	3321	1918.729736662626	288
0	3334	1926.683791945982	284
0	3336	1928.006717118119	285
0	3342	1933.873083052737	284
0	3344	1934.98003025594	285
0	3347	1937.842140168594	286
0	3350	1939.885220337704	286
0	3358	1943.90321145502	284
0	3362	1944.742512784837	283
0	3367	1947.657059163938	281
0	3369	1948.771599467286	282
0	3371	1948.892045865791	283
0	3377	1951.680727912306	280
0	3385	1955.125897495886	277
0	3387	1955.38390646614	278
0	3389	1956.892618372873	279
0	3391	1957.960103962803	280
0	3393	1958.323798316542	281
0	3395	1960.737433324036	282
0	3397	1963.685577747143	283
0	3399	1965.087788308147	284
0	3405	1966.78397574434	282
0	3409	1967.96294098628	281
0	3415	1974.105400761121	278
0	3418	1974.690304599347	278
0	3423	1976.826493382784	278
0	3425	1976.842999309432	279
0	3429	1978.020127057899	280
0	3431	1980.346571282237	281
0	3435	1981.039590843561	282
0	3437	1983.456563519206	283
0	3441	1985.536183152405	284
0	3443	1988.923700206515	285
0	3445	1989.575617565939	286
0	3450	1992.015563350329	287
0	3452	1994.961316623893	288
0	3456	1996.489119760914	289
0	3458	1996.776932936698	290
0	3460	1997.140827311738	291
0	3462	1997.506329613737	292
0	3465	1999.123738341925	293
0	3467	1999.84088561511	294
1	0	0	0
1	2	1.047440218537	0
1	3	1.336354541463	0
1	5	3.113135442449	0
1	7	3.227050985249	1
1	9	3.465002631759	2
1	10	4.254361099599	2
1	11	4.301553153556	1
1	12	4.688648114755	0
1	17	6.572393033866	0
1	18	7.70192724637	0
1	20	9.014158349441	0
1	21	9.183002349416	0
1	23	9.691562316881	0
1	24	9.736004905342	0
1	26	10.004977916162	0
1	27	10.922687760409	0
1	29	11.201927180137	0
1	30	11.325704811874	0
1	32	12.966737678057	0
1	34	13.691296944251	1
1	36	13.979222031648	2
1	38	15.474004438679	3
1	39	15.548484428207	3
1	41	15.850145318881	3
1	42	16.474486384582	3
1	44	17.805478964126	3
1	45	18.025016029241	3
1	46	18.236886683939	2
1	47	19.680093314123	1
1	51	22.667111004026	1
1	53	24.498936531589	1
1	55	25.666265249721	1
1	56	25.712872132777	1
1	58	25.881444210025	1
1	60	28.199708520786	2
1	61	28.207197158735	2
1	63	29.586273475495	2
1	64	30.002597979065	2
1	65	30.545224061108	1
1	66	32.164600661115	0
1	68	37.506480958512	0
1	69	37.910337142387	0
1	71	38.991029971799	0
1	72	39.18829714056	0
1	74	40.827696043866	0
1	75	41.160422392467	0
1	77	44.53145843585	0
1	78	45.148255967946	0
1	80	47.895137196993	0
1	81	48.101278937586	0
1	83	48.951323442805	0
1	84	50.144943870685	0
1	88	51.417750145001	0
1	90	52.079093014492	1
1	92	52.134934754563	2
1	94	52.668333321903	3
1	99	56.546999640731	3
1	101	57.360722261327	3
1	103	58.38813171643	4
1	104	58.616305742271	4
1	105	59.272482180597	3
1	107	59.583459735117	3
1	108	59.992461786323	3
1	109	60.064516989628	2
1	110	60.337863408323	1
1	111	61.558584268958	0
1	113	65.633374160364	0
1	114	65.670914339629	0
1	116	65.886598414221	0
1	120	67.031622732115	0
1	122	69.868028730008	0
1	123	70.010445066361	0
1	125	73.475290085053	0
1	126	74.842889720569	0
1	128	76.835292151127	0
1	130	77.287207737491	1
1	131	77.339061183627	1
1	132	77.846912559711	0
1	134	78.390411366597	0
1	136	78.773223164392	1
1	137	79.677672094124	1
1	138	80.614743410714	0
1	140	80.894794844966	0
1	145	82.087369728611	1
1	146	82.553194092597	1
1	148	83.792452352236	1
1	149	83.85682698541	1
1	150	85.007983862631	0
1	152	86.008534210348	0
1	153	86.556297091279	0
1	155	88.288761456731	0
1	156	89.127878735713	0
1	161	94.600521804672	0
1	163	95.073855615949	1
1	164	95.101245650943	1
1	165	95.65056384096	0
1	167	98.657373583967	0
1	168	98.921628982694	0
1	173	100.38784436138	0
1	174	100.669961999353	0
1	178	101.807657913324	0
1	180	103.591350565065	0
1	182	103.723805041991	0
1	183	104.918953572404	0
1	185	105.712436886302	0
1	187	106.081897324095	1
1	188	106.179279747954	1
1	189	106.295430293377	0
1	197	109.685937447576	0
1	201	110.570438169264	1
1	203	111.756432531214	2
1	205	111.957025010351	3
1	207	114.830436658214	4
1	212	116.355428146645	5
1	214	118.381704693385	6
1	216	119.049176983938	7
1	218	119.94893874886	8
1	220	122.810994631052	9
1	222	122.840358227939	10
1	226	127.874604487857	11
1	228	129.436310685498	12
1	230	131.682468949475	13
1	234	132.448376188178	14
1	235	132.930795053964	14
1	236	134.132708616829	13
1	237	134.238103988721	12
1	239	135.947017933958	12
1	241	136.260302974277	13
1	248	143.950811374093	14
1	251	145.542908163038	15
1	253	145.712631730302	16
1	255	146.127864370525	17
1	256	146.41998090901	17
1	257	146.50684458356	16
1	258	146.900580280902	15
1	259	147.035511449504	14
1	260	147.116386756284	13
1	261	147.506310551385	12
1	263	147.610383413699	12
1	264	148.297916532096	12
1	266	148.628642464939	12
1	268	149.208773441076	13
1	269	149.327732398007	13
1	273	149.757747676156	13
1	278	152.234695156924	14
1	280	152.309382203096	15
1	282	152.431952212408	16
1	284	154.113135216478	17
1	286	155.811277678038	18
1	288	157.389820807984	18
1	289	157.719717028677	17
1	290	158.995660674659	16
1	291	160.347885153296	15
1	292	160.563510665636	14
1	294	160.93307754696	14
1	295	161.436322095267	14
1	296	162.073304348276	13
1	300	164.228295423927	13
1	302	164.622894001598	14
1	304	165.966780511582	15
1	306	168.395349874653	16
1	308	168.950791961963	17
1	311	171.496814734768	18
1	312	171.925954517041	18
1	314	172.818105211472	18
1	316	172.881218694902	19
1	318	172.882010103122	20
1	319	173.483460609271	20
1	325	174.630510519137	20
1	330	176.03610413217	21
1	333	178.428626659238	22
1	335	179.425443137595	22
1	336	179.671455819593	21
1	338	181.180228827371	21
1	340	185.992866507506	22
1	342	186.603415177741	23
1	343	186.961857030348	23
1	344	188.424040707142	22
1	345	188.849640351029	21
1	346	191.255995942463	20
1	347	192.534335460237	19
1	349	193.407690474126	19
1	351	194.153352316937	20
1	352	194.60328321061	20
1	353	195.040112642518	19
1	354	196.021629292427	18
1	355	196.126698654983	17
1	356	196.744152820976	16
1	358	197.765834294158	16
1	359	197.924763820059	16
1	360	198.205003869032	15
1	361	199.000970944766	14
1	362	199.333180764995	13
1	363	199.796119278739	12
1	364	201.546438208042	11
1	365	201.602986778084	10
1	366	202.090674915525	9
1	367	204.165102908613	8
1	368	205.785035670124	7
1	369	205.939083531443	6
1	370	206.029139082697	5
1	371	206.357742920675	4
1	373	206.742590647931	4
1	374	206.893333080664	4
1	375	207.63812971394	3
1	376	208.660749584594	2
1	380	212.77942075953	2
1	382	213.441011498226	3
1	384	214.852769404219	4
1	386	215.214084437028	5
1	388	215.646664565552	6
1	390	218.61677754343	6
1	392	220.164126611097	6
1	393	220.250414643977	6
1	395	220.308504168361	6
1	396	221.172866676152	6
1	397	221.636856292406	5
1	399	222.268466759823	5
1	403	224.212170565177	5
1	404	224.544285193281	4
1	405	224.725666890519	3
1	406	225.049331957706	2
1	407	226.01913941719	1
1	408	226.211387741479	0
1	410	227.470332413249	0
1	411	227.640275403917	0
1	413	228.751561679018	0
1	414	229.378291718269	0
1	416	229.74450819159	0
1	418	230.121120058357	1
1	419	230.83452278261	1
1	420	231.020365996207	0
1	422	231.170194209632	0
1	423	234.031543714585	0
1	425	234.352842404161	0
1	427	234.727683598592	1
1	428	235.110597973884	1
1	429	236.254170459801	0
1	431	236.608797508262	0
1	433	236.892720059736	1
1	435	237.258938171404	2
1	436	238.147654199821	2
1	438	238.685558710321	2
1	440	238.790445804277	3
1	442	239.623732949895	4
1	443	240.135302574978	4
1	444	240.424394944207	3
1	448	240.848268647783	3
1	450	242.069264097734	4
1	453	242.866524790272	5
1	455	242.966168232701	6
1	456	243.13428509254	6
1	458	243.989817384436	6
1	460	244.58285916036	7
1	462	244.658654160068	8
1	463	244.823526706446	8
1	464	247.238656829982	7
1	465	247.319734430188	6
1	466	249.090209251051	5
1	467	249.242335580846	4
1	468	249.269806521954	3
1	470	249.737640967389	3
1	471	249.920088819758	3
1	472	250.195773477829	2
1	473	250.836578213033	1
1	474	251.146269809688	0
1	476	258.179626024668	0
1	478	258.36463242463	1
1	479	258.591729337211	1
1	481	258.915280508703	1
1	482	259.070106182609	1
1	483	259.928696101217	0
1	485	260.814028936309	0
1	487	261.168183028701	1
1	488	261.46651738177	1
1	489	263.195060931377	0
1	491	263.951432320077	0
1	492	264.339183887178	0
1	494	264.686589174852	0
1	496	265.949724713228	1
1	498	266.136501167051	2
1	499	266.162539427121	2
1	500	266.737115092472	1
1	501	266.874842842532	0
1	503	268.143702401102	0
1	507	269.037488114896	1
1	509	270.15719374613	2
1	511	270.174436170163	3
1	521	276.521404438522	4
1	523	280.183328485014	5
1	525	284.421471320758	6
1	527	284.994322913185	7
1	529	285.245905738183	8
1	532	290.294340740627	9
1	534	290.455566856911	10
1	536	292.593034734858	11
1	538	297.103304649718	12
1	540	297.544507690763	13
1	542	297.568819138669	14
1	544	297.983881383837	15
1	546	299.317580489157	15
1	547	299.459318697593	14
1	548	299.959617406203	13
1	549	300.668478221317	12
1	551	300.72269914542	12
1	553	300.860645602068	13
1	555	301.147744796466	14
1	556	301.531851288344	14
1	557	302.88831203607	13
1	558	303.363319265809	12
1	559	306.826638403532	11
1	560	307.054413534764	10
1	561	308.189504228894	9
1	562	308.642408746092	8
1	563	310.15174239822	7
1	564	311.36584209629	6
1	565	312.72447809812	5
1	566	314.061095604609	4
1	568	314.355962344536	4
1	570	314.675720013087	5
1	572	314.973474948707	6
1	573	315.526479916048	6
1	575	316.190020308271	6
1	576	316.674029859756	6
1	577	316.921684466656	5
1	578	317.027277211899	4
1	579	317.568833551843	3
1	580	317.777638065585	2
1	582	317.882402459026	2
1	583	319.183012761597	2
1	584	319.906620684194	1
1	586	321.354978308316	1
1	592	325.382210642372	2
1	595	326.409524602904	3
1	597	326.760540986403	4
1	599	328.878168737012	4
1	601	328.909508923058	4
1	603	329.039964253165	5
1	604	329.645895893878	5
1	606	330.007573039536	5
1	608	330.056600851779	6
1	612	335.440763734274	7
1	617	338.845650689283	8
1	619	339.150570024074	9
1	621	339.385713598091	10
1	623	341.249810807701	10
1	624	341.770992059526	9
1	625	341.984257139687	8
1	627	343.413459563054	8
1	628	344.716798244336	8
1	630	345.147604586405	8
1	634	346.506760484259	9
1	636	347.143809485003	10
1	638	347.429416713369	11
1	640	351.637349323178	11
1	641	352.547000844407	10
1	647	353.786550366066	10
1	650	356.615267826418	10
1	651	357.363056578384	9
1	652	357.807837260168	8
1	654	357.966507727057	8
1	661	360.040385009165	9
1	663	360.279564783872	10
1	666	362.683453579788	11
1	670	364.169190410019	12
1	672	364.221800008413	13
1	674	364.889647759505	14
1	676	370.352675197382	15
1	680	370.752620210252	16
1	682	372.323146872927	17
1	685	374.520564239603	18
1	687	375.871214717376	19
1	689	377.337672336664	20
1	691	378.740079698349	20
1	692	379.310873551077	19
1	693	379.459373906252	18
1	697	380.488403810424	18
1	699	381.172262897344	19
1	701	381.955481599167	20
1	703	384.436539087268	21
1	707	386.031722777251	22
1	716	392.782428264611	23
1	718	394.66379532013	24
1	720	394.672261953512	25
1	723	395.023316424196	26
1	725	395.514593414652	27
1	727	395.815327038259	28
1	729	397.052388658177	29
1	731	397.860690972048	30
1	733	403.070936386709	31
1	735	404.109687844298	32
1	737	405.145162947428	33
1	739	406.403816897718	34
1	741	411.100524053322	35
1	743	412.115100716738	36
1	747	416.941941275629	37
1	750	418.587968909768	38
1	751	419.186840683698	38
1	753	419.807417882989	38
1	754	419.899802415618	38
1	756	420.518227522204	38
1	757	420.560834759754	38
1	758	422.017701073705	37
1	759	422.106527159257	36
1	760	422.266885003398	35
1	761	422.539639317402	34
1	762	422.724979737391	33
1	764	423.273756052885	33
1	766	423.296520209754	34
1	767	423.55221722516	34
1	769	423.864812728343	34
1	770	424.039452980749	34
1	772	424.734854929052	34
1	773	424.797035810121	34
1	774	425.424654603944	33
1	778	427.608136589077	33
1	780	430.17712759561	34
1	784	433.473422934441	35
1	788	437.206978799576	36
1	795	444.245415986065	37
1	797	447.777853920531	38
1	799	450.896613619568	39
1	802	454.21508198335	40
1	804	456.154365220673	41
1	808	456.772816939198	42
1	810	456.873949968257	43
1	812	457.688499171375	44
1	815	459.516049204936	45
1	818	461.956361972481	46
1	820	462.554562550972	47
1	822	462.704264645649	48
1	824	463.666513490737	49
1	826	463.773710490433	50
1	829	465.581346286599	51
1	833	467.373180086745	52
1	835	467.960764899844	53
1	841	471.429503025288	53
1	842	471.561968788389	52
1	843	471.826862275913	51
1	844	471.887536744069	50
1	845	472.288891720406	49
1	846	472.799795321651	48
1	850	474.229553363999	48
1	852	474.230406875991	49
1	854	475.717134367957	49
1	856	476.177440756339	49
1	858	476.637796851959	50
1	859	476.752970216103	50
1	860	477.157574673686	49
1	862	477.279534751931	49
1	863	477.592786597245	49
1	864	477.648502901137	48
1	865	478.097356470653	47
1	867	478.223726442085	47
1	868	478.505991473827	47
1	869	478.895274802716	46
1	870	479.023493695025	45
1	871	479.209954835863	44
1	873	480.118261179674	44
1	874	480.28741303506	44
1	878	481.503185670383	44
1	880	483.626001743198	45
1	882	484.775765427889	46
1	884	486.006713874668	47
1	886	487.109011547765	48
1	888	491.538291633917	49
1	891	492.227790798027	50
1	893	492.458730916177	51
1	894	492.7026053453	51
1	895	493.530459768848	50
1	896	493.862409245778	49
1	898	494.711505559487	49
1	900	494.882663790832	50
1	901	495.070123663212	50
1	902	495.26031870947	49
1	904	496.662876655073	49
1	905	496.915115265714	49
1	906	497.174581726353	48
1	908	497.579647694258	48
1	909	497.594768997274	48
1	910	499.587442437332	47
1	911	501.015411827184	46
1	912	501.11031411018	45
1	914	501.408541767379	45
1	915	501.512349362652	45
1	916	503.174459054593	44
1	917	504.416583010328	43
1	918	504.703531996493	42
1	920	504.875064532737	42
1	922	504.886806354838	43
1	923	505.450921230096	43
1	925	505.905063150675	43
1	927	506.077947907436	44
1	928	506.497860114198	44
1	929	506.912664051012	43
1	930	507.440919068964	42
1	931	507.913753450918	41
1	932	508.002613681047	40
1	933	508.589765248533	39
1	935	508.719064065936	39
1	936	509.47255660076	39
1	937	509.927300250958	38
1	939	510.17396573021	38
1	940	510.259191460886	38
1	941	510.879823484308	37
1	943	511.030956405539	37
1	944	511.132086062155	37
1	946	511.667542216048	37
1	947	514.830072505979	37
1	948	515.037239710284	36
1	949	515.169503929054	35
1	951	516.607183102734	35
1	953	518.139066631112	36
1	954	519.251104973422	36
1	958	521.993516313959	36
1	960	522.24164737139	37
1	962	522.492472221579	37
1	963	523.254751461056	36
1	964	523.780502790389	35
1	965	523.889823294895	34
1	966	524.108050070048	33
1	967	524.250677877595	32
1	968	527.541918495388	31
1	969	527.587373148305	30
1	970	527.822713308791	29
1	971	529.057417299084	28
1	975	531.69804220167	28
1	977	532.465029269781	28
1	978	534.409143992517	27
1	979	534.973364848547	26
1	981	535.053892814768	26
1	983	535.952051333068	27
1	984	536.459009344526	27
1	990	540.988036962556	27
1	992	541.660252573365	28
1	995	547.858429915083	28
1	996	548.274312085989	27
1	997	549.385598371517	26
1	998	550.250685973359	25
1	999	550.347209768684	24
1	1001	551.386818409747	24
1	1002	552.679290537143	24
1	1004	553.18561173819	24
1	1005	553.672467825771	24
1	1007	553.739121546654	24
1	1008	555.556381859519	24
1	1012	561.081375776121	23
1	1013	561.19874624835	22
1	1015	561.835794977461	22
1	1016	561.996949092172	22
1	1017	562.159208600796	21
1	1018	562.798744941542	20
1	1019	563.716609209942	19
1	1021	564.48277800595	19
1	1022	565.670222113551	19
1	1023	565.68492821782	18
1	1027	566.848179166371	17
1	1029	567.667037916638	17
1	1031	567.771111762405	18
1	1032	568.39757910896	18
1	1034	568.858987920106	18
1	1035	568.896760124854	18
1	1036	568.929450746037	17
1	1038	569.53592924404	17
1	1039	570.677493053636	17
1	1040	571.280264088989	16
1	1041	571.568870421005	15
1	1042	572.347224750161	14
1	1043	572.57011607128	13
1	1044	572.912584576419	12
1	1046	573.348315751246	12
1	1047	574.704013150265	12
1	1048	574.764325929918	11
1	1049	575.599686900737	10
1	1050	576.052465806252	9
1	1052	576.754892605788	9
1	1056	577.960412917112	10
1	1058	579.186019545493	11
1	1062	580.032405412858	12
1	1065	581.101150788213	13
1	1067	584.256329106735	14
1	1070	584.876929778571	15
1	1072	585.041691895946	16
1	1076	585.34779852285	17
1	1078	585.812681076501	18
1	1084	588.2703382368	19
1	1087	589.899023852145	20
1	1089	590.969420176225	21
1	1092	594.857093048659	22
1	1094	596.117660201894	23
1	1096	596.356054494425	24
1	1098	597.350312069691	25
1	1100	600.648095425196	26
1	1102	601.292625332524	26
1	1104	601.403925344901	26
1	1105	602.043691166896	26
1	1106	602.253113050037	25
1	1107	602.516520517217	24
1	1108	603.047263966362	23
1	1110	603.946576283084	23
1	1112	604.764724004443	24
1	1113	606.481515513499	24
1	1115	607.393174607648	24
1	1117	607.543694226216	25
1	1118	607.817527427599	25
1	1119	609.165740309041	24
1	1120	610.900737090574	23
1	1122	613.147290843746	23
1	1123	613.889716554385	23
1	1124	614.476281282527	22
1	1125	614.678184591713	21
1	1126	615.367029359215	20
1	1128	615.492885270289	20
1	1130	615.595332569526	21
1	1134	615.858044387325	22
1	1136	616.012933715592	23
1	1138	617.875474486761	24
1	1140	618.026649345873	25
1	1142	621.307826699336	25
1	1144	621.94873362046	25
1	1145	622.502505750717	25
1	1146	625.552256023259	24
1	1147	626.8323678574	23
1	1149	628.059057452386	23
1	1151	628.085171278316	24
1	1153	628.322746207217	25
1	1154	628.431425990703	25
1	1155	630.271536482711	24
1	1157	630.488858936827	24
1	1158	631.46587132206	24
1	1159	631.497654811346	23
1	1160	632.173193028037	22
1	1162	632.377954116113	22
1	1164	632.855644376033	23
1	1165	633.155314215172	23
1	1167	633.548649757215	23
1	1169	635.565611998796	24
1	1170	635.731991328328	24
1	1172	637.712804524553	24
1	1173	637.949220925827	24
1	1175	638.312790650718	24
1	1176	638.439878629106	24
1	1177	638.643484191186	23
1	1178	639.417803279763	22
1	1179	639.493030852587	21
1	1180	639.533394469632	20
1	1181	641.745094448328	19
1	1182	642.185381029854	18
1	1183	642.936821851614	17
1	1184	643.690846005386	16
1	1185	643.82048049157	15
1	1189	645.648014672527	14
1	1190	646.821139017841	13
1	1191	647.546029161227	12
1	1193	648.716193365166	12
1	1195	648.836496176374	13
1	1196	648.8449386631	13
1	1197	648.913293492159	12
1	1198	649.895365546298	11
1	1199	650.666189827696	10
1	1200	650.794523394891	9
1	1201	651.231408278634	8
1	1202	652.570412306407	7
1	1203	654.021168644329	6
1	1204	654.037841083939	5
1	1205	654.515111991414	4
1	1206	654.518436240423	3
1	1208	654.731796764441	3
1	1209	655.201778551124	3
1	1211	655.420815249972	3
1	1212	655.733928922851	3
1	1214	656.785958474105	3
1	1215	658.583845857441	3
1	1216	660.112178092221	2
1	1217	660.952849147958	1
1	1218	662.274924084873	0
1	1220	664.425302316038	0
1	1222	665.62530275614	1
1	1223	666.109192853627	1
1	1225	666.415557814388	1
1	1226	666.575520145641	1
1	1227	666.667528681258	0
1	1229	666.838443772614	0
1	1231	667.094308302599	1
1	1232	668.579694577699	1
1	1234	668.889158503716	1
1	1235	669.090080912626	1
1	1237	670.285931569703	1
1	1238	670.664979237266	1
1	1239	671.496606860709	0
1	1241	673.34575372761	0
1	1242	673.746515758604	0
1	1244	674.835093191341	0
1	1246	675.869582106536	1
1	1250	680.338692772055	2
1	1252	682.779085043904	3
1	1254	685.790869775586	4
1	1256	686.044740116711	5
1	1258	686.256608099668	6
1	1262	686.701260586075	7
1	1264	687.222945412422	8
1	1266	687.299456440411	9
1	1268	688.796911472519	10
1	1270	690.466119789254	11
1	1272	693.271204986503	12
1	1274	693.442206186809	13
1	1276	696.693919443044	14
1	1279	698.355859176957	15
1	1281	702.182634959262	15
1	1285	702.849402162643	15
1	1287	704.409239739331	16
1	1289	704.692690279753	17
1	1291	704.739452566118	18
1	1295	707.905358701927	19
1	1297	710.03192640148	20
1	1305	712.70922565292	21
1	1307	713.076726737827	22
1	1309	713.683544790898	23
1	1311	714.188642735638	24
1	1316	716.87856360395	25
1	1318	722.941946326492	26
1	1320	725.858195671726	27
1	1323	726.323521721763	28
1	1327	728.582607182085	29
1	1331	731.219769582382	30
1	1335	736.094485831956	31
1	1338	744.483787465515	32
1	1340	745.663587230221	33
1	1346	748.493418076044	34
1	1348	749.307119966186	35
1	1350	749.443115021271	36
1	1352	752.06961684204	37
1	1355	756.586900551649	38
1	1357	756.770250201946	39
1	1362	760.481983350192	40
1	1364	762.939367995597	41
1	1366	764.2395399304	42
1	1370	765.282836184096	43
1	1376	770.450606677162	44
1	1378	772.170723750603	45
1	1380	772.800358899696	46
1	1382	773.360563889616	47
1	1384	776.704172157936	48
1	1386	777.296469038437	49
1	1388	778.791743441834	50
1	1390	779.510998819281	51
1	1392	779.676109566927	52
1	1394	779.695485275231	53
1	1396	780.515271710035	54
1	1398	781.022107767747	55
1	1400	781.58982313902	56
1	1406	782.594313931113	57
1	1408	783.210863045869	58
1	1410	783.380070460549	59
1	1415	786.69973676569	60
1	1417	786.761936640728	61
1	1419	790.54738885084	62
1	1421	793.834183878757	63
1	1423	797.753482058154	64
1	1425	798.60945236225	65
1	1427	799.00907527848	66
1	1429	799.014833586145	67
1	1431	799.28640119675	68
1	1435	803.5893427734	69
1	1437	803.722143798987	70
1	1440	804.56577883164	71
1	1442	806.591384694864	72
1	1445	807.649431814926	73
1	1447	808.122014857806	74
1	1455	816.707643046346	75
1	1457	817.206777140209	76
1	1460	817.945501446035	77
1	1464	819.081960851567	78
1	1466	822.550658959617	79
1	1469	823.023579587004	80
1	1471	824.691544541797	81
1	1473	825.258357965122	82
1	1475	826.943302919618	83
1	1478	828.641904136383	84
1	1480	829.11924058947	85
1	1482	829.24816579418	86
1	1487	830.281137287144	87
1	1489	830.698847410903	88
1	1491	833.036507104877	89
1	1493	834.212957104151	90
1	1496	836.134977297824	91
1	1498	837.278415119649	92
1	1500	842.063832191673	93
1	1502	843.002522067162	94
1	1504	843.068179656341	95
1	1506	843.122431724203	96
1	1510	843.575291501309	97
1	1512	844.080127413779	98
1	1514	845.258509275225	99
1	1516	846.18772118012	100
1	1524	856.730633558454	101
1	1526	858.468758324561	102
1	1528	858.487685160369	103
1	1530	859.38537843304	104
1	1532	859.451046410436	105
1	1534	859.753939800496	106
1	1538	861.846156434053	107
1	1542	863.453656140539	108
1	1545	867.239951620856	109
1	1547	867.924562002225	110
1	1549	870.173392572719	111
1	1553	871.404947778483	112
1	1555	872.632622581896	113
1	1557	875.723427971786	114
1	1560	876.114861181858	115
1	1570	882.871428572152	116
1	1572	884.139010423502	117
1	1576	891.350486397197	118
1	1578	891.961673061941	119
1	1580	895.367636829999	120
1	1582	898.870155284372	121
1	1584	898.89257574099	122
1	1586	901.420531632186	123
1	1588	901.511903326366	124
1	1591	904.097261331948	125
1	1593	908.815591317906	126
1	1595	910.050542499786	127
1	1597	911.713522912744	128
1	1599	914.383389121411	129
1	1603	917.405474188764	130
1	1605	920.267436575876	131
1	1607	922.255449344682	132
1	1609	922.625664813708	133
1	1611	922.747476695763	134
1	1613	923.719442316487	135
1	1615	924.996047318231	136
1	1617	926.772290538857	137
1	1619	927.391852089135	138
1	1622	929.525440619925	139
1	1624	931.309812739169	140
1	1627	932.879307262555	141
1	1631	935.031933218144	142
1	1633	936.23262265182	143
1	1635	937.750155597184	144
1	1638	939.256602299267	145
1	1641	941.25243248415	146
1	1643	941.514236181333	147
1	1644	941.641451950245	147
1	1645	941.784804521188	146
1	1647	942.200800131225	146
1	1648	942.724860849215	146
1	1649	942.756726601319	145
1	1650	942.853088425497	144
1	1652	942.964258322558	144
1	1654	944.564226605401	145
1	1655	946.173187847722	145
1	1656	947.3662133478	144
1	1658	948.040660930583	144
1	1663	953.329254048457	145
1	1664	953.64647783205	145
1	1666	953.780406122862	145
1	1667	954.016908219369	145
1	1671	957.744417678243	145
1	1673	959.142013540216	146
1	1675	961.162092208068	146
1	1677	961.77972141292	146
1	1678	962.512319203315	146
1	1680	962.700042520178	146
1	1681	962.837040337234	146
1	1682	963.064921919816	145
1	1684	963.444396628907	145
1	1685	964.274389381265	145
1	1686	965.191713436071	144
1	1687	965.348956874144	143
1	1688	965.927335290214	142
1	1689	966.605519226214	141
1	1690	966.682176015192	140
1	1691	967.101230888593	139
1	1692	967.18413099451	138
1	1694	967.228307616195	138
1	1696	967.859852084283	139
1	1698	968.026916599265	140
1	1700	970.086000143666	141
1	1702	970.1257171187	142
1	1703	970.17088956195	142
1	1704	970.701221937212	141
1	1705	970.927051918544	140
1	1706	971.626904896368	139
1	1707	973.119152632812	138
1	1708	973.402350407914	137
1	1709	973.690176992645	136
1	1711	974.018632549601	136
1	1712	975.140636109397	136
1	1713	976.960381503465	135
1	1714	976.990659974883	134
1	1715	977.566949968311	133
1	1717	977.586871779992	133
1	1718	980.643636309006	133
1	1720	980.86032085953	133
1	1722	982.620651832837	134
1	1724	983.265666823851	135
1	1728	986.973279004874	136
1	1730	987.691721692321	136
1	1734	988.97362247933	136
1	1736	991.367866597751	137
1	1738	992.765151355657	138
1	1740	994.77158091468	139
1	1743	996.795264524759	140
1	1744	998.166567234222	140
1	1745	998.193536028692	139
1	1747	998.602655439146	139
1	1748	999.696897412501	139
1	1749	999.843357933823	138
1	1751	1000.605861364708	138
1	1753	1000.962676650804	139
1	1755	1001.067120086593	140
1	1757	1002.232077284693	141
1	1759	1003.292592390549	142
1	1761	1003.809646431376	143
1	1762	1004.044669053935	143
1	1764	1005.923808536196	143
1	1765	1006.322214167835	143
1	1767	1007.964772372976	143
1	1768	1008.547998411313	143
1	1769	1008.88715536313	142
1	1770	1009.060157840586	141
1	1771	1009.293533292293	140
1	1772	1010.447806036544	139
1	1776	1011.213056779961	139
1	1778	1013.814742778981	139
1	1779	1015.99245085625	138
1	1781	1017.753057947908	138
1	1783	1018.895484415905	139
1	1785	1020.388929303623	140
1	1787	1020.958985062213	141
1	1788	1021.447713464376	141
1	1789	1021.556074103788	140
1	1791	1021.641080458385	140
1	1792	1023.14864799783	140
1	1793	1023.422261511675	139
1	1795	1023.763921365755	139
1	1796	1024.102172497811	139
1	1797	1024.351602269684	138
1	1798	1026.121905723508	137
1	1799	1026.918129045793	136
1	1800	1027.572859079718	135
1	1801	1028.752865327159	134
1	1803	1030.278165066678	134
1	1805	1030.933717381472	135
1	1806	1031.570915703369	135
1	1807	1031.929927437887	134
1	1809	1032.842770190402	134
1	1811	1033.02145600149	135
1	1812	1033.470697811059	135
1	1813	1033.494198328503	134
1	1814	1034.524254263825	133
1	1816	1035.061350713934	133
1	1820	1038.274722524826	134
1	1822	1039.527905565737	134
1	1824	1040.114634006632	134
1	1825	1040.288142021852	134
1	1826	1040.659192425991	133
1	1828	1040.954910867604	133
1	1829	1041.580995020721	133
1	1830	1041.621054134791	132
1	1832	1042.25611359695	132
1	1833	1043.381168348207	132
1	1835	1043.630080705832	132
1	1837	1045.26542336624	133
1	1838	1045.290911456228	133
1	1842	1046.592993293069	133
1	1844	1047.244591185221	134
1	1846	1049.561028747291	135
1	1848	1049.572053044016	136
1	1850	1053.390150248367	136
1	1852	1053.583376100829	136
1	1854	1054.610795577082	137
1	1855	1055.249076309585	137
1	1857	1055.747757166106	137
1	1858	1056.054536708808	137
1	1860	1056.517559295552	137
1	1861	1056.699646612715	137
1	1863	1056.924961830355	137
1	1865	1057.857330107147	138
1	1866	1058.720298355687	138
1	1870	1061.869228952783	138
1	1872	1063.193267621271	139
1	1874	1064.080618728242	139
1	1875	1064.201619173283	138
1	1877	1064.362006589848	138
1	1878	1064.379655756894	138
1	1880	1064.428765834131	138
1	1882	1064.711519867119	139
1	1883	1065.123067718905	139
1	1884	1065.187849209645	138
1	1886	1066.241237571831	138
1	1887	1066.732116904118	138
1	1888	1070.764762192069	137
1	1890	1072.17493748514	137
1	1891	1072.193401617143	137
1	1892	1073.244228481111	136
1	1894	1074.475117621467	136
1	1895	1075.107023402704	136
1	1896	1075.387909323838	135
1	1897	1076.444418102765	134
1	1898	1077.930354979416	133
1	1900	1078.245929789075	133
1	1901	1078.395777397158	133
1	1902	1078.711849270938	132
1	1903	1078.732758309878	131
1	1904	1079.54515205254	130
1	1906	1080.23579716573	130
1	1908	1080.927893568199	131
1	1910	1081.232075228262	132
1	1912	1081.446270222799	133
1	1914	1082.276775205825	134
1	1915	1082.332840480328	134
1	1916	1083.241068355499	133
1	1918	1084.012996065266	133
1	1920	1084.191058081603	134
1	1922	1084.343697950863	135
1	1926	1084.926346613197	136
1	1928	1086.061782712164	137
1	1930	1086.31091232321	138
1	1932	1087.40928308851	138
1	1933	1087.648643381548	137
1	1935	1087.989822354896	137
1	1939	1088.827075912602	137
1	1941	1089.356665674059	137
1	1945	1093.843716007222	138
1	1947	1094.301355291365	139
1	1949	1094.402564698527	140
1	1952	1095.758061748589	141
1	1954	1097.067116755991	142
1	1955	1097.636206849922	142
1	1959	1098.236859517143	142
1	1961	1100.081043222075	143
1	1965	1100.827440644762	144
1	1968	1101.655251906352	145
1	1970	1103.304193914242	146
1	1975	1107.825579208093	147
1	1979	1109.26625079566	148
1	1981	1109.487704283713	149
1	1983	1110.663598881812	150
1	1985	1111.988616960493	151
1	1987	1112.10494944169	152
1	1989	1115.099640791064	153
1	1992	1115.53651600708	154
1	1994	1116.016431293845	155
1	1996	1118.114384139068	156
1	1998	1119.146977643027	157
1	2000	1120.33487955015	157
1	2001	1121.5694752234	156
1	2002	1121.726361457591	155
1	2003	1121.874319874613	154
1	2005	1122.104451875232	154
1	2007	1122.717845683241	155
1	2008	1123.320340845834	155
1	2010	1123.779564667361	155
1	2011	1125.220626618701	155
1	2013	1125.734856736379	155
1	2015	1125.848956860597	156
1	2016	1126.556625864526	156
1	2018	1126.893067322182	156
1	2020	1127.25673817262	157
1	2021	1127.342119404753	157
1	2023	1128.37427823842	157
1	2024	1129.051018894677	157
1	2025	1132.017974131349	156
1	2026	1132.567368713461	155
1	2027	1132.59910108985	154
1	2028	1132.907231304362	153
1	2029	1134.727777728862	152
1	2031	1136.115112393622	152
1	2033	1136.354300832541	153
1	2035	1136.74010873044	154
1	2037	1137.786221979441	155
1	2038	1138.321172841036	155
1	2039	1139.455298843623	154
1	2041	1139.707275135478	154
1	2043	1139.777266323701	155
1	2044	1140.28751687275	155
1	2048	1140.565565753746	154
1	2049	1140.964017594556	153
1	2050	1142.229021979595	152
1	2051	1142.624262819895	151
1	2052	1143.85170539183	150
1	2053	1144.220157695547	149
1	2057	1147.719378152737	149
1	2059	1148.214697393471	150
1	2061	1149.01385340373	150
1	2063	1149.38418121248	150
1	2064	1149.937422257381	150
1	2065	1150.657666292827	149
1	2067	1151.005587842305	149
1	2069	1151.018666654243	150
1	2071	1151.769378562933	151
1	2072	1151.923939405065	151
1	2073	1152.706666154173	150
1	2075	1153.674921578361	150
1	2077	1154.315676737198	151
1	2079	1155.682432343943	152
1	2081	1156.016498031018	153
1	2082	1156.136237071566	153
1	2083	1156.482786396743	152
1	2084	1156.631108779471	151
1	2086	1157.028129507593	151
1	2087	1158.129777118833	151
1	2089	1158.752061748883	151
1	2091	1159.147267848089	152
1	2092	1159.209265522574	152
1	2094	1160.016446687897	152
1	2095	1161.502989328253	152
1	2096	1162.49185524755	151
1	2100	1163.485685441119	151
1	2102	1166.236400864389	152
1	2104	1166.4508965085	153
1	2106	1166.556751039097	154
1	2108	1167.497516209928	155
1	2112	1170.501134227802	156
1	2115	1172.598468427888	157
1	2117	1173.532968709002	157
1	2118	1174.471798243481	156
1	2120	1175.406893391068	156
1	2121	1175.756192450975	156
1	2122	1176.054540638405	155
1	2123	1177.584169164102	154
1	2124	1178.906121491938	153
1	2125	1179.422065028388	152
1	2126	1180.522089492766	151
1	2127	1180.973675130957	150
1	2128	1180.991499229849	149
1	2129	1181.251685467101	148
1	2130	1181.451347898405	147
1	2136	1185.557610127554	147
1	2138	1187.983841577302	148
1	2140	1189.004600299793	149
1	2142	1189.172761654858	150
1	2144	1189.923878059539	151
1	2147	1191.388632468959	152
1	2152	1195.117236845054	153
1	2154	1195.897307938984	154
1	2156	1197.795269058795	155
1	2158	1198.007263529266	156
1	2160	1201.804207339181	157
1	2162	1202.063883645877	158
1	2165	1204.436242957081	159
1	2166	1204.499649183745	159
1	2168	1204.674924903622	159
1	2170	1205.042192947447	160
1	2172	1205.516102298509	161
1	2173	1205.622327731067	161
1	2175	1206.333016095823	161
1	2176	1206.364853648958	161
1	2177	1206.420172725306	160
1	2179	1206.78150367487	160
1	2180	1207.881513558308	160
1	2181	1209.036525930414	159
1	2185	1210.479258106534	159
1	2187	1213.252946900284	160
1	2189	1213.465411183437	161
1	2191	1215.02282064852	162
1	2193	1217.368805847451	163
1	2196	1218.625946607399	164
1	2200	1219.954503851947	165
1	2202	1220.490643980146	166
1	2204	1223.111734986127	166
1	2206	1223.385496480168	166
1	2210	1224.697393130538	167
1	2212	1225.026117230415	168
1	2214	1225.503765375323	168
1	2215	1226.20402003172	167
1	2217	1226.398020860967	167
1	2218	1227.250738457485	167
1	2220	1227.402738965549	167
1	2221	1228.835458457113	167
1	2223	1229.331654564646	167
1	2224	1229.597773220978	167
1	2225	1229.672407624782	166
1	2226	1230.039322571057	165
1	2228	1230.372102971571	165
1	2229	1230.728538126025	165
1	2230	1231.342953541406	164
1	2231	1231.5501689626	163
1	2232	1235.200181262935	162
1	2233	1237.164837746054	161
1	2235	1237.752077706218	161
1	2237	1237.765643395187	162
1	2239	1238.885218956109	163
1	2240	1238.980937750658	163
1	2241	1239.142202408455	162
1	2242	1239.285969615308	161
1	2243	1239.859919865175	160
1	2244	1241.061094196016	159
1	2246	1241.239451202368	159
1	2247	1241.536508615961	159
1	2248	1242.281984886608	158
1	2249	1242.587258184777	157
1	2250	1243.071869508649	156
1	2252	1243.416887395756	156
1	2254	1244.191481157846	157
1	2256	1245.099614834086	158
1	2257	1245.735229200245	158
1	2258	1246.222648621803	157
1	2259	1246.782536206948	156
1	2260	1246.828372907834	155
1	2262	1248.810828604866	155
1	2263	1249.816057804959	155
1	2264	1249.904276767855	154
1	2265	1251.056569132372	153
1	2267	1251.545121724325	153
1	2269	1252.135568940301	154
1	2271	1252.821870803515	155
1	2272	1253.216550320914	155
1	2273	1253.305054596053	154
1	2274	1254.050221566257	153
1	2276	1255.749283835561	153
1	2278	1256.452156351763	154
1	2280	1256.737823697944	155
1	2284	1257.174961030337	156
1	2286	1260.187017839135	157
1	2291	1265.527148882549	158
1	2293	1266.275251403617	159
1	2295	1267.669306220147	160
1	2297	1269.659335896213	161
1	2302	1273.645921360244	161
1	2304	1274.245591961561	161
1	2306	1275.477171496957	162
1	2307	1275.725474169497	162
1	2308	1275.758409764411	161
1	2312	1278.702375118646	161
1	2314	1279.335608398653	162
1	2319	1281.032580365507	163
1	2323	1282.939103381942	164
1	2325	1283.937830774371	165
1	2327	1284.657242336857	166
1	2333	1296.935655225023	167
1	2335	1296.941935689288	168
1	2337	1297.555543143468	169
1	2339	1298.04384932723	170
1	2341	1298.901703699515	171
1	2343	1298.939234200584	172
1	2345	1300.361870727337	173
1	2359	1309.774923016265	174
1	2361	1310.841966988047	175
1	2363	1311.084709062087	176
1	2365	1311.179651542573	177
1	2367	1312.563548783783	178
1	2369	1312.96105222407	179
1	2371	1313.722828477643	180
1	2373	1314.424357485157	181
1	2375	1319.053518063051	182
1	2377	1322.220880441525	183
1	2380	1323.735313042791	184
1	2381	1325.683385374576	184
1	2383	1325.838226409206	184
1	2384	1326.605684276431	184
1	2385	1326.846746777027	183
1	2386	1327.242159110464	182
1	2387	1327.936441520276	181
1	2389	1328.984603248003	181
1	2390	1329.463269386686	181
1	2391	1330.791997827098	180
1	2393	1331.138095286272	180
1	2394	1331.148090175057	180
1	2396	1331.349732832761	180
1	2397	1332.333951385562	180
1	2398	1333.314079324132	179
1	2399	1334.061909190114	178
1	2401	1334.277731602801	178
1	2403	1334.692559372049	179
1	2404	1335.213560361845	179
1	2406	1335.476641407516	179
1	2407	1335.537504862259	179
1	2408	1335.823998484142	178
1	2409	1336.094583743208	177
1	2410	1337.005134955622	176
1	2411	1337.083884188322	175
1	2412	1337.718677362969	174
1	2413	1338.548116193551	173
1	2415	1338.567597017289	173
1	2416	1338.937160540771	173
1	2417	1339.080565949054	172
1	2418	1341.705683729325	171
1	2419	1342.033543535809	170
1	2420	1342.578945475594	169
1	2421	1343.191086423318	168
1	2422	1343.731891172735	167
1	2423	1344.033322720631	166
1	2424	1345.21148144511	165
1	2425	1345.644709057545	164
1	2430	1350.86629690113	164
1	2431	1351.352931605345	164
1	2432	1351.570350138637	163
1	2434	1352.241211647073	163
1	2436	1353.349011077761	164
1	2440	1353.646032069876	165
1	2442	1353.91693546428	166
1	2444	1356.203424177205	167
1	2446	1358.950534900893	168
1	2448	1359.529739073577	169
1	2450	1360.372405606047	170
1	2453	1361.834034872879	171
1	2454	1362.437482660921	171
1	2456	1363.93073164538	171
1	2458	1365.572213429028	172
1	2460	1365.701361961398	173
1	2461	1365.725315151278	173
1	2462	1367.065140884399	172
1	2464	1367.263134662109	172
1	2465	1367.30735364032	172
1	2467	1367.548567168563	172
1	2469	1368.165800034991	173
1	2473	1369.76991931052	174
1	2475	1369.911446626179	175
1	2480	1375.234858687119	176
1	2485	1376.824770125697	177
1	2487	1377.74620152222	178
1	2489	1378.651564270286	178
1	2490	1378.807445378186	177
1	2498	1382.540080367427	177
1	2500	1383.209887561985	178
1	2502	1384.946471186132	179
1	2504	1386.421616372761	180
1	2506	1390.805167144422	181
1	2508	1393.395725026822	182
1	2510	1393.632044870462	183
1	2512	1395.691209992187	184
1	2516	1397.089983757408	185
1	2518	1397.713891066458	186
1	2522	1400.853842580105	187
1	2524	1401.253343713388	188
1	2526	1402.792982371912	189
1	2529	1407.382762860633	190
1	2533	1411.84196546752	191
1	2536	1415.520006258872	192
1	2539	1418.569694647997	193
1	2541	1420.336340385223	194
1	2543	1421.56627388021	195
1	2545	1422.706690541425	196
1	2550	1425.056772154178	197
1	2552	1427.65547371891	198
1	2554	1427.674992688844	199
1	2556	1427.78826347014	200
1	2558	1428.649487470532	201
1	2560	1430.304264411636	202
1	2562	1430.510461234084	203
1	2564	1431.099954001823	204
1	2566	1433.052021606095	205
1	2568	1433.184156086291	206
1	2570	1433.991220429157	207
1	2573	1435.842568711429	208
1	2575	1435.992689363652	209
1	2579	1440.095365012102	210
1	2581	1440.347245054267	211
1	2583	1440.453925248483	212
1	2586	1443.892577848632	213
1	2588	1445.707630882201	214
1	2590	1447.696585335376	215
1	2592	1448.602594612758	216
1	2596	1453.293881054575	217
1	2600	1456.903753334471	218
1	2602	1458.396161814399	218
1	2604	1458.853041995688	218
1	2605	1459.673970748289	218
1	2606	1461.108846627541	217
1	2607	1461.201155414613	216
1	2608	1461.276842534624	215
1	2609	1461.406245512445	214
1	2611	1462.633717087846	214
1	2613	1463.004296892661	215
1	2614	1463.133282065859	215
1	2616	1464.608370923989	215
1	2617	1465.098289399131	215
1	2621	1470.682026329981	215
1	2623	1471.422537027242	216
1	2625	1471.520715136257	217
1	2627	1472.590417819541	218
1	2629	1472.831531825189	219
1	2631	1474.448163485041	220
1	2637	1476.707687517413	221
1	2640	1482.992862502791	222
1	2642	1483.493445292964	223
1	2644	1483.584942827202	224
1	2646	1484.368565104248	225
1	2648	1484.621565487045	226
1	2650	1484.879974712173	227
1	2652	1485.078526709273	228
1	2654	1486.83423595915	229
1	2657	1492.747046065635	229
1	2658	1493.767618408168	228
1	2659	1494.487817971077	227
1	2660	1494.849240052313	226
1	2661	1495.196636446451	225
1	2663	1496.378484739874	225
1	2664	1497.872182572982	225
1	2665	1498.186976881067	224
1	2666	1498.64762541586	223
1	2668	1498.675644029425	223
1	2669	1498.938305600647	223
1	2670	1499.026814126468	222
1	2671	1499.629700691926	221
1	2672	1499.648952381595	220
1	2673	1499.881424777456	219
1	2674	1500.90997602453	218
1	2675	1501.382515926966	217
1	2677	1501.670577062567	217
1	2679	1502.009729524491	218
1	2680	1502.469723080239	218
1	2684	1502.673752227845	218
1	2686	1505.37022741846	219
1	2688	1506.143115420099	220
1	2692	1507.518181275317	221
1	2694	1510.135508835373	222
1	2696	1511.897176679731	223
1	2698	1516.544994978946	224
1	2700	1516.670944868768	225
1	2705	1518.105072418133	226
1	2709	1520.025446115327	227
1	2711	1520.451723565183	228
1	2713	1522.589850926365	229
1	2715	1523.601135516167	230
1	2717	1527.517495798664	231
1	2720	1529.541073938984	232
1	2723	1531.077922535379	232
1	2724	1531.120069530514	231
1	2725	1531.181673632247	230
1	2727	1531.225831333458	230
1	2728	1531.476668006101	230
1	2729	1531.511427241634	229
1	2730	1533.241872687695	228
1	2731	1534.227052630356	227
1	2733	1535.079825025876	227
1	2734	1535.403774816786	227
1	2735	1535.76587317363	226
1	2736	1536.044008404285	225
1	2737	1539.608087644183	224
1	2739	1539.777450189296	224
1	2740	1540.291443635684	224
1	2742	1540.402987807245	224
1	2743	1540.42524345154	224
1	2744	1541.444898005413	223
1	2745	1542.611399889461	222
1	2749	1543.988537710523	222
1	2751	1549.968162800489	223
1	2753	1551.644716835932	224
1	2755	1552.407702118545	225
1	2757	1556.161313268704	226
1	2759	1556.748999988493	226
1	2760	1556.91575690102	225
1	2762	1557.096200252435	225
1	2764	1557.149014983802	226
1	2765	1558.061042842375	226
1	2766	1558.442240210702	225
1	2767	1559.534244726147	224
1	2768	1560.091786784573	223
1	2770	1560.307919928501	223
1	2771	1560.570734009784	223
1	2772	1561.261808798639	222
1	2773	1562.319380176672	221
1	2774	1562.504118016598	220
1	2775	1563.319380535043	219
1	2779	1563.710873079324	219
1	2781	1566.101033780025	220
1	2783	1569.316792228223	220
1	2784	1570.529471039032	219
1	2785	1571.211234133707	218
1	2786	1572.59349694906	217
1	2788	1572.605227006983	217
1	2790	1572.65806561447	218
1	2791	1573.069878812251	218
1	2793	1573.120794314048	218
1	2794	1573.134104439085	218
1	2795	1573.291689272736	217
1	2796	1573.972648403236	216
1	2798	1576.812658142333	216
1	2799	1577.609247275233	216
1	2801	1578.500765027239	216
1	2802	1578.880161288705	216
1	2803	1578.894688008767	215
1	2804	1578.975143164501	214
1	2805	1580.21246082314	213
1	2806	1581.134511367938	212
1	2808	1582.159128221757	212
1	2812	1585.438638634993	212
1	2813	1585.733975401807	211
1	2814	1586.044133370376	210
1	2815	1586.611820370774	209
1	2816	1587.743423810117	208
1	2817	1587.88214190009	207
1	2819	1588.338193821987	207
1	2821	1588.359173912924	208
1	2823	1588.901348052718	209
1	2824	1589.083033472386	209
1	2825	1591.210726179207	208
1	2829	1592.185751276485	208
1	2831	1593.469202104776	209
1	2833	1593.690430151986	210
1	2835	1593.849193201544	211
1	2837	1596.021147977273	212
1	2839	1596.634308072124	213
1	2841	1598.085069185319	214
1	2845	1600.337745962438	215
1	2847	1600.513205443848	216
1	2849	1600.655931290064	217
1	2853	1603.097024330956	218
1	2859	1606.381637341742	219
1	2863	1609.051885467807	220
1	2866	1611.496626816065	221
1	2868	1611.660847202092	222
1	2873	1614.4871110826	223
1	2875	1618.428361533525	224
1	2877	1618.464804889876	225
1	2879	1618.48458241078	226
1	2881	1618.67106647288	227
1	2883	1620.070230161296	228
1	2885	1621.802902093425	229
1	2889	1624.702973880304	230
1	2891	1626.201530135903	231
1	2895	1628.632569842195	232
1	2897	1635.658290068407	233
1	2902	1648.29236007607	234
1	2904	1649.62314986296	235
1	2910	1651.974692084769	236
1	2912	1658.272732230031	237
1	2914	1659.620764100576	238
1	2916	1659.894843815377	239
1	2920	1661.529815655959	240
1	2922	1662.463231934466	241
1	2924	1663.165005799135	242
1	2927	1667.426274148677	243
1	2929	1667.56273707657	244
1	2934	1671.609627659138	245
1	2938	1676.509183149027	246
1	2942	1683.603122714464	247
1	2946	1684.827159943257	248
1	2948	1688.97885047785	249
1	2950	1689.342605327287	250
1	2952	1689.55925646784	251
1	2954	1693.811029072213	252
1	2958	1696.33417201835	253
1	2961	1698.095864635978	254
1	2963	1698.717883892732	255
1	2965	1698.994593707449	256
1	2967	1699.546837883161	257
1	2969	1700.441751115647	258
1	2972	1701.576636425483	259
1	2978	1708.888092105866	260
1	2982	1712.164124700485	261
1	2984	1712.618501836141	262
1	2986	1712.686281596253	263
1	2990	1715.046914206044	264
1	2992	1715.650981019714	265
1	2994	1715.744857708363	266
1	2998	1716.385563190003	267
1	3000	1717.17645500248	268
1	3002	1718.090717201318	269
1	3004	1718.111303849165	270
1	3007	1720.39557716226	271
1	3009	1721.941601471996	272
1	3011	1724.295889405058	273
1	3015	1734.235220431717	274
1	3017	1734.286864281082	275
1	3019	1734.655406275403	276
1	3021	1736.437889779835	277
1	3023	1736.876461091474	277
1	3024	1737.550022320758	276
1	3025	1737.694108094641	275
1	3026	1738.225064332413	274
1	3027	1739.29787171132	273
1	3029	1739.395346094634	273
1	3031	1739.480593054797	274
1	3032	1739.897649502298	274
1	3033	1740.573518955165	273
1	3034	1741.103631590317	272
1	3035	1741.146412654643	271
1	3036	1741.963505800096	270
1	3037	1742.164430167173	269
1	3038	1742.431972919951	268
1	3039	1743.45773169533	267
1	3041	1744.178865325622	267
1	3042	1744.262285951809	267
1	3043	1744.322261858802	266
1	3044	1744.609548698636	265
1	3046	1744.69858710745	265
1	3047	1744.91196804385	265
1	3048	1745.005171735137	264
1	3049	1745.200324890618	263
1	3051	1746.063792385288	263
1	3052	1746.105854976684	263
1	3053	1746.844345031192	262
1	3054	1747.970104598373	261
1	3055	1748.211151790429	260
1	3057	1751.252044477546	260
1	3058	1751.341506173344	260
1	3062	1753.40199681228	260
1	3064	1755.798680100314	261
1	3066	1757.135180790977	262
1	3068	1758.38633078517	263
1	3070	1758.782623771842	264
1	3073	1760.123250863115	265
1	3074	1760.363870048444	265
1	3075	1760.718340054239	264
1	3076	1761.62245166175	263
1	3077	1761.845467040966	262
1	3079	1761.995003813367	262
1	3081	1763.987188930252	263
1	3085	1764.422372737416	264
1	3087	1767.811090804713	265
1	3090	1775.850665683982	266
1	3092	1776.384745180012	267
1	3093	1776.883615200634	267
1	3095	1776.989988517842	267
1	3096	1779.093362577186	267
1	3097	1779.762572358155	266
1	3099	1779.949912493532	266
1	3100	1780.215656872188	266
1	3101	1780.94542389141	265
1	3102	1781.071921608583	264
1	3103	1781.448593148936	263
1	3104	1781.872846232917	262
1	3106	1782.163822257592	262
1	3111	1783.786052434	263
1	3113	1784.46437524533	264
1	3115	1785.730422159286	265
1	3116	1785.860170316458	265
1	3117	1786.681760794157	264
1	3119	1787.439490025394	264
1	3121	1787.99215530012	265
1	3123	1788.269967455441	266
1	3125	1788.324604793728	267
1	3127	1789.068567533296	268
1	3128	1789.125547944466	268
1	3129	1789.180371765457	267
1	3130	1789.350680517992	266
1	3132	1789.482746423478	266
1	3134	1789.556369309598	267
1	3136	1789.564551390825	268
1	3138	1789.781921229556	269
1	3139	1789.993442256039	269
1	3141	1790.35609232183	269
1	3142	1790.60985339547	269
1	3144	1791.804713188239	269
1	3145	1791.833133153587	269
1	3146	1792.405828813986	268
1	3148	1793.979635065187	268
1	3149	1794.29967474235	268
1	3150	1795.343829204263	267
1	3152	1795.730264492542	267
1	3153	1796.090483074796	267
1	3154	1796.148462271899	266
1	3155	1797.266154441237	265
1	3159	1799.004751972684	265
1	3161	1799.011018610538	266
1	3163	1806.540590350121	267
1	3165	1806.902332948619	268
1	3169	1812.782354450075	269
1	3172	1817.84057095029	270
1	3179	1822.687901794761	271
1	3181	1822.878727652452	272
1	3183	1823.884394480366	273
1	3186	1830.146200649088	274
1	3188	1830.992356648278	275
1	3194	1840.110080258752	276
1	3196	1842.202829213372	277
1	3198	1842.436843892073	278
1	3206	1846.177640853046	279
1	3210	1850.680766510607	280
1	3212	1851.57582809468	281
1	3214	1852.447424079828	282
1	3219	1859.054569936142	283
1	3221	1861.592218065076	284
1	3223	1862.835955155613	285
1	3225	1864.827336875034	286
1	3230	1867.318081355456	287
1	3232	1868.320211592982	288
1	3234	1870.37774661952	289
1	3245	1876.7850148344	290
1	3247	1876.93160992606	291
1	3249	1877.705585913871	291
1	3251	1877.852849124886	291
1	3253	1877.887599876321	292
1	3259	1880.267232770348	293
1	3261	1880.758390500578	294
1	3267	1883.058157794623	295
1	3269	1884.159093638325	296
1	3273	1890.701196202933	297
1	3276	1891.250809048825	298
1	3278	1892.399565159008	298
1	3280	1894.107422282545	298
1	3281	1894.253912846852	298
1	3282	1897.251062450845	297
1	3284	1897.562053161619	297
1	3285	1897.686810320529	297
1	3286	1898.02044504938	296
1	3287	1898.116277755849	295
1	3288	1898.322196472586	294
1	3289	1898.73762747186	293
1	3290	1899.367455397621	292
1	3292	1899.789160786039	292
1	3293	1900.116651627601	292
1	3295	1901.323145458467	292
1	3296	1902.46616277591	292
1	3297	1902.60811553603	291
1	3298	1904.252364139112	290
1	3303	1906.486510416534	290
1	3304	1908.79143973195	290
1	3306	1909.499362704093	290
1	3307	1910.07974158504	290
1	3308	1911.646566203364	289
1	3309	1911.732095861466	288
1	3310	1912.067712535758	287
1	3312	1912.173000113376	287
1	3314	1913.056846585202	288
1	3315	1913.460348239157	288
1	3316	1914.560492669749	287
1	3321	1918.729736662626	287
1	3322	1919.660683119675	287
1	3326	1923.406249270717	286
1	3327	1923.416542390923	285
1	3328	1924.802702075104	284
1	3332	1926.484439358066	283
1	3334	1926.683791945982	283
1	3336	1928.006717118119	284
1	3337	1929.426881244653	284
1	3338	1933.14050402991	283
1	3342	1933.873083052737	283
1	3344	1934.98003025594	284
1	3347	1937.842140168594	285
1	3348	1938.876253409972	285
1	3350	1939.885220337704	285
1	3351	1940.052324306622	285
1	3355	1942.857474581498	284
1	3356	1943.169399893709	283
1	3358	1943.90321145502	283
1	3359	1944.133576752442	283
1	3360	1944.365915753039	282
1	3362	1944.742512784837	282
1	3363	1944.870543578507	282
1	3364	1945.964732758095	281
1	3365	1947.472219403002	280
1	3367	1947.657059163938	280
1	3369	1948.771599467286	281
1	3371	1948.892045865791	282
1	3372	1949.51955446429	282
1	3373	1949.591173131146	281
1	3374	1949.754971220442	280
1	3375	1950.700969958227	279
1	3377	1951.680727912306	279
1	3378	1951.945005707086	279
1	3379	1952.247553237261	278
1	3380	1952.274908980015	277
1	3381	1952.321403545057	276
1	3385	1955.125897495886	276
1	3387	1955.38390646614	277
1	3389	1956.892618372873	278
1	3391	1957.960103962803	279
1	3393	1958.323798316542	280
1	3395	1960.737433324036	281
1	3397	1963.685577747143	282
1	3399	1965.087788308147	283
1	3401	1965.301605225417	283
1	3402	1965.743830587458	282
1	3403	1965.903220386563	281
1	3405	1966.78397574434	281
1	3406	1967.573422400112	281
1	3407	1967.821380048805	280
1	3409	1967.96294098628	280
1	3410	1968.397081410442	280
1	3411	1969.753426611334	279
1	3412	1971.289734119938	278
1	3413	1973.655238432807	277
1	3415	1974.105400761121	277
1	3416	1974.523593390595	277
1	3418	1974.690304599347	277
1	3419	1975.208208845093	277
1	3423	1976.826493382784	277
1	3425	1976.842999309432	278
1	3429	1978.020127057899	279
1	3431	1980.346571282237	280
1	3435	1981.039590843561	281
1	3437	1983.456563519206	282
1	3441	1985.536183152405	283
1	3443	1988.923700206515	284
1	3445	1989.575617565939	285
1	3450	1992.015563350329	286
1	3452	1994.961316623893	287
1	3456	1996.489119760914	288
1	3458	1996.776932936698	289
1	3460	1997.140827311738	290
1	3462	1997.506329613737	291
1	3465	1999.123738341925	292
1	3467	1999.84088561511	293
2	0	0	0
2	49	20.615686037055	1
2	118	65.910843213564	2
2	142	81.03808482373	3
2	243	136.459064005976	4
2	246	140.519345841785	5
2	271	149.710167368883	6
2	276	151.251787001015	7
2	298	163.564287635381	8
2	321	174.087926105102	9
2	378	209.912144271141	10
2	401	222.713441730619	11
2	446	240.577736899682	12
2	505	268.473493029258	13
2	588	321.426102228839	14
2	610	333.061999259002	15
2	632	346.148100798095	16
2	643	353.587379208479	17
2	656	359.313663849534	18
[...]
8	3027	1739.29787171132	520.2701857403
8	3032	1739.897649502298	519.94314565035
8	3033	1740.573518955165	520.08287497502
8	3034	1741.103631590317	517.71813511015
8	3035	1741.146412654643	517.70645670964
8	3036	1741.963505800096	517.26611266956
8	3037	1742.164430167173	517.13831293676
8	3038	1742.431972919951	516.03395205898
8	3039	1743.45773169533	516.05499272978
8	3042	1744.262285951809	514.93063138716
8	3043	1744.322261858802	513.95015888723
8	3044	1744.609548698636	506.85747099242
8	3047	1744.91196804385	507.14632464866
8	3048	1745.005171735137	506.11995277903
8	3049	1745.200324890618	503.96087368825
8	3052	1746.105854976684	502.68896758093
8	3053	1746.844345031192	502.65286387335
8	3054	1747.970104598373	502.87048976429
8	3055	1748.211151790429	499.40032318556
8	3058	1751.341506173344	499.79638444902
8	3074	1760.363870048444	507.54199924493
8	3075	1760.718340054239	504.96905621868
8	3076	1761.62245166175	505.17029530999
8	3077	1761.845467040966	505.10764334302
8	3093	1776.883615200634	519.7086541703
8	3096	1779.093362577186	518.90634473805
8	3097	1779.762572358155	514.23542347561
8	3100	1780.215656872188	513.94040546857
8	3101	1780.94542389141	513.27611767126
8	3102	1781.071921608583	511.41258571237
8	3103	1781.448593148936	507.20300118737
8	3104	1781.872846232917	506.39567473596
8	3116	1785.860170316458	507.15779519781
8	3117	1786.681760794157	507.3461523955
8	3128	1789.125547944466	508.39625138593
8	3129	1789.180371765457	508.14779139995
8	3130	1789.350680517992	506.41157713605
8	3139	1789.993442256039	506.05561148167
8	3142	1790.60985339547	505.95261105861
8	3145	1791.833133153587	494.89747792856
8	3146	1792.405828813986	495.4638931247
8	3149	1794.29967474235	496.74413159888
8	3150	1795.343829204263	497.29997987703
8	3153	1796.090483074796	497.18877937528
8	3154	1796.148462271899	497.20922807132
8	3155	1797.266154441237	496.9042837139
8	3249	1877.705585913871	566.86361892582
8	3278	1892.399565159008	581.21991361643
8	3281	1894.253912846852	581.69036406307
8	3282	1897.251062450845	584.29001022677
8	3285	1897.686810320529	583.96398184289
8	3286	1898.02044504938	583.59608756422
8	3287	1898.116277755849	579.0627596928
8	3288	1898.322196472586	576.10131603106
8	3289	1898.73762747186	575.00231442907
8	3290	1899.367455397621	573.52922898841
8	3293	1900.116651627601	571.1320483796
8	3296	1902.46616277591	571.32806748964
8	3297	1902.60811553603	571.25838270327
8	3298	1904.252364139112	569.97463253631
8	3304	1908.79143973195	573.31479832443
8	3307	1910.07974158504	571.51214456775
8	3308	1911.646566203364	563.59954396828
8	3309	1911.732095861466	560.86579896034
8	3310	1912.067712535758	559.82650088869
8	3315	1913.460348239157	560.1113371614
8	3316	1914.560492669749	561.00737988437
8	3322	1919.660683119675	565.74374765539
8	3326	1923.406249270717	564.45571436982
8	3327	1923.416542390923	563.88680331735
8	3328	1924.802702075104	564.43029646906
8	3332	1926.484439358066	562.55370771269
8	3337	1929.426881244653	563.85466781563
8	3338	1933.14050402991	567.43914206851
8	3348	1938.876253409972	571.32768624141
8	3351	1940.052324306622	571.88652427163
8	3355	1942.857474581498	573.08755527098
8	3356	1943.169399893709	573.25795326753
8	3359	1944.133576752442	570.76231609918
8	3360	1944.365915753039	569.13105706592
8	3363	1944.870543578507	568.04577345281
8	3364	1945.964732758095	568.21853123587
8	3365	1947.472219403002	568.41141092592
8	3372	1949.51955446429	566.97947409686
8	3373	1949.591173131146	566.38128556916
8	3374	1949.754971220442	564.80850003431
8	3375	1950.700969958227	564.27935358547
8	3378	1951.945005707086	561.13983856266
8	3379	1952.247553237261	558.85182821044
8	3380	1952.274908980015	558.64286410955
8	3381	1952.321403545057	556.63019355287
8	3401	1965.301605225417	567.58771415896
8	3402	1965.743830587458	564.88998800735
8	3403	1965.903220386563	564.64987667317
8	3406	1967.573422400112	564.7804400282
8	3407	1967.821380048805	560.43861718817
8	3410	1968.397081410442	556.55511594292
8	3411	1969.753426611334	554.23342035246
8	3412	1971.289734119938	552.72003947194
8	3413	1973.655238432807	553.31889804758
8	3416	1974.523593390595	552.95731951038
8	3419	1975.208208845093	552.50151830367
9	14	4.692680827218	0
9	49	20.615686037055	0
9	86	50.716901391678	0
9	97	55.600834612938	2.857448204949
9	118	65.910843213564	0
9	142	81.03808482373	0
9	158	90.167510413126	0
9	170	99.251980196119	0
9	176	100.948228877937	0
9	191	106.851116438386	0
9	208	115.515360765327	6.968281366965
9	223	125.707210059559	16.106804161764
9	224	126.111156240906	15.912362668632
9	231	131.814955278681	15.468200131874
9	243	136.459064005976	0
9	246	140.519345841785	0
9	271	149.710167368883	0
9	276	151.251787001015	0
9	298	163.564287635381	0
9	321	174.087926105102	0
9	328	175.588106987847	1.292187757123
9	331	178.200816893462	3.324245663551
9	378	209.912144271141	0
9	401	222.713441730619	0
9	446	240.577736899682	0
9	505	268.473493029258	0
9	516	271.756398997873	0.896029701419
9	517	272.060947285273	1.19278730768
9	530	288.156847688324	15.281897825371
9	588	321.426102228839	0
9	593	325.645548857389	2.193332399541
9	610	333.061999259002	0
9	615	338.516940885068	1.82740436015
9	632	346.148100798095	0
9	643	353.587379208479	0
9	648	355.563058977595	1.904765837926
9	656	359.313663849534	0
9	659	359.728419348469	0.181430227964
9	668	362.98921904344	0
9	683	372.62451565462	2.195634699889
9	695	379.892589772936	0
9	712	389.720966889073	4.722437649071
9	721	394.760232024536	8.259357476949
9	744	413.254692373658	26.275921660555
9	745	415.943762386462	25.509836567019
9	776	426.836922710984	0
9	789	437.59893323575	6.19923831481
9	800	453.665799804052	19.616400884415
9	813	457.876898301937	17.738152391978
9	816	460.94570177253	19.857182720685
9	827	463.858797078507	7.390917979088
9	838	469.619505803713	3.518169797275
9	839	470.401924809077	2.073230164592
9	848	473.148841221621	0
9	876	480.369132726594	0
9	956	521.251297987124	0
9	973	530.226345291984	0
9	986	536.514236395695	0
9	993	544.844257037076	7.854382206125
9	1010	556.646747381996	0
9	1025	566.000077566127	0
9	1054	577.404035603959	0
9	1063	580.246451918095	0.972803778688
9	1074	585.261099602949	0
9	1085	588.321119623382	2.387380697755
9	1090	591.677686338382	5.610410178177
9	1132	615.804152858548	0
9	1187	644.31212136994	0
9	1248	678.018425402561	0
9	1277	697.913807676522	11.61056395376
9	1283	702.826559507599	0
9	1314	715.271181925778	7.576517555312
9	1321	726.055355453007	14.727812457778
9	1336	738.58552446131	27.097030554386
9	1353	755.789075400125	43.272808310634
9	1360	759.662965563365	44.521436028177
9	1371	767.90659250474	41.237555255339
9	1372	768.477739784908	39.050831953629
9	1373	769.133335370849	33.905519146423
9	1374	770.171083345198	23.446415546125
9	1413	784.593127112772	36.566937010009
9	1432	800.497139155598	43.054949380693
9	1433	801.363437904627	37.085775842211
9	1438	804.12436945972	21.937414471517
9	1443	807.454650320859	24.917758097841
9	1458	817.868208457432	33.427400145572
9	1467	822.751228826339	14.306191628069
9	1476	828.550696869985	15.145294281707
9	1485	830.1482561786	13.74827583081
9	1494	835.301331430324	16.889535095346
9	1519	848.565136286567	19.290782084408
9	1520	850.241380414787	6.887293262135
9	1543	864.241863618858	17.152310692269
9	1558	876.048856851354	23.422740264642
9	1561	876.801919314903	16.834693777123
9	1562	878.007253709639	15.708825842699
9	1573	886.494954246398	16.284288446723
9	1574	889.189567077588	10.592538837367
9	1589	902.123719132159	21.482804839739
9	1620	928.368995743023	47.409941111912
9	1625	932.322111006752	16.434984815039
9	1636	939.242130222039	4.885361715195
9	1660	949.279222388061	0
9	1669	955.253123011465	0
9	1726	983.304066756245	0
9	1732	988.331818438252	0
9	1774	1010.853338399136	0
9	1818	1036.979674401142	0
9	1840	1046.090218465492	0
9	1868	1059.083021492501	0
9	1924	1084.577375420815	0
9	1937	1088.530653636546	0
9	1943	1089.45720819733	0
9	1957	1097.907239256857	0
9	1966	1100.890261096125	0.801674877511
9	1973	1107.445673632252	0
9	1990	1115.222312663241	7.3138193906
9	2046	1140.394637089753	0
9	2055	1144.329957888677	0
9	2098	1162.943230476379	0
9	2113	1171.981748737668	4.117215377298
9	2132	1181.620851879219	0
9	2145	1190.301128393311	5.514672082867
9	2150	1192.54505360662	0
9	2183	1210.190632275669	0
9	2198	1219.027685971016	0
9	2208	1223.439955945002	0
9	2282	1257.037241407465	0
9	2289	1265.311504565959	4.976234732624
9	2300	1270.85993349239	1.184335450465
9	2310	1277.499668966503	0
9	2317	1280.729296558531	0
9	2330	1293.830961217464	11.58268318474
9	2331	1294.642389574014	8.880456526269
9	2348	1301.966769108033	0
9	2353	1304.657467073721	0.884265011443
9	2356	1304.938285457056	0.390324707924
9	2357	1306.869848195049	2.164288015488
9	2427	1348.047022235089	0
9	2438	1353.553112785376	0
9	2471	1368.347950653739	0
9	2478	1373.371260653259	0
9	2483	1376.323759120669	0.737104057678
9	2492	1379.060808477082	0
9	2527	1404.767756797063	25.651574063428
9	2534	1411.930321735607	32.672340155178
9	2537	1416.441424916943	20.284475515764
9	2546	1423.063570575096	24.689645164207
9	2571	1435.13198872683	24.487104295786
9	2584	1441.311144323574	18.241134834833
9	2597	1455.140995289111	19.014356912555
9	2598	1455.704741351227	3.963263175131
9	2619	1466.493623239147	0
9	2638	1481.449024008791	5.64237275008
9	2655	1488.769152831826	12.193208982453
9	2682	1502.65358777116	0
9	2701	1517.216437616782	10.123923175298
9	2718	1529.172936073307	11.551380643921
9	2721	1529.915246400416	11.062189981022
9	2747	1543.49935369863	0
9	2777	1563.384649054626	0
9	2810	1582.358420901449	0
9	2827	1592.121432772944	0
9	2864	1609.615011263382	11.525191239652
9	2871	1612.48741451164	10.379406482541
9	2900	1647.036438243507	43.92569416578
9	2905	1650.873034920769	47.105610177202
9	2906	1651.000255386862	42.599479430725
9	2925	1665.116504439481	52.990844977223
9	2930	1668.529971763827	45.352737977114
9	2939	1680.259569608198	53.149193683811
9	2940	1682.050949356102	43.976755088512
9	2943	1683.873376302369	32.720424340909
9	2944	1684.215751097189	24.115114435004
9	2959	1696.53416245765	26.284632217711
9	2970	1700.918266669048	27.456736813559
9	2975	1706.223679021075	10.939629875594
9	2976	1706.250179515272	2.728025234451
9	3005	1719.589860751913	9.677045191386
9	3012	1724.503287627574	9.762794627115
9	3013	1726.088934617291	10.074717752331
9	3060	1751.667425784714	0
9	3083	1764.158689112865	0
9	3108	1783.057737815817	0
9	3157	1797.361665121796	0
9	3170	1813.409298530453	3.256016597008
9	3177	1822.346699070419	3.954542095516
9	3184	1829.348759104492	8.264924623109
9	3199	1842.709991801713	6.887257431442
9	3200	1843.771909943837	4.991114781991
9	3207	1847.318350333381	1.729407834786
9	3208	1850.284224243451	4.282544199191
9	3217	1856.004170890582	2.605702530463
9	3228	1867.291683952868	1.491587600247
9	3237	1871.378238334214	0
9	3242	1872.909290912652	0.355700117364
9	3243	1874.627542321221	1.816473798117
9	3255	1878.597412405883	0
9	3270	1884.523800345872	4.784713573599
9	3271	1889.513490224004	7.521454735627
9	3274	1890.764792228501	8.453419923983
9	3300	1904.92231095149	0
9	3318	1915.039606401776	0
9	3324	1921.490230949794	0
9	3330	1925.264198041057	0
9	3340	1933.548726926434	0
9	3353	1940.653098739201	0
9	3383	1952.544468762197	0
9	3421	1976.35712467883	0
9	3438	1983.608454902106	5.750872102646
9	3439	1983.98515418031	3.260183142771
9	3448	1990.521652029305	0.522724917355
9	3463	1998.392097972446	3.110351132499
10	15	5.328273133564	0.635592306346
10	52	24.187510861239	3.571824824184
10	97	55.600834612938	4.88393322126
10	98	56.165577470994	3.422191063005
10	119	66.655313419796	0.744470206232
10	143	81.875680667567	0.837595843837
10	159	91.598617835094	1.431107421968
10	171	100.234271835349	0.98229163923
10	179	103.008555137655	2.060326259718
10	208	115.515360765327	8.664244326941
10	223	125.707210059559	17.160130661197
10	224	126.111156240906	16.510750343111
10	231	131.814955278681	21.616161706407
10	232	132.054671608318	15.707916461511
10	244	140.510168397243	4.051104391267
10	249	145.444216869773	4.924871027988
10	274	149.863271199001	0.153103830118
10	287	155.949701164019	4.697914163004
10	309	170.44551612853	6.881228493149
10	328	175.588106987847	1.500180882745
10	331	178.200816893462	3.904897662738
10	334	179.029836950915	4.153265721004
10	389	218.334720772343	8.422576501202
10	402	222.772463171569	0.05902144095
10	451	242.104427498874	1.526690599192
10	516	271.756398997873	3.282905968615
10	517	272.060947285273	1.200577988819
10	530	288.156847688324	17.288687710731
10	545	298.633640466919	25.758690603966
10	593	325.645548857389	4.21944662855
10	598	326.944412401115	3.492195943267
10	615	338.516940885068	5.454941626066
10	622	341.216656813917	4.527120288999
10	639	350.669976080496	4.521875282401
10	648	355.563058977595	1.975679769116
10	649	356.524972112766	2.866678973097
10	659	359.728419348469	0.414755498935
10	664	362.524093303218	2.977104182713
10	683	372.62451565462	9.63529661118
10	690	378.128439271798	7.699558317067
10	712	389.720966889073	9.828377116137
10	721	394.760232024536	9.761702784534
10	744	413.254692373658	26.753817826071
10	745	415.943762386462	28.964991673359
10	748	418.474841924338	28.040916104895
10	789	437.59893323575	10.762010524766
10	800	453.665799804052	22.266104883112
10	813	457.876898301937	23.8274993823
10	816	460.94570177253	20.806955862571
10	827	463.858797078507	22.770278026662
10	838	469.619505803713	13.151626704294
10	839	470.401924809077	4.300588802639
10	840	470.849659135889	2.520964491404
10	853	474.509554273459	1.360713051838
10	889	492.193848847961	11.824716121367
10	961	522.393138278841	1.141840291717
10	976	532.066244933955	1.839899641971
10	993	544.844257037076	8.330020641381
10	994	546.426224842355	9.436350011404
10	1011	558.747341057343	2.100593675347
10	1026	566.026819882051	0.026742315924
10	1063	580.246451918095	2.842416314136
10	1068	584.320730582973	5.047082443566
10	1085	588.321119623382	3.060020020433
10	1090	591.677686338382	5.743947412755
10	1101	600.734228229195	14.66695206899
10	1141	621.064621243122	5.260468384574
10	1188	645.235216567357	0.923095197417
10	1277	697.913807676522	19.895382273961
10	1280	700.541529613501	14.238285890739
10	1314	715.271181925778	12.444622418179
10	1321	726.055355453007	18.360691082541
10	1336	738.58552446131	27.257981466081
10	1353	755.789075400125	44.300581493201
10	1360	759.662965563365	47.146698473874
10	1371	767.90659250474	52.765062969552
10	1372	768.477739784908	41.808702535507
10	1373	769.133335370849	39.70642753957
10	1374	770.171083345198	34.943267120772
10	1413	784.593127112772	37.868459313699
10	1432	800.497139155598	52.470949052835
10	1433	801.363437904627	43.921248129722
10	1438	804.12436945972	39.846707397304
10	1443	807.454650320859	25.267695332656
10	1458	817.868208457432	35.331316234414
10	1467	822.751228826339	38.310420514479
10	1476	828.550696869985	20.105659671715
10	1485	830.1482561786	16.742853590322
10	1494	835.301331430324	18.901351082534
10	1519	848.565136286567	30.153339951589
10	1520	850.241380414787	20.967026212628
10	1543	864.241863618858	20.887776466206
10	1558	876.048856851354	28.959303924765
10	1561	876.801919314903	24.175802728191
10	1562	878.007253709639	18.040028171859
10	1573	886.494954246398	24.196526379458
10	1574	889.189567077588	18.978901277913
10	1589	902.123719132159	23.526690891938
10	1620	928.368995743023	47.728081450603
10	1625	932.322111006752	51.363056375641
10	1636	939.242130222039	23.355004030326
10	1639	941.156284330141	6.799515823297
10	1661	952.341491098648	3.062268710587
10	1674	960.081086428143	4.827963416678
10	1729	987.581009002305	4.27694224606
10	1741	996.111984308824	7.780165870572
10	1777	1013.608105785886	2.75476738675
10	1821	1039.404898926559	2.425224525417
10	1849	1052.841063852592	6.7508453871
10	1873	1063.414247880439	4.331226387938
10	1931	1087.22671301727	2.649337596455
10	1938	1088.801322100803	0.270668464257
10	1950	1095.224541854411	5.767333657081
10	1966	1100.890261096125	2.983021839268
10	1971	1107.233306021961	7.144719803347
10	1990	1115.222312663241	7.776639030989
10	1999	1120.11281207983	12.204318807189
10	2047	1140.396517898558	0.001880808805
10	2060	1148.368297179092	4.038339290415
10	2113	1171.981748737668	9.038518261289
10	2116	1173.181778230761	5.317244870391
10	2145	1190.301128393311	8.680276514092
10	2148	1191.456027288867	6.669570978423
10	2163	1204.386248601849	11.841194995229
10	2194	1218.450083530003	8.259451254334
10	2203	1222.810942876651	3.783256905635
10	2213	1225.223343362578	1.783387417576
10	2289	1265.311504565959	8.274263158494
10	2300	1270.85993349239	10.524663659055
10	2301	1273.54205554552	3.866457503595
10	2315	1279.351532605179	1.851863638676
10	2330	1293.830961217464	13.101664658933
10	2331	1294.642389574014	12.39411154129
10	2346	1300.851929549091	15.089996501346
10	2353	1304.657467073721	2.690697965688
10	2356	1304.938285457056	1.165083394778
10	2357	1306.869848195049	2.321887445917
10	2378	1323.701905787091	18.99634560753
10	2428	1349.497395548831	1.450373313742
10	2451	1360.657600972542	7.104488187166
10	2476	1372.960270054983	4.612319401244
10	2483	1376.323759120669	2.95249846741
10	2488	1377.787518894672	2.200863831681
10	2527	1404.767756797063	25.706948319981
10	2534	1411.930321735607	32.814139001972
10	2537	1416.441424916943	37.183443336514
10	2546	1423.063570575096	26.906621173917
10	2571	1435.13198872683	36.758063315941
10	2584	1441.311144323574	30.66625989253
10	2597	1455.140995289111	32.07098580037
10	2598	1455.704741351227	19.578102974671
10	2601	1457.623007194225	5.881529018129
10	2638	1481.449024008791	14.955400769644
10	2655	1488.769152831826	12.962501573115
10	2656	1492.408366857212	15.832423007839
10	2701	1517.216437616782	14.562849845622
10	2718	1529.172936073307	22.080421631823
10	2721	1529.915246400416	12.29369097103
10	2722	1531.066370297401	12.213313878007
10	2758	1556.351319685705	12.851965987075
10	2782	1568.07769639639	4.693047341764
10	2811	1583.968041275857	1.609620374408
10	2864	1609.615011263382	17.493578490438
10	2871	1612.48741451164	14.39759448791
10	2900	1647.036438243507	44.928430214408
10	2905	1650.873034920769	47.762290843042
10	2906	1651.000255386862	47.232830643295
10	2925	1665.116504439481	56.715728483344
10	2930	1668.529971763827	56.404312301569
10	2939	1680.259569608198	57.082335821485
10	2940	1682.050949356102	54.940573431715
10	2943	1683.873376302369	45.799182034779
10	2944	1684.215751097189	33.062799135729
10	2959	1696.53416245765	36.433525795465
10	2970	1700.918266669048	30.668736429109
10	2975	1706.223679021075	32.762149165586
10	2976	1706.250179515272	10.966130369791
10	3005	1719.589860751913	16.067706471092
10	3012	1724.503287627574	14.590472067047
10	3013	1726.088934617291	11.348441616832
10	3022	1736.705347120937	20.691130255977
10	3071	1759.914872902514	8.2474471178
10	3088	1775.342513015724	11.183823902859
10	3109	1783.526865529268	0.469127713451
10	3170	1813.409298530453	16.047633408657
10	3177	1822.346699070419	12.193417136974
10	3184	1829.348759104492	10.956602129589
10	3199	1842.709991801713	21.62615732033
10	3200	1843.771909943837	7.949175573566
10	3207	1847.318350333381	8.537555171535
10	3208	1850.284224243451	4.695281744856
10	3217	1856.004170890582	10.002490846322
10	3228	1867.291683952868	13.893215592749
10	3235	1871.204339658395	5.404243305774
10	3242	1872.909290912652	1.531052578438
10	3243	1874.627542321221	2.073951525933
10	3248	1877.67345054893	4.862382025826
10	3270	1884.523800345872	5.926387939989
10	3271	1889.513490224004	9.774403451731
10	3274	1890.764792228501	8.772756740124
10	3277	1891.332073166235	9.020700861717
10	3301	1906.038394052408	1.116083100918
10	3319	1918.542116343308	3.502509941532
10	3325	1922.519257205499	1.029026255705
10	3331	1925.502017247207	0.23781920615
10	3345	1935.604299220303	2.055572293869
10	3354	1942.594909320168	1.941810580967
10	3400	1965.245897471757	12.70142870956
10	3438	1983.608454902106	7.251330223276
10	3439	1983.98515418031	6.12757138085
10	3448	1990.521652029305	9.796680991766
10	3463	1998.392097972446	8.393170860496
11	3468	2000	0.3735
12	3468	2000	0.106

