file 225384 1671138817                                          
version 2
run Continuity_test_mean_response_time-128-20221215-22:13:37-14012
attr configname Continuity_test_mean_response_time
attr datetime 20221215-22:13:37
attr experiment Continuity_test_mean_response_time
attr inifile omnetpp.ini
attr iterationvars $0=5.1
attr iterationvarsf 5.1-
attr measurement $0=5.1
attr network Network
attr processid 14012
attr repetition 28
attr replication #28
attr resultdir results
attr runnumber 128
attr seedset 28
param *.minion.arrival_mean 2
param *.minion.service_mean 1
param *.boss.arrival_mean 10
param *.boss.service_mean 5.1
param *.player.recover_rate_x 100
param **.minion.arrival_distribution 0
param **.minion.service_distribution 0
param **.boss.arrival_distribution 0
param **.boss.service_distribution 0

vector 0 Network.player minion_jobs_number_stat:vector ETV
attr source signal_minion_jobs_number
vector 1 Network.player minion_jobs_queue_number_stat:vector ETV
attr source signal_minion_jobs_queue_number
vector 2 Network.player minion_recovered_stat:vector ETV
attr source signal_minion_recovered
vector 3 Network.player minion_defeated_stat:vector ETV
attr source signal_minion_defeated
vector 4 Network.player boss_jobs_number_stat:vector ETV
attr source signal_boss_jobs_number
vector 5 Network.player boss_jobs_queue_number_stat:vector ETV
attr source signal_boss_jobs_queue_number
vector 6 Network.player boss_defeated_stat:vector ETV
attr source signal_boss_defeated
vector 7 Network.player minion_waiting_time_stat:vector ETV
attr source signal_minion_waiting_time
vector 8 Network.player boss_waiting_time_stat:vector ETV
attr source signal_boss_waiting_time
vector 9 Network.player boss_response_time_stat:vector ETV
attr source signal_boss_response_time
vector 10 Network.player minion_response_time_stat:vector ETV
attr source signal_minion_response_time
vector 11 Network.player minion_throughput:vector ETV
attr source signal_minion_throughput
vector 12 Network.player boss_throughput:vector ETV
attr source signal_boss_throughput
0	2003 28415 0 3616 0 1999.05407920283 1044 0 154 81503 7715009
1	30418 52977 0 3617 0 1999.773683224385 1945 0 153 150909 14161721
2	83395 2756 0 3604 0 1987.763138342862 103 0 102 5253 358955
3	86151 25191 0 3617 0 1999.773683224385 902 0 901 406351 244216951
4	111342 5460 0 3604 0 1987.763138342862 211 0 7 413 1193
5	116802 10916 0 3605 0 1991.091645419533 421 0 6 406 1154
6	127718 5776 0 3605 0 1991.091645419533 211 0 210 22155 3109085
7	133494 39893 2 3617 0.940190065351 1999.773683224385 1004 0 268.67231037261 136709.11389972 22333478.013037
8	173387 6832 4 3604 1.644407380029 1987.763138342862 210 0 40.957342980038 922.5967661911 15744.029126927
9	180219 8227 5 3605 2.757588623306 1991.091645419533 210 0.001807347681 46.888770867868 1955.1832525887 34897.526202951
10	188446 36898 15 3617 6.370362191127 1999.773683224385 901 0.098514329598 268.71910133174 123458.24510331 20202913.002755
11	225344 20 3618 3618 2000 2000 1 0.4505 0.4505 0.4505 0.20295025
12	225364 19 3618 3618 2000 2000 1 0.105 0.105 0.105 0.011025

