version 2
run Continuity_test_mean_response_time-24-20221215-22:13:15-13492
attr configname Continuity_test_mean_response_time
attr datetime 20221215-22:13:15
attr experiment Continuity_test_mean_response_time
attr inifile omnetpp.ini
attr iterationvars $0=5
attr iterationvarsf 5-
attr measurement $0=5
attr network Network
attr processid 13492
attr repetition 24
attr replication #24
attr resultdir results
attr runnumber 24
attr seedset 24
param *.minion.arrival_mean 2
param *.minion.service_mean 1
param *.boss.arrival_mean 10
param *.boss.service_mean 5
param *.player.recover_rate_x 100
param **.minion.arrival_distribution 0
param **.minion.service_distribution 0
param **.boss.arrival_distribution 0
param **.boss.service_distribution 0

vector 0 Network.player minion_jobs_number_stat:vector ETV
attr source signal_minion_jobs_number
vector 1 Network.player minion_jobs_queue_number_stat:vector ETV
attr source signal_minion_jobs_queue_number
vector 2 Network.player minion_recovered_stat:vector ETV
attr source signal_minion_recovered
vector 3 Network.player minion_defeated_stat:vector ETV
attr source signal_minion_defeated
vector 4 Network.player boss_jobs_number_stat:vector ETV
attr source signal_boss_jobs_number
vector 5 Network.player boss_jobs_queue_number_stat:vector ETV
attr source signal_boss_jobs_queue_number
vector 6 Network.player boss_defeated_stat:vector ETV
attr source signal_boss_defeated
vector 7 Network.player minion_waiting_time_stat:vector ETV
attr source signal_minion_waiting_time
vector 8 Network.player minion_response_time_stat:vector ETV
attr source signal_minion_response_time
vector 9 Network.player boss_waiting_time_stat:vector ETV
attr source signal_boss_waiting_time
vector 10 Network.player boss_response_time_stat:vector ETV
attr source signal_boss_response_time
vector 11 Network.player minion_throughput:vector ETV
attr source signal_minion_throughput
vector 12 Network.player boss_throughput:vector ETV
attr source signal_boss_throughput
0	0	0	0
0	2	0.483345549305	1
0	4	1.77292312793	2
0	8	6.577786274493	1
0	11	11.030709252231	1
0	16	14.42982159326	1
0	18	14.485039599874	2
0	23	19.16936511003	3
0	25	21.594097714438	4
0	27	24.048439133514	5
0	34	25.813504887527	6
0	36	26.064804139332	7
0	38	27.352924240066	8
0	40	27.546829088397	9
0	42	28.797067825233	10
0	47	30.448021860238	11
0	51	31.01966592638	12
0	53	32.714184133282	13
0	55	35.255147637124	14
0	57	35.334619824616	15
0	59	35.977746205312	16
0	61	36.768421720049	17
0	64	42.074878265121	18
0	66	42.762164948198	19
0	71	47.750791630361	20
0	73	49.179791417589	21
0	75	51.366923409079	22
0	77	52.091294505071	23
0	79	52.868595561907	24
0	84	53.592671247862	24
0	88	55.139844138321	23
0	90	55.448880680744	24
0	93	56.071022786494	24
0	95	56.145035577804	25
0	101	60.489567409643	22
0	105	61.508671422063	23
0	107	61.514258539952	24
0	109	64.261741748095	25
0	115	67.496245114453	25
0	117	71.35784334079	26
0	121	73.281544106674	27
0	127	75.408114275318	28
0	134	81.437427723441	29
0	138	88.217351716961	30
0	140	88.898809590333	31
0	144	90.962523242044	32
0	146	93.128320010226	33
0	148	95.855564019058	34
0	150	98.970502766114	35
0	156	102.538116137205	36
0	158	102.658316156349	37
0	160	102.670267901075	38
0	166	107.274240907106	39
0	170	108.798625338148	40
0	172	108.946892507787	41
0	177	114.019146775528	42
0	179	116.37933750081	43
0	181	116.784264897133	44
0	183	117.055823238072	45
0	185	125.733479086457	46
0	187	127.938935740591	47
0	189	129.207153609404	48
0	191	129.340098776046	49
0	195	130.965120061323	50
0	197	131.266187433725	51
0	199	131.844567202916	52
0	201	132.586115680818	53
0	204	133.732093164499	54
0	206	133.842741085846	55
0	210	137.3302927525	56
0	212	137.911216307867	57
0	214	139.937852249124	58
0	216	140.139446292218	59
0	220	143.602731959034	60
0	222	144.596793575999	61
0	225	145.26317402133	62
0	227	149.618186179635	63
0	229	150.816514011472	64
0	231	151.169106901475	65
0	233	151.553492457799	66
0	237	152.659265368199	66
0	239	152.751344868524	67
0	250	156.602732523172	59
0	253	158.796694308509	59
0	256	159.605354833978	59
0	258	160.395554706528	60
0	273	166.693175504504	48
0	277	167.293018324387	47
0	280	168.277829015652	47
0	285	171.032899220784	45
0	289	171.811748020049	44
0	294	174.192105739577	42
0	296	174.403103763027	43
0	311	181.158130021499	31
0	314	183.490882804937	31
0	318	184.306530146326	30
0	320	185.585025708098	31
0	327	189.987500592286	30
0	329	191.134516317341	31
0	333	192.250928977631	32
0	335	193.510200871028	33
0	340	198.906576152308	32
0	343	199.060508332303	32
0	347	201.986341175737	33
0	349	204.347422692419	34
0	352	204.834356544333	35
0	354	204.894261413032	36
0	359	208.834602129903	34
0	367	211.62694691858	29
0	374	215.518289720351	25
0	381	219.953368503919	21
0	397	235.594080526408	13
0	402	239.32717734847	14
0	404	240.045287306949	15
0	406	241.061003622281	16
0	409	241.709473810727	17
0	411	243.025148140155	18
0	413	243.853586887998	19
0	421	247.410746773075	17
0	423	247.91816665619	18
0	425	248.673280187683	19
0	427	249.401295710228	20
0	432	251.390128858943	18
0	435	253.889639135399	18
0	443	263.378750376129	15
0	445	265.348507445391	16
0	449	269.169657251837	17
0	451	269.729794170172	18
0	453	271.304269932392	19
0	455	271.733777100197	20
0	457	273.214344742569	21
0	462	282.460737985868	21
0	468	285.946663538353	18
0	471	286.86462729969	18
0	473	286.992821821717	19
0	475	287.392278672648	20
0	477	287.602942139951	21
0	479	288.183340013859	22
0	487	290.528654732179	17
0	497	294.240966973206	10
0	503	295.535843730772	7
0	506	296.659014050437	7
0	509	298.318956290377	7
0	514	301.006032004803	5
0	520	303.290068647995	2
0	524	303.59824167117	1
0	527	304.774184213649	1
0	530	307.611533686577	1
0	533	309.24973584273	1
0	536	312.618204234599	1
0	539	312.921378687064	1
0	544	313.661811329901	1
0	547	315.713619861289	2
0	549	315.804336491583	3
0	553	316.492249396342	2
0	555	316.542597862045	3
0	560	320.671798945802	1
0	562	321.548972552787	2
0	564	322.493782814221	3
0	571	327.35414511633	1
0	574	328.750435989597	2
0	576	328.986316783469	3
0	578	329.041664352625	4
0	583	331.835393927591	4
0	585	334.869062474265	5
0	587	337.084111894991	6
0	589	337.990180042789	7
0	591	339.586211367913	8
0	593	341.072601638937	9
0	595	341.6299661082	10
0	597	342.068228011808	11
0	601	342.6725794892	12
0	603	343.365383642914	13
0	606	349.304194477084	14
0	608	350.002565783551	15
0	610	350.15045003732	16
0	618	356.10912904047	14
0	620	356.724967234946	15
0	622	357.103127555856	16
0	624	357.321620505747	17
0	626	357.620196096359	18
0	629	358.425815390569	19
0	638	361.834674907866	13
0	641	362.737269633099	13
0	645	366.879354946282	12
0	647	367.495229954944	13
0	654	374.00677108461	9
0	658	378.10904321184	10
0	667	383.353140426069	5
0	671	386.898793067863	4
0	674	387.594378079552	4
0	680	395.371183978093	1
0	683	397.764683831593	1
0	686	399.345402753882	1
0	689	399.770094778414	1
0	692	401.368161784422	1
0	695	404.949087679345	1
0	697	405.188804392262	2
0	699	405.65799400225	3
0	704	408.091227030953	4
0	708	409.46855857387	3
0	713	413.423581187302	1
0	716	415.986425675682	1
0	718	416.036539428709	2
0	720	416.099914977929	3
0	725	421.522131322894	1
0	727	422.469076610603	2
0	733	426.049821029549	1
0	735	427.71066631049	2
0	737	428.683973213554	3
0	744	434.283384797387	4
0	746	434.837740287698	5
0	748	437.418752318269	6
0	751	438.43108052373	7
0	755	440.968329531137	7
0	757	441.249196974181	8
0	768	448.827847552333	3
0	773	455.507569445046	1
0	776	457.828373102418	1
0	779	458.263719188644	1
0	781	459.118313143151	2
0	783	459.589423826219	3
0	788	463.255689287601	1
0	793	465.597203514825	1
0	799	469.136030262904	1
0	801	470.316505327759	2
0	803	472.210974853298	3
0	807	473.242098205637	3
0	810	474.044466137189	3
0	813	475.829089648791	3
0	815	477.849666096188	4
0	817	477.968538285914	5
0	819	478.619078958295	6
0	823	479.260234722555	7
0	825	480.565302824659	8
0	827	481.169719268187	9
0	829	482.601082422717	10
0	831	483.636090314077	11
0	838	488.622438011744	8
0	841	491.514304195199	8
0	851	498.585029352916	1
0	854	499.619325744859	1
0	856	499.83354689666	2
0	859	500.720937306247	2
0	862	501.900736183112	2
0	865	502.872126321855	2
0	869	504.871386844476	1
0	871	505.109694464873	2
0	875	506.468884104861	1
0	878	509.107206025696	1
0	880	509.271155860104	2
0	886	517.294805290451	1
0	888	517.757082229184	2
0	894	519.916941844862	2
0	896	524.20148601064	3
0	898	524.968492797597	4
0	901	525.370272399427	5
0	907	527.000816957386	2
0	909	527.807650624723	3
0	916	531.781896337514	1
0	918	531.790263647783	2
0	920	532.12133144383	3
0	922	534.769889241971	4
0	924	537.953953189831	5
0	931	539.935102403082	6
0	933	540.076360924565	7
0	936	541.153755178442	8
0	938	543.216384949962	9
0	940	544.687548229357	10
0	942	549.190921143611	11
0	945	550.265975226805	12
0	948	551.29900964683	12
0	952	554.858463100224	11
0	955	555.754744830455	11
0	958	556.402038336197	11
0	963	559.262994159449	9
0	965	562.550559267737	10
0	967	562.591627543246	11
0	969	563.375292393196	12
0	971	563.673555637341	13
0	973	565.091529039963	14
0	976	565.92221865999	14
0	980	567.992351164474	13
0	983	570.36166832115	13
0	989	572.472335530128	10
0	997	577.351655798142	5
0	1004	583.575827156007	5
0	1006	584.060326442745	6
0	1008	586.962781524518	7
0	1012	587.818752358699	8
0	1014	588.801174419251	9
0	1018	590.595487426823	10
0	1022	594.42196570708	11
0	1024	595.1902540123	12
0	1027	596.453216633201	13
0	1029	597.092984249414	14
0	1031	598.097846336734	15
0	1033	599.369946839164	16
0	1035	599.716672705768	17
0	1037	600.944329682722	18
0	1041	601.356967071201	18
0	1044	603.284833050661	18
0	1046	603.385943078693	19
0	1053	608.411340274386	17
0	1055	609.952990151735	18
0	1057	610.302725659851	19
0	1060	611.117444200134	20
0	1063	614.334230872899	20
0	1067	618.351363794969	19
0	1080	628.043161028696	9
0	1085	629.796040145259	10
0	1092	632.343934388731	9
0	1095	633.524727225004	9
0	1098	634.940751258225	9
0	1100	636.070359852811	10
0	1102	636.16735838817	11
0	1104	636.286973039369	12
0	1108	639.648587474717	11
0	1110	640.475311177514	12
0	1114	642.169533342439	11
0	1116	642.764159318885	12
0	1119	645.665757131286	12
0	1125	649.56458000254	9
0	1129	652.248358052225	10
0	1133	653.04921007421	10
0	1137	654.293295787924	9
0	1139	656.220535771259	10
0	1149	659.308206773979	3
0	1151	660.327954748844	4
0	1155	663.053816027844	3
0	1160	663.956650189743	3
0	1162	665.032048984898	4
0	1164	667.747914223387	5
0	1172	672.886810994554	1
0	1175	673.309545361454	1
0	1179	674.01392865283	2
0	1182	674.63920882358	3
0	1190	679.254622918966	1
0	1193	682.210800239462	1
0	1196	683.930798238285	1
0	1199	685.597513677433	1
0	1202	687.705063567248	1
0	1205	691.836393488104	1
0	1211	694.643814498908	1
0	1214	697.035663996632	1
0	1217	698.655184956309	1
0	1220	700.287677259435	1
0	1224	701.957045406439	2
0	1227	702.111458324976	3
0	1229	702.580078418099	4
0	1234	707.275977902935	2
0	1238	708.630839256639	1
0	1242	710.500826935459	2
0	1249	714.902648063362	2
0	1255	718.557044773741	1
0	1257	719.086525444369	2
0	1259	720.199095557602	3
0	1261	720.489453840454	4
0	1264	721.728112878738	5
0	1268	723.457922807828	4
0	1272	725.062384257072	3
0	1277	729.871089037703	1
0	1279	730.396961380498	2
0	1283	731.150302134058	1
0	1286	731.765888985678	1
0	1289	734.05694247363	1
0	1295	736.495228585299	1
0	1297	738.321594920536	2
0	1299	738.341797115584	3
0	1302	739.097579083449	3
0	1305	741.697228745666	3
0	1307	741.898776242566	4
0	1314	743.407137478683	2
0	1319	746.261089596413	1
0	1321	746.483108701149	2
0	1323	746.678201002697	3
0	1325	747.024839335473	4
0	1328	748.897887155868	4
0	1334	751.088782813853	1
0	1337	757.54860465162	1
0	1340	761.75388015018	1
0	1344	762.914223198466	2
0	1346	763.848908581624	3
0	1350	766.9366656492	4
0	1352	767.219939176771	5
0	1354	767.310393098002	6
0	1358	769.027612806346	7
0	1362	773.309336345442	8
0	1370	777.776832196055	4
0	1374	782.377156721	3
0	1379	785.224052161022	1
0	1382	786.447401656682	1
0	1385	787.889324970915	1
0	1388	790.280734874812	1
0	1391	790.831836281913	1
0	1394	794.5748296741	1
0	1397	800.312326456645	1
0	1400	802.088813130211	1
0	1406	802.702025823059	1
0	1409	803.86745907987	1
0	1412	807.249568389667	1
0	1415	816.670878505906	1
0	1417	818.432874262511	2
0	1419	820.219978663585	3
0	1422	820.559301609384	3
0	1427	822.224429331124	1
0	1430	824.588174401618	1
0	1433	826.050616554327	1
0	1436	831.988259997974	1
0	1439	832.901318372121	1
0	1442	834.600178458916	1
0	1444	835.194039076094	2
0	1448	838.361627199905	1
0	1452	841.549856305778	2
0	1455	842.512068627609	3
0	1459	844.767659879332	4
0	1461	846.156653717358	5
0	1463	846.205320275631	6
0	1465	847.821103625813	7
0	1467	848.748669352993	8
0	1469	849.2257007898	9
0	1471	849.832030588155	10
0	1475	856.766654713986	10
0	1479	857.94156997504	9
0	1484	859.961604265041	7
0	1486	860.145620699632	8
0	1491	865.822703510397	6
0	1494	866.152895504604	6
0	1498	866.595651202653	7
0	1506	870.760464227321	3
0	1514	876.014466961295	2
0	1518	878.164511410994	3
0	1523	880.836243080644	1
0	1529	885.257790725663	1
0	1531	885.282075133927	2
0	1535	888.486939883909	3
0	1537	888.690389049825	4
0	1539	888.838556386491	5
0	1541	889.846683417169	6
0	1543	889.846930277589	7
0	1545	890.577328229762	8
0	1550	892.196287638223	7
0	1552	892.475392212656	8
0	1561	899.359391740311	2
0	1564	899.942830860347	2
0	1566	900.386152818068	3
0	1570	902.096612245001	4
0	1572	904.666377402251	5
0	1576	908.614326178269	6
0	1578	909.514751876031	7
0	1580	910.471684333289	8
0	1583	916.001693702788	9
0	1586	917.279171319481	10
0	1588	918.818698694206	11
0	1592	920.310855054593	10
0	1594	920.460487408816	11
0	1597	921.368268554435	11
0	1600	922.766229548648	11
0	1603	923.734117045458	11
0	1605	924.125725963979	12
0	1607	924.239617756386	13
0	1613	926.696444548503	10
0	1624	932.36454263438	2
0	1627	934.198643193326	2
0	1629	935.02812206681	3
0	1632	936.827910913703	3
0	1634	937.035633318768	4
0	1636	937.391969270169	5
0	1638	938.400397732107	6
0	1641	938.744920188816	6
0	1647	941.783104836121	3
0	1649	941.908182872854	4
0	1652	946.978030423237	4
0	1654	948.16219165757	5
0	1660	950.473883535625	4
0	1664	953.382438997045	5
0	1666	953.500765712512	6
0	1673	958.745680402772	4
0	1677	960.629285151367	3
0	1685	964.803397325054	1
0	1687	966.270206153535	2
0	1689	966.97796499859	3
0	1696	973.188565767377	2
0	1698	973.354891716534	3
0	1701	973.56425594802	3
0	1708	977.510733101061	1
0	1710	977.789186205188	2
0	1712	979.070301580942	3
0	1715	980.130803841958	4
0	1717	981.248608990031	5
0	1719	982.855886633886	6
0	1726	984.208036117725	6
0	1728	985.702294552904	7
0	1734	991.102493826843	8
0	1740	994.723081523385	9
0	1745	998.055182379448	10
0	1747	999.58070257781	11
0	1751	1001.552754636151	12
0	1754	1004.532560688673	13
0	1757	1005.044149390713	14
0	1759	1009.744676480691	15
0	1761	1010.74528270046	16
0	1763	1011.323581718809	17
0	1765	1012.289176443787	18
0	1768	1017.294362645381	19
0	1770	1017.485202798298	20
0	1772	1017.735753066695	21
0	1775	1019.529209270182	22
0	1777	1020.822846926549	23
0	1779	1021.326426053914	24
0	1781	1021.396202938727	25
0	1783	1022.924143467162	26
0	1787	1029.450683066385	27
0	1797	1037.467670417027	21
0	1800	1038.601275962266	21
0	1802	1038.995204761602	22
0	1804	1039.061451367263	23
0	1809	1042.082633316419	21
0	1813	1043.172228357903	20
0	1818	1046.130571662611	18
0	1823	1050.783988956986	16
0	1827	1052.676798446214	15
0	1829	1053.009052805698	16
0	1832	1054.07296172494	16
0	1834	1054.879075412906	17
0	1837	1056.131207739758	17
0	1847	1065.55152622347	10
0	1850	1067.32323600641	10
0	1852	1069.604473068836	11
0	1858	1072.891208532089	12
0	1860	1073.638240968189	13
0	1862	1074.30083930938	14
0	1868	1078.491880134911	15
0	1874	1084.10372187337	16
0	1876	1084.406562729132	17
0	1879	1086.064398028615	18
0	1881	1086.703530979406	19
0	1883	1087.240057042203	20
0	1885	1089.893405473187	21
0	1887	1090.719385753331	22
0	1889	1091.842560656092	23
0	1891	1094.333416831852	24
0	1893	1095.538470620736	25
0	1895	1097.376866898789	26
0	1897	1099.03291250299	27
0	1899	1100.332128420027	28
0	1901	1100.548848280027	29
0	1904	1105.191901079885	30
0	1906	1105.685666709245	31
0	1908	1107.810278754297	32
0	1910	1109.393377692003	33
0	1912	1109.861384235109	34
0	1914	1112.179444126439	35
0	1916	1113.534691257221	36
0	1918	1113.818981803338	37
0	1920	1117.321027561627	38
0	1922	1117.513317281335	39
0	1925	1120.480474802471	40
0	1928	1122.94796471435	41
0	1931	1124.566824604728	42
0	1933	1124.681004872584	43
0	1938	1126.157201361988	44
0	1940	1127.469026980378	45
0	1942	1127.506512208781	46
0	1948	1136.727318176787	44
0	1953	1139.302917688896	42
0	1961	1143.065454186994	37
0	1965	1145.349499515374	38
0	1967	1146.368981623989	39
0	1969	1147.006537566831	40
0	1975	1150.668634174198	38
0	1979	1154.565764254784	37
0	1984	1156.600807090823	35
0	1988	1158.064770999993	34
0	1991	1158.312542501996	34
0	1993	1158.422518422479	35
0	1995	1158.770096267779	36
0	1998	1159.725168398375	36
0	2001	1160.723772248546	36
0	2003	1161.512114151598	37
0	2005	1161.871548205486	38
0	2021	1171.623199324503	28
0	2025	1172.65637856109	27
0	2029	1173.334010362413	26
0	2036	1176.814513115337	24
0	2039	1179.612329976644	25
0	2041	1180.258964255321	26
0	2046	1182.664052689313	24
0	2048	1182.714227021205	25
0	2053	1186.864803440982	23
0	2056	1188.017173915058	23
0	2060	1189.232952378286	22
0	2066	1192.417257987945	19
0	2070	1193.867399635374	18
0	2072	1194.23449485536	19
0	2076	1195.969095276514	18
0	2083	1204.77596850751	14
0	2090	1210.003535096125	12
0	2095	1213.97805939434	11
0	2099	1214.734815589935	12
0	2102	1215.411559017854	13
0	2104	1216.936302505745	14
0	2107	1217.241607435794	14
0	2114	1221.380552911466	10
0	2118	1222.149159762071	9
0	2122	1225.037738738886	8
0	2129	1227.409813235186	4
0	2133	1230.905033350069	5
0	2135	1230.930020187377	6
0	2139	1234.379797274238	7
0	2141	1236.155600264002	8
0	2143	1236.765861467713	9
0	2145	1237.84464740697	10
0	2147	1242.581420068489	11
0	2149	1243.087410301412	12
0	2151	1243.412433106785	13
0	2155	1246.520091336135	14
0	2157	1249.074782351442	15
0	2159	1251.435312504645	16
0	2161	1251.59439240065	17
0	2164	1256.686702325383	18
0	2166	1257.999172824539	19
0	2170	1258.796692494408	20
0	2172	1260.719137204684	21
0	2174	1261.553145547857	22
0	2176	1263.213421804429	23
0	2179	1267.712937574036	24
0	2181	1270.997259803969	25
0	2188	1273.512150158743	26
0	2190	1274.18682273782	27
0	2192	1276.555259159769	28
0	2194	1278.092362229049	29
0	2198	1283.910935540259	30
0	2200	1284.208610362691	31
0	2202	1284.290403862319	32
0	2204	1286.057640711995	33
0	2206	1286.318338547918	34
0	2211	1287.47729495203	35
0	2213	1290.090998626203	36
0	2219	1297.768383902283	37
0	2222	1297.872065929392	38
0	2224	1299.566355902642	39
0	2230	1304.235892857955	40
0	2232	1305.172941832832	41
0	2235	1307.180992185961	42
0	2237	1307.882829117256	43
0	2240	1310.026825935919	44
0	2243	1311.24277641163	45
0	2248	1313.251440143675	46
0	2250	1315.613914818826	47
0	2252	1316.93231914514	48
0	2262	1329.481063128936	49
0	2264	1329.929074316345	50
0	2273	1333.350863690027	51
0	2275	1334.855313211235	52
0	2277	1334.882138201156	53
0	2279	1335.352715575179	54
0	2282	1336.735015486242	55
0	2285	1339.08973246004	56
0	2288	1341.990365123712	57
0	2290	1343.561513179764	58
0	2295	1350.832489613703	57
0	2297	1351.518953661712	58
0	2300	1352.762130413925	58
0	2302	1352.907813915457	59
0	2304	1354.132999032431	60
0	2308	1356.33271266982	61
0	2311	1356.817256571792	62
0	2313	1356.97226248152	63
0	2315	1357.135341620707	64
0	2318	1357.395622986319	64
0	2322	1358.420397472338	65
0	2324	1359.804713553336	66
0	2326	1360.680588469184	67
0	2330	1364.678232922706	68
0	2332	1365.006521937601	69
0	2338	1372.400128517137	70
0	2340	1373.201914396692	71
0	2342	1373.241704640554	72
0	2349	1376.281856761983	73
0	2351	1376.640287725521	74
0	2353	1377.364190042001	75
0	2355	1377.778940908557	76
0	2357	1378.350686618239	77
0	2359	1378.473570204762	78
0	2365	1383.43374683441	79
0	2370	1394.225507081035	80
0	2372	1394.245065891916	81
0	2374	1396.652285177269	82
0	2376	1399.224491337852	83
0	2380	1401.806413721447	84
0	2382	1402.635915223448	85
0	2385	1405.963928874789	86
0	2387	1406.234102926665	87
0	2389	1406.254759817356	88
0	2391	1407.493484732061	89
0	2393	1409.832764905433	90
0	2399	1414.88852586247	91
0	2401	1416.368646333902	92
0	2403	1416.68236979358	93
0	2407	1419.278318224631	94
0	2417	1428.456569498232	95
0	2419	1431.625511037518	96
0	2421	1432.255983273206	97
0	2424	1433.365593507154	98
0	2428	1437.475345674541	98
0	2432	1438.15276690961	97
0	2437	1442.901075921537	95
0	2439	1442.911511868054	96
0	2445	1447.522437591909	93
0	2452	1451.148867336358	89
0	2455	1451.867655928141	89
0	2457	1452.479565257249	90
0	2460	1453.778742076989	90
0	2462	1453.984710821379	91
0	2466	1456.252039428424	90
0	2468	1456.924070948378	91
0	2470	1458.640446209903	92
0	2472	1459.670366647957	93
0	2478	1462.278683936061	90
0	2480	1462.536655483491	91
0	2485	1464.705461498357	89
0	2487	1464.76386169049	90
0	2492	1467.659225270889	88
0	2494	1467.861284908667	89
0	2503	1470.770836575743	86
0	2506	1471.61414038166	86
0	2508	1472.035571971401	87
0	2510	1472.552181684138	88
0	2512	1472.628124725072	89
0	2514	1472.810446471767	90
0	2518	1474.009148351613	91
0	2525	1479.607678604679	92
0	2527	1479.650008924763	93
0	2531	1479.747247256387	94
0	2533	1481.808463356678	95
0	2537	1484.53095161978	96
0	2541	1485.6664047846	97
0	2543	1487.524517912776	98
0	2550	1495.736783470795	99
0	2554	1500.13741594626	100
0	2556	1503.074902012189	101
0	2559	1504.878897928251	102
0	2561	1510.06965531379	103
0	2563	1511.805195695927	104
0	2571	1515.56808592164	105
0	2573	1516.492577812988	106
0	2575	1516.941804655535	107
0	2579	1520.260348528563	108
0	2581	1523.968416990637	109
0	2587	1529.823054921884	110
0	2589	1532.40516030945	111
0	2595	1535.010210281566	112
0	2597	1535.134404224337	113
0	2599	1535.535958476586	114
0	2601	1536.521103283032	115
0	2605	1537.039035148885	116
0	2609	1540.068974900623	117
0	2611	1542.401352919203	118
0	2613	1543.410907217013	119
0	2618	1546.746406072561	120
0	2620	1546.774372367344	121
0	2622	1547.007819416079	122
0	2624	1547.926799176729	123
0	2626	1552.147838640419	124
0	2628	1553.834478484334	125
0	2633	1557.667594821035	126
0	2635	1558.49035517357	127
0	2637	1559.82253959389	128
0	2640	1564.54929005913	129
0	2642	1565.500372314744	130
0	2644	1566.755365686127	131
0	2650	1572.361098676231	132
0	2652	1576.025400308147	133
0	2655	1576.928423268717	134
0	2658	1578.076642949075	135
0	2660	1578.84595497133	136
0	2662	1578.959848777432	137
0	2664	1580.042782460382	138
0	2666	1581.5897888249	139
0	2668	1582.822147179523	140
0	2670	1583.098253515704	141
0	2672	1583.67367208846	142
0	2674	1583.737254465813	143
0	2676	1588.631894931082	144
0	2678	1588.710680895391	145
0	2685	1591.194391115452	146
0	2688	1592.241852524646	147
0	2692	1593.083619179107	148
0	2694	1593.259869600618	149
0	2696	1593.459612494361	150
0	2701	1596.340432635559	151
0	2703	1596.586493796738	152
0	2705	1599.441269764121	153
0	2708	1600.670240580419	154
0	2710	1600.688220480769	155
0	2716	1607.078608580292	152
0	2720	1610.907216422808	151
0	2727	1614.340824444118	151
0	2733	1617.148360188712	152
0	2735	1617.630814826976	153
0	2737	1617.984120896204	154
0	2739	1619.121979213624	155
0	2742	1621.55721109442	156
0	2745	1622.690773050701	156
0	2749	1624.763762814084	155
0	2752	1625.379951482635	155
0	2761	1630.614229401254	152
0	2764	1630.845818631929	152
0	2768	1631.741329519332	151
0	2773	1635.600733087832	149
0	2776	1637.543667257938	149
0	2779	1637.604251083474	149
0	2782	1639.122406122228	149
0	2784	1639.367493604565	150
0	2789	1641.965945518554	150
0	2793	1645.624032345953	151
0	2795	1646.148256681661	152
0	2798	1651.814035206315	153
0	2801	1655.40008456131	154
0	2803	1656.619392924484	155
0	2809	1665.249805965979	154
0	2814	1669.021654398642	153
0	2819	1671.01167794723	153
0	2821	1671.318441190302	154
0	2823	1671.929868266994	155
0	2825	1675.029177343293	156
0	2827	1675.173622492903	157
0	2829	1675.763871847763	158
0	2831	1676.283149019407	159
0	2835	1677.751300095034	159
0	2843	1680.800376678757	159
0	2845	1681.034677976464	160
0	2850	1683.345153236047	159
0	2853	1683.675295323235	159
0	2855	1683.906711331139	160
0	2864	1690.175915087465	160
0	2868	1690.80897598545	159
0	2871	1692.391594603022	159
0	2873	1693.39067981028	160
0	2875	1694.468831213104	161
0	2886	1702.108858835407	157
0	2889	1707.195299409335	158
0	2892	1707.663680800666	159
0	2895	1708.761451065317	159
0	2897	1709.20456580531	160
0	2900	1710.633415942205	160
0	2903	1710.650008633857	160
0	2905	1710.911041595126	161
0	2912	1716.718663764525	157
0	2917	1721.839937690922	155
0	2920	1722.168836764989	155
0	2922	1722.384120903657	156
0	2929	1727.390813812328	152
0	2932	1727.858657791157	152
0	2944	1736.774381621748	143
0	2946	1737.302852987631	144
0	2948	1738.772951558168	145
0	2952	1741.696522797033	144
0	2954	1742.246750413176	145
0	2956	1744.088811906717	146
0	2961	1746.256745508211	144
0	2966	1748.189219436818	142
0	2969	1748.316443152303	142
0	2974	1750.742969231214	142
0	2978	1755.317597211361	142
0	2983	1757.312567299481	142
0	2985	1759.91085731417	143
0	2990	1762.033804201569	144
0	2992	1762.073743976853	145
0	2994	1762.250877000071	146
0	2996	1762.988203362313	147
0	2998	1764.311751213944	148
0	3000	1765.054125485068	149
0	3004	1765.477148416758	150
0	3006	1766.538884874557	151
0	3010	1767.065026651097	152
0	3014	1769.330225752647	153
0	3020	1771.987076524945	154
0	3024	1773.618554551468	155
0	3029	1778.355311218823	156
0	3032	1778.989112695747	157
0	3036	1781.435655281273	158
0	3038	1781.584185219556	159
0	3041	1784.894527739285	160
0	3043	1785.29567954008	161
0	3045	1786.001621338979	162
0	3056	1797.70107791205	162
0	3060	1802.955324490015	162
0	3066	1808.260312486682	159
0	3074	1810.318492812979	154
0	3077	1810.57725741856	154
0	3080	1811.408723382592	154
0	3083	1812.360347638287	154
0	3085	1812.486865299012	155
0	3088	1813.777075997864	155
0	3090	1813.811741997422	156
0	3092	1814.089722332653	157
0	3099	1816.080086549652	155
0	3101	1816.765702277005	156
0	3108	1821.224911489745	155
0	3110	1821.962481606768	156
0	3112	1822.877134146874	157
0	3114	1823.113745005332	158
0	3119	1828.01154715136	157
0	3123	1829.604875567456	156
0	3125	1829.980828238735	157
0	3127	1830.111715658402	158
0	3129	1832.324113340383	159
0	3131	1832.597449466641	160
0	3133	1832.976394422932	161
0	3135	1833.074165905773	162
0	3140	1838.142521328649	160
0	3142	1838.221838318051	161
0	3147	1839.496244878039	159
0	3155	1843.822062712117	154
0	3159	1846.197728269745	153
0	3168	1852.786817534372	150
0	3170	1854.591786204581	151
0	3173	1855.011352202279	151
0	3180	1856.966951733992	147
0	3182	1857.076542216142	148
0	3186	1861.037936738767	149
0	3193	1863.931985984928	149
0	3200	1867.797279138652	145
0	3204	1869.701167572381	144
0	3208	1870.919375119475	143
0	3210	1871.378242349026	144
0	3214	1872.472042960357	143
0	3218	1873.515735167893	142
0	3222	1874.220938716602	141
0	3225	1875.782872223371	141
0	3228	1876.422271519156	141
0	3230	1877.140180372836	142
0	3232	1878.631903343161	143
0	3237	1879.228105495049	141
0	3243	1880.783114408648	138
0	3246	1881.663911144356	138
0	3248	1882.597272201901	139
0	3257	1886.665713635795	135
0	3259	1891.617838724593	136
0	3261	1891.670117772426	137
0	3268	1895.779474611714	134
0	3270	1896.116275877029	135
0	3278	1900.786746581119	130
0	3280	1901.301119833994	131
0	3285	1903.061407798176	129
0	3287	1904.632438087334	130
0	3289	1904.880379205288	131
0	3291	1905.004984284445	132
0	3293	1905.394390126876	133
0	3296	1906.283663052033	133
0	3298	1906.358565756057	134
0	3300	1908.507437222834	135
0	3313	1917.499050283983	131
0	3319	1919.910722395268	132
0	3321	1920.233620546472	133
0	3323	1920.975990478991	134
0	3330	1923.98708530183	132
0	3333	1926.446090840758	132
0	3336	1927.363747184354	132
0	3339	1928.690507136593	132
0	3346	1933.128807906388	132
0	3348	1934.201000344892	133
0	3352	1934.765414938596	134
0	3357	1936.775315346694	135
0	3360	1938.138017642265	136
0	3362	1942.609579697262	137
0	3365	1944.413427350428	138
0	3371	1947.140869203252	136
0	3377	1948.506799977793	135
0	3379	1948.580906247598	136
0	3381	1949.393642332651	137
0	3383	1950.67933020201	138
0	3387	1953.945621165421	139
0	3389	1954.212612720131	140
0	3394	1956.293120106326	141
0	3396	1956.771572776127	142
0	3399	1959.400051236111	143
0	3401	1959.783652727314	144
0	3403	1959.796618849408	145
0	3405	1960.330420710775	146
0	3407	1961.415544560519	147
0	3411	1963.790747443347	148
0	3416	1966.178909613872	149
0	3418	1969.350626176295	150
0	3430	1979.864377795897	146
0	3432	1980.17808314611	147
0	3438	1983.14290595447	144
0	3442	1985.096421069128	143
0	3449	1990.033983183023	139
0	3452	1991.825569875772	139
0	3456	1994.720116025837	138
0	3460	1995.842029398481	137
1	0	0	0
1	2	0.483345549305	0
1	4	1.77292312793	1
1	5	2.297007889876	1
1	6	4.021486627591	0
1	8	6.577786274493	0
1	9	10.092236871791	0
1	11	11.030709252231	0
1	12	12.14415745707	0
1	16	14.42982159326	0
1	18	14.485039599874	1
1	23	19.16936511003	2
1	25	21.594097714438	3
1	27	24.048439133514	4
1	34	25.813504887527	5
1	36	26.064804139332	6
1	38	27.352924240066	7
1	40	27.546829088397	8
1	42	28.797067825233	9
1	47	30.448021860238	10
1	51	31.01966592638	11
1	53	32.714184133282	12
1	55	35.255147637124	13
1	57	35.334619824616	14
1	59	35.977746205312	15
1	61	36.768421720049	16
1	64	42.074878265121	17
1	66	42.762164948198	18
1	71	47.750791630361	19
1	73	49.179791417589	20
1	75	51.366923409079	21
1	77	52.091294505071	22
1	79	52.868595561907	23
1	82	53.386326060889	23
1	84	53.592671247862	23
1	85	53.721212971733	23
1	86	54.344405881401	22
1	88	55.139844138321	22
1	90	55.448880680744	23
1	91	55.819385400867	23
1	93	56.071022786494	23
1	95	56.145035577804	24
1	96	56.248968301558	24
1	97	56.521540099528	23
1	98	56.876707090912	22
1	99	57.003125136211	21
1	101	60.489567409643	21
1	105	61.508671422063	22
1	107	61.514258539952	23
1	109	64.261741748095	24
1	111	67.368333177343	24
1	115	67.496245114453	24
1	117	71.35784334079	25
1	121	73.281544106674	26
1	127	75.408114275318	27
1	134	81.437427723441	28
1	138	88.217351716961	29
1	140	88.898809590333	30
1	144	90.962523242044	31
1	146	93.128320010226	32
1	148	95.855564019058	33
1	150	98.970502766114	34
1	156	102.538116137205	35
1	158	102.658316156349	36
1	160	102.670267901075	37
1	166	107.274240907106	38
1	170	108.798625338148	39
1	172	108.946892507787	40
1	177	114.019146775528	41
1	179	116.37933750081	42
1	181	116.784264897133	43
1	183	117.055823238072	44
1	185	125.733479086457	45
1	187	127.938935740591	46
1	189	129.207153609404	47
1	191	129.340098776046	48
1	195	130.965120061323	49
1	197	131.266187433725	50
1	199	131.844567202916	51
1	201	132.586115680818	52
1	204	133.732093164499	53
1	206	133.842741085846	54
1	210	137.3302927525	55
1	212	137.911216307867	56
1	214	139.937852249124	57
1	216	140.139446292218	58
1	220	143.602731959034	59
1	222	144.596793575999	60
1	225	145.26317402133	61
1	227	149.618186179635	62
1	229	150.816514011472	63
1	231	151.169106901475	64
1	233	151.553492457799	65
1	235	152.572829874229	65
1	237	152.659265368199	65
1	239	152.751344868524	66
1	240	152.801833150076	66
1	241	152.889573253737	65
1	242	153.312912430325	64
1	243	154.569634480418	63
1	244	154.808399475995	62
1	245	154.937268317609	61
1	246	155.292316166202	60
1	247	156.06964321985	59
1	248	156.49070498168	58
1	250	156.602732523172	58
1	251	157.14729885912	58
1	253	158.796694308509	58
1	254	159.554824789724	58
1	256	159.605354833978	58
1	258	160.395554706528	59
1	259	160.406413380994	59
1	260	160.552181385951	58
1	261	161.49984300741	57
1	262	161.716523810442	56
1	263	161.718614371395	55
1	264	161.89393122105	54
1	265	161.929185138695	53
1	266	162.218322769938	52
1	267	162.337282487417	51
1	268	163.164355956004	50
1	269	163.700758091746	49
1	270	166.342525109221	48
1	271	166.607126819513	47
1	273	166.693175504504	47
1	274	166.965792705223	47
1	275	167.155014715008	46
1	277	167.293018324387	46
1	278	167.301903333056	46
1	280	168.277829015652	46
1	281	168.651103306516	46
1	282	170.100955860122	45
1	283	170.433317140499	44
1	285	171.032899220784	44
1	286	171.355974272152	44
1	287	171.467398874266	43
1	289	171.811748020049	43
1	290	172.426750504504	43
1	291	172.682706701757	42
1	292	173.781664424538	41
1	294	174.192105739577	41
1	296	174.403103763027	42
1	297	175.195947588076	42
1	298	176.546308805641	41
1	299	176.570382827325	40
1	300	177.090758228691	39
1	301	177.732461221374	38
1	302	177.924512816659	37
1	303	178.094172500742	36
1	304	178.283506206458	35
1	305	178.841006340252	34
1	306	179.240928419281	33
1	307	179.419799191775	32
1	308	180.434259529308	31
1	309	180.591980504683	30
1	311	181.158130021499	30
1	312	183.421285292897	30
1	314	183.490882804937	30
1	315	183.840602594154	30
1	316	184.152790051806	29
1	318	184.306530146326	29
1	320	185.585025708098	30
1	321	185.619829731976	30
1	322	185.708718030729	29
1	327	189.987500592286	29
1	329	191.134516317341	30
1	333	192.250928977631	31
1	335	193.510200871028	32
1	337	198.474437367083	32
1	338	198.481377602626	31
1	340	198.906576152308	31
1	341	198.962092077866	31
1	343	199.060508332303	31
1	347	201.986341175737	32
1	349	204.347422692419	33
1	352	204.834356544333	34
1	354	204.894261413032	35
1	355	206.471510697343	35
1	356	206.922471141935	34
1	357	207.478676237653	33
1	359	208.834602129903	33
1	360	209.199720628355	33
1	361	209.394343027463	32
1	362	209.53005550635	31
1	363	209.681417424762	30
1	364	210.220021005726	29
1	365	210.856724400627	28
1	367	211.62694691858	28
1	368	212.86838635427	28
1	369	213.359796180893	27
1	370	213.565893125385	26
1	371	213.686943256521	25
1	372	214.778856726334	24
1	374	215.518289720351	24
1	375	217.091127586054	24
1	376	217.778659041151	23
1	377	219.501957498439	22
1	378	219.685375441059	21
1	379	219.787191665631	20
1	381	219.953368503919	20
1	382	222.284725698473	20
1	383	222.463617556183	19
1	384	222.769457378927	18
1	385	222.978070494154	17
1	386	223.334517111333	16
1	387	224.751608289777	15
1	391	231.91307537327	14
1	392	234.050750652556	13
1	393	234.639215351221	12
1	397	235.594080526408	12
1	402	239.32717734847	13
1	404	240.045287306949	14
1	406	241.061003622281	15
1	409	241.709473810727	16
1	411	243.025148140155	17
1	413	243.853586887998	18
1	414	244.418342830613	18
1	418	247.267954446629	17
1	419	247.360783406962	16
1	421	247.410746773075	16
1	423	247.91816665619	17
1	425	248.673280187683	18
1	427	249.401295710228	19
1	428	249.508537927453	19
1	429	250.086704863403	18
1	430	250.128189786907	17
1	432	251.390128858943	17
1	433	252.561809088401	17
1	435	253.889639135399	17
1	436	255.428086784922	17
1	437	255.56702704662	16
1	438	255.734597875783	15
1	439	262.658738545759	14
1	443	263.378750376129	14
1	445	265.348507445391	15
1	449	269.169657251837	16
1	451	269.729794170172	17
1	453	271.304269932392	18
1	455	271.733777100197	19
1	457	273.214344742569	20
1	460	281.303242626951	20
1	462	282.460737985868	20
1	463	284.281308505966	20
1	464	284.551618247322	19
1	465	285.296424576715	18
1	466	285.669328277154	17
1	468	285.946663538353	17
1	469	286.663353897632	17
1	471	286.86462729969	17
1	473	286.992821821717	18
1	475	287.392278672648	19
1	477	287.602942139951	20
1	479	288.183340013859	21
1	480	288.537720845028	21
1	481	288.698352541088	20
1	482	289.009962989874	19
1	483	289.623463437634	18
1	484	290.013877871007	17
1	485	290.149527525536	16
1	487	290.528654732179	16
1	488	290.849644382231	16
1	489	291.247352531262	15
1	490	292.290333009691	14
1	491	292.389836392782	13
1	492	292.525600911358	12
1	493	292.577118459102	11
1	494	293.218256974437	10
1	495	293.658132945721	9
1	497	294.240966973206	9
1	498	294.757835003436	9
1	499	294.975084003457	8
1	500	295.207531491498	7
1	501	295.300505563969	6
1	503	295.535843730772	6
1	504	295.624441516881	6
1	506	296.659014050437	6
1	507	297.973634793447	6
1	509	298.318956290377	6
1	510	298.96563698223	6
1	511	299.638485190698	5
1	512	300.478760955862	4
1	514	301.006032004803	4
1	515	302.141149501895	4
1	516	302.404207765934	3
1	517	302.510515081562	2
1	518	302.717317722329	1
1	520	303.290068647995	1
1	521	303.305303759449	1
1	522	303.344116325109	0
1	524	303.59824167117	0
1	525	304.075378853982	0
1	527	304.774184213649	0
1	528	304.787408192885	0
1	530	307.611533686577	0
1	531	308.594978134909	0
1	533	309.24973584273	0
1	534	310.801857371135	0
1	536	312.618204234599	0
1	537	312.876217034401	0
1	539	312.921378687064	0
1	540	313.129106553182	0
1	544	313.661811329901	0
1	547	315.713619861289	1
1	549	315.804336491583	2
1	550	315.832491342505	2
1	551	316.141078308335	1
1	553	316.492249396342	1
1	555	316.542597862045	2
1	556	316.553286732731	2
1	557	317.075639796457	1
1	558	317.847689737246	0
1	560	320.671798945802	0
1	562	321.548972552787	1
1	564	322.493782814221	2
1	565	322.624101378052	2
1	566	322.865908524977	1
1	567	323.361495989812	0
1	571	327.35414511633	0
1	574	328.750435989597	1
1	576	328.986316783469	2
1	578	329.041664352625	3
1	579	329.645650985845	3
1	583	331.835393927591	3
1	585	334.869062474265	4
1	587	337.084111894991	5
1	589	337.990180042789	6
1	591	339.586211367913	7
1	593	341.072601638937	8
1	595	341.6299661082	9
1	597	342.068228011808	10
1	601	342.6725794892	11
1	603	343.365383642914	12
1	606	349.304194477084	13
1	608	350.002565783551	14
1	610	350.15045003732	15
1	612	352.064309677289	15
1	613	352.434033910271	14
1	614	353.483377881073	13
1	618	356.10912904047	13
1	620	356.724967234946	14
1	622	357.103127555856	15
1	624	357.321620505747	16
1	626	357.620196096359	17
1	629	358.425815390569	18
1	630	358.492393602124	18
1	631	358.520096493301	17
1	632	358.580614415792	16
1	633	358.787164542049	15
1	634	360.18836324094	14
1	635	361.58945727805	13
1	636	361.70947046138	12
1	638	361.834674907866	12
1	639	361.857585065066	12
1	641	362.737269633099	12
1	642	365.206504113267	12
1	643	365.911752721132	11
1	645	366.879354946282	11
1	647	367.495229954944	12
1	648	367.805927895951	12
1	649	370.246570500104	11
1	650	372.436573931861	10
1	651	372.809511695183	9
1	652	373.392699900023	8
1	654	374.00677108461	8
1	658	378.10904321184	9
1	660	379.553593299034	9
1	661	381.826108563282	8
1	662	382.101540306854	7
1	663	382.180658078595	6
1	664	382.569021069331	5
1	665	382.577990475512	4
1	667	383.353140426069	4
1	668	383.806160520588	4
1	669	386.014651783207	3
1	671	386.898793067863	3
1	672	387.164431982229	3
1	674	387.594378079552	3
1	675	387.917839564524	3
1	676	388.127993241826	2
1	677	388.151539792827	1
1	678	389.251131101907	0
1	680	395.371183978093	0
1	681	396.7550975885	0
1	683	397.764683831593	0
1	684	398.695541526468	0
1	686	399.345402753882	0
1	687	399.561504939386	0
1	689	399.770094778414	0
1	690	399.969468022123	0
1	692	401.368161784422	0
1	693	403.808633133913	0
1	695	404.949087679345	0
1	697	405.188804392262	1
1	699	405.65799400225	2
1	704	408.091227030953	3
1	705	408.150345114587	3
1	706	408.521804003605	2
1	708	409.46855857387	2
1	709	410.376965807868	2
1	710	410.854928562186	1
1	711	412.998002838122	0
1	713	413.423581187302	0
1	714	413.683242582223	0
1	716	415.986425675682	0
1	718	416.036539428709	1
1	720	416.099914977929	2
1	721	416.213598072884	2
1	722	420.593972178954	1
1	723	421.114616437711	0
1	725	421.522131322894	0
1	727	422.469076610603	1
1	728	422.513680599867	1
1	729	423.160977053986	0
1	733	426.049821029549	0
1	735	427.71066631049	1
1	737	428.683973213554	2
1	744	434.283384797387	3
1	746	434.837740287698	4
1	748	437.418752318269	5
1	751	438.43108052373	6
1	753	440.175109570383	6
1	755	440.968329531137	6
1	757	441.249196974181	7
1	758	441.522716402907	7
1	759	441.90641561312	6
1	760	441.924127292709	5
1	764	444.691606366907	4
1	765	447.555387356467	3
1	766	448.236421618453	2
1	768	448.827847552333	2
1	769	449.410441112561	2
1	770	450.682016868643	1
1	771	453.316123071771	0
1	773	455.507569445046	0
1	774	455.53419452719	0
1	776	457.828373102418	0
1	777	457.872397342868	0
1	779	458.263719188644	0
1	781	459.118313143151	1
1	783	459.589423826219	2
1	784	460.305026031753	2
1	785	461.194396434891	1
1	786	461.508045741796	0
1	788	463.255689287601	0
1	789	463.594552679268	0
1	793	465.597203514825	0
1	795	468.30450185766	0
1	799	469.136030262904	0
1	801	470.316505327759	1
1	803	472.210974853298	2
1	805	472.861453276861	2
1	807	473.242098205637	2
1	808	473.562511883121	2
1	810	474.044466137189	2
1	811	474.322712404089	2
1	813	475.829089648791	2
1	815	477.849666096188	3
1	817	477.968538285914	4
1	819	478.619078958295	5
1	823	479.260234722555	6
1	825	480.565302824659	7
1	827	481.169719268187	8
1	829	482.601082422717	9
1	831	483.636090314077	10
1	833	485.575065492842	10
1	834	486.136972116787	9
1	835	486.393533608365	8
1	836	487.291816344709	7
1	838	488.622438011744	7
1	839	490.050057159831	7
1	841	491.514304195199	7
1	842	493.564541772808	7
1	843	493.953235684345	6
1	844	495.511138163102	5
1	845	495.565149630464	4
1	846	496.234325458978	3
1	847	496.688714186229	2
1	848	497.458628729878	1
1	849	497.460587308805	0
1	851	498.585029352916	0
1	852	499.576287061012	0
1	854	499.619325744859	0
1	856	499.83354689666	1
1	857	500.388601613482	1
1	859	500.720937306247	1
1	860	501.664451555599	1
1	862	501.900736183112	1
1	863	502.858055532253	1
1	865	502.872126321855	1
1	866	503.059884447998	1
1	867	504.237302840282	0
1	869	504.871386844476	0
1	871	505.109694464873	1
1	872	505.303593561781	1
1	873	505.653773489092	0
1	875	506.468884104861	0
1	876	506.70817942861	0
1	878	509.107206025696	0
1	880	509.271155860104	1
1	881	510.085439262294	1
1	882	510.694125289418	0
1	886	517.294805290451	0
1	888	517.757082229184	1
1	890	518.860990001548	1
1	894	519.916941844862	1
1	896	524.20148601064	2
1	898	524.968492797597	3
1	901	525.370272399427	4
1	902	525.484351444473	4
1	903	525.809899449454	3
1	904	526.612508416436	2
1	905	526.810551825499	1
1	907	527.000816957386	1
1	909	527.807650624723	2
1	910	527.986850714858	2
1	911	529.064982173129	1
1	912	529.787538595867	0
1	916	531.781896337514	0
1	918	531.790263647783	1
1	920	532.12133144383	2
1	922	534.769889241971	3
1	924	537.953953189831	4
1	931	539.935102403082	5
1	933	540.076360924565	6
1	936	541.153755178442	7
1	938	543.216384949962	8
1	940	544.687548229357	9
1	942	549.190921143611	10
1	945	550.265975226805	11
1	946	550.770720435978	11
1	948	551.29900964683	11
1	949	551.941394513684	11
1	950	553.151017182569	10
1	952	554.858463100224	10
1	953	555.738960241353	10
1	955	555.754744830455	10
1	956	556.123710018547	10
1	958	556.402038336197	10
1	959	557.066686104139	10
1	960	557.649627697478	9
1	961	558.501590177278	8
1	963	559.262994159449	8
1	965	562.550559267737	9
1	967	562.591627543246	10
1	969	563.375292393196	11
1	971	563.673555637341	12
1	973	565.091529039963	13
1	974	565.142032638319	13
1	976	565.92221865999	13
1	977	566.381587427387	13
1	978	567.703508222218	12
1	980	567.992351164474	12
1	981	568.161987553992	12
1	983	570.36166832115	12
1	984	570.916464164286	12
1	985	571.374396380031	11
1	986	571.850127865005	10
1	987	572.454505055253	9
1	989	572.472335530128	9
1	990	572.890148751394	9
1	991	573.677357184037	8
1	992	573.775049412454	7
1	993	574.235145697047	6
1	994	574.806432046383	5
1	995	576.600897756341	4
1	997	577.351655798142	4
1	998	578.447435399213	4
1	1004	583.575827156007	4
1	1006	584.060326442745	5
1	1008	586.962781524518	6
1	1012	587.818752358699	7
1	1014	588.801174419251	8
1	1018	590.595487426823	9
1	1022	594.42196570708	10
1	1024	595.1902540123	11
1	1027	596.453216633201	12
1	1029	597.092984249414	13
1	1031	598.097846336734	14
1	1033	599.369946839164	15
1	1035	599.716672705768	16
1	1037	600.944329682722	17
1	1039	601.176131640379	17
1	1041	601.356967071201	17
1	1042	601.473287955297	17
1	1044	603.284833050661	17
1	1046	603.385943078693	18
1	1047	604.016410080265	18
1	1048	605.594686238418	17
1	1049	605.843763649528	16
1	1053	608.411340274386	16
1	1055	609.952990151735	17
1	1057	610.302725659851	18
1	1060	611.117444200134	19
1	1061	612.693710589606	19
1	1063	614.334230872899	19
1	1064	616.260038114756	19
1	1065	616.910264030062	18
1	1067	618.351363794969	18
1	1068	621.101556110749	18
1	1069	621.360184467423	17
1	1070	621.750365193472	16
1	1071	621.941925819646	15
1	1072	622.222073310683	14
1	1073	622.45752956769	13
1	1074	624.268371728358	12
1	1075	626.033064031248	11
1	1076	626.087437309492	10
1	1077	627.061216083317	9
1	1078	627.517035150398	8
1	1080	628.043161028696	8
1	1085	629.796040145259	9
1	1086	630.07405771565	9
1	1090	631.965767552523	8
1	1092	632.343934388731	8
1	1093	632.705243660737	8
1	1095	633.524727225004	8
1	1096	634.156968734647	8
1	1098	634.940751258225	8
1	1100	636.070359852811	9
1	1102	636.16735838817	10
1	1104	636.286973039369	11
1	1105	636.830026180769	11
1	1106	638.020565874761	10
1	1108	639.648587474717	10
1	1110	640.475311177514	11
1	1111	641.460765012231	11
1	1112	641.56535264483	10
1	1114	642.169533342439	10
1	1116	642.764159318885	11
1	1117	644.685157662245	11
1	1119	645.665757131286	11
1	1120	646.491244799072	11
1	1121	648.458351468568	10
1	1122	648.955820289242	9
1	1123	649.106795283252	8
1	1125	649.56458000254	8
1	1129	652.248358052225	9
1	1131	652.838467707808	9
1	1133	653.04921007421	9
1	1134	653.059796871279	9
1	1135	653.999098438106	8
1	1137	654.293295787924	8
1	1139	656.220535771259	9
1	1140	656.978940870332	9
1	1141	657.200249918461	8
1	1142	657.753653373967	7
1	1143	657.904907351187	6
1	1144	657.92849846486	5
1	1145	658.033341013783	4
1	1146	658.546116431544	3
1	1147	659.25301521723	2
1	1149	659.308206773979	2
1	1151	660.327954748844	3
1	1152	662.274153151086	3
1	1153	662.714111869128	2
1	1155	663.053816027844	2
1	1156	663.173939456853	2
1	1160	663.956650189743	2
1	1162	665.032048984898	3
1	1164	667.747914223387	4
1	1166	669.286619093588	4
1	1167	670.743346271469	3
1	1168	671.053202582464	2
1	1169	671.929878394268	1
1	1170	672.345386576536	0
1	1172	672.886810994554	0
1	1173	673.263511330808	0
1	1175	673.309545361454	0
1	1179	674.01392865283	1
1	1182	674.63920882358	2
1	1183	675.110898057017	2
1	1184	675.49858037066	1
1	1188	678.229499263674	0
1	1190	679.254622918966	0
1	1191	680.606925615618	0
1	1193	682.210800239462	0
1	1194	683.565699712218	0
1	1196	683.930798238285	0
1	1197	684.30046953753	0
1	1199	685.597513677433	0
1	1200	686.261685215803	0
1	1202	687.705063567248	0
1	1203	688.010005724495	0
1	1205	691.836393488104	0
1	1206	692.555460495093	0
1	1211	694.643814498908	0
1	1212	695.576078239591	0
1	1214	697.035663996632	0
1	1215	698.437379918958	0
1	1217	698.655184956309	0
1	1218	699.07503523408	0
1	1220	700.287677259435	0
1	1224	701.957045406439	1
1	1227	702.111458324976	2
1	1229	702.580078418099	3
1	1230	704.070713334222	3
1	1231	704.505877506383	2
1	1232	706.534617860708	1
1	1234	707.275977902935	1
1	1235	707.462407970505	1
1	1236	707.698821049507	0
1	1238	708.630839256639	0
1	1242	710.500826935459	1
1	1244	710.863618372348	1
1	1249	714.902648063362	1
1	1250	715.932917589665	1
1	1251	716.115967131376	0
1	1255	718.557044773741	0
1	1257	719.086525444369	1
1	1259	720.199095557602	2
1	1261	720.489453840454	3
1	1264	721.728112878738	4
1	1265	722.673796959912	4
1	1266	723.209319390042	3
1	1268	723.457922807828	3
1	1269	724.186538068612	3
1	1270	725.00693370596	2
1	1272	725.062384257072	2
1	1273	725.204043839697	2
1	1274	726.43023578383	1
1	1275	726.857387299142	0
1	1277	729.871089037703	0
1	1279	730.396961380498	1
1	1280	730.480396235819	1
1	1281	730.909764300971	0
1	1283	731.150302134058	0
1	1284	731.623702132798	0
1	1286	731.765888985678	0
1	1287	731.884219315402	0
1	1289	734.05694247363	0
1	1293	734.704006535755	0
1	1295	736.495228585299	0
1	1297	738.321594920536	1
1	1299	738.341797115584	2
1	1300	738.358595301593	2
1	1302	739.097579083449	2
1	1303	741.314012030937	2
1	1305	741.697228745666	2
1	1307	741.898776242566	3
1	1308	742.50577364906	3
1	1309	742.709161179822	2
1	1310	742.90320414112	1
1	1314	743.407137478683	1
1	1316	744.624705309985	1
1	1317	746.227145545985	0
1	1319	746.261089596413	0
1	1321	746.483108701149	1
1	1323	746.678201002697	2
1	1325	747.024839335473	3
1	1326	747.339095959824	3
1	1328	748.897887155868	3
1	1329	748.940795604107	3
1	1330	749.039758157152	2
1	1331	749.738543428195	1
1	1332	750.761586875755	0
1	1334	751.088782813853	0
1	1335	751.94612384553	0
1	1337	757.54860465162	0
1	1338	758.136681154954	0
1	1340	761.75388015018	0
1	1344	762.914223198466	1
1	1346	763.848908581624	2
1	1350	766.9366656492	3
1	1352	767.219939176771	4
1	1354	767.310393098002	5
1	1358	769.027612806346	6
1	1362	773.309336345442	7
1	1364	774.028383789665	7
1	1365	774.300541880616	6
1	1366	775.366323480231	5
1	1367	776.798258631532	4
1	1368	777.236573040866	3
1	1370	777.776832196055	3
1	1371	777.84044593339	3
1	1372	781.043216653222	2
1	1374	782.377156721	2
1	1375	782.950751456327	2
1	1376	782.965537570087	1
1	1377	783.601039511248	0
1	1379	785.224052161022	0
1	1380	785.306364692172	0
1	1382	786.447401656682	0
1	1383	786.579105745465	0
1	1385	787.889324970915	0
1	1386	788.559434570054	0
1	1388	790.280734874812	0
1	1389	790.748320266956	0
1	1391	790.831836281913	0
1	1392	792.299107149353	0
1	1394	794.5748296741	0
1	1395	794.638872879649	0
1	1397	800.312326456645	0
1	1398	800.387217999165	0
1	1400	802.088813130211	0
1	1401	802.108174744508	0
1	1406	802.702025823059	0
1	1407	802.76502622162	0
1	1409	803.86745907987	0
1	1410	805.290132661222	0
1	1412	807.249568389667	0
1	1413	807.921093908835	0
1	1415	816.670878505906	0
1	1417	818.432874262511	1
1	1419	820.219978663585	2
1	1420	820.397485500811	2
1	1422	820.559301609384	2
1	1423	820.817811961183	2
1	1424	821.135979974864	1
1	1425	822.141071471836	0
1	1427	822.224429331124	0
1	1428	822.31112675827	0
1	1430	824.588174401618	0
1	1431	825.022497406659	0
1	1433	826.050616554327	0
1	1434	826.869863405485	0
1	1436	831.988259997974	0
1	1437	832.848537653319	0
1	1439	832.901318372121	0
1	1440	834.007734416656	0
1	1442	834.600178458916	0
1	1444	835.194039076094	1
1	1445	836.370856111421	1
1	1446	837.802139457328	0
1	1448	838.361627199905	0
1	1452	841.549856305778	1
1	1455	842.512068627609	2
1	1459	844.767659879332	3
1	1461	846.156653717358	4
1	1463	846.205320275631	5
1	1465	847.821103625813	6
1	1467	848.748669352993	7
1	1469	849.2257007898	8
1	1471	849.832030588155	9
1	1473	855.849444637255	9
1	1475	856.766654713986	9
1	1476	857.160061481631	9
1	1477	857.406335817546	8
1	1479	857.94156997504	8
1	1480	858.670153581239	8
1	1481	859.239945789015	7
1	1482	859.591673094392	6
1	1484	859.961604265041	6
1	1486	860.145620699632	7
1	1487	861.597753838276	7
1	1488	863.359433807488	6
1	1489	864.452984200448	5
1	1491	865.822703510397	5
1	1492	865.952196129084	5
1	1494	866.152895504604	5
1	1498	866.595651202653	6
1	1500	867.178039068052	6
1	1501	867.893409254075	5
1	1502	868.735098686982	4
1	1503	870.251782206386	3
1	1504	870.752175961799	2
1	1506	870.760464227321	2
1	1507	870.974505458214	2
1	1508	872.498784519222	1
1	1514	876.014466961295	1
1	1518	878.164511410994	2
1	1519	878.429599447701	2
1	1520	878.478698833321	1
1	1521	878.557321026734	0
1	1523	880.836243080644	0
1	1527	882.103021173604	0
1	1529	885.257790725663	0
1	1531	885.282075133927	1
1	1535	888.486939883909	2
1	1537	888.690389049825	3
1	1539	888.838556386491	4
1	1541	889.846683417169	5
1	1543	889.846930277589	6
1	1545	890.577328229762	7
1	1547	891.926538368749	7
1	1548	892.015905224949	6
1	1550	892.196287638223	6
1	1552	892.475392212656	7
1	1553	892.597548972255	7
1	1554	892.949539893139	6
1	1555	894.790953781889	5
1	1556	897.074046355759	4
1	1557	897.567391504508	3
1	1558	898.169852427001	2
1	1559	898.344713730016	1
1	1561	899.359391740311	1
1	1562	899.512119602326	1
1	1564	899.942830860347	1
1	1566	900.386152818068	2
1	1570	902.096612245001	3
1	1572	904.666377402251	4
1	1576	908.614326178269	5
1	1578	909.514751876031	6
1	1580	910.471684333289	7
1	1583	916.001693702788	8
1	1586	917.279171319481	9
1	1588	918.818698694206	10
1	1589	919.055607352427	10
1	1590	919.513491969324	9
1	1592	920.310855054593	9
1	1594	920.460487408816	10
1	1595	920.822185141462	10
1	1597	921.368268554435	10
1	1598	922.012297403715	10
1	1600	922.766229548648	10
1	1601	923.683162224724	10
1	1603	923.734117045458	10
1	1605	924.125725963979	11
1	1607	924.239617756386	12
1	1608	924.537923149414	12
1	1609	925.872900880595	11
1	1610	925.981850734342	10
1	1611	926.017311700074	9
1	1613	926.696444548503	9
1	1614	927.534585940607	9
1	1615	928.248457934968	8
1	1616	928.448614039546	7
1	1617	929.074440603266	6
1	1618	929.506833830564	5
1	1619	929.682112966793	4
1	1620	931.283622433485	3
1	1621	931.61240581339	2
1	1622	931.679580166187	1
1	1624	932.36454263438	1
1	1625	933.373587947812	1
1	1627	934.198643193326	1
1	1629	935.02812206681	2
1	1630	936.123658188547	2
1	1632	936.827910913703	2
1	1634	937.035633318768	3
1	1636	937.391969270169	4
1	1638	938.400397732107	5
1	1639	938.665024186946	5
1	1641	938.744920188816	5
1	1642	940.128350921668	5
1	1643	940.431012901349	4
1	1644	941.114904878414	3
1	1645	941.695421676855	2
1	1647	941.783104836121	2
1	1649	941.908182872854	3
1	1650	943.118186379461	3
1	1652	946.978030423237	3
1	1654	948.16219165757	4
1	1655	948.655451046043	4
1	1656	949.568149480861	3
1	1660	950.473883535625	3
1	1664	953.382438997045	4
1	1666	953.500765712512	5
1	1669	956.159161932276	5
1	1670	957.180515135397	4
1	1671	957.295975651715	3
1	1673	958.745680402772	3
1	1674	959.27712795371	3
1	1675	959.913538314218	2
1	1677	960.629285151367	2
1	1678	961.10427530232	2
1	1679	962.902815160067	1
1	1680	963.805181484759	0
1	1685	964.803397325054	0
1	1687	966.270206153535	1
1	1689	966.97796499859	2
1	1690	967.10525719384	2
1	1691	967.969730835409	1
1	1696	973.188565767377	1
1	1698	973.354891716534	2
1	1699	973.490860056011	2
1	1701	973.56425594802	2
1	1702	973.703683472394	2
1	1703	974.477879913847	1
1	1704	974.753193907733	0
1	1708	977.510733101061	0
1	1710	977.789186205188	1
1	1712	979.070301580942	2
1	1715	980.130803841958	3
1	1717	981.248608990031	4
1	1719	982.855886633886	5
1	1720	983.23401943746	5
1	1726	984.208036117725	5
1	1728	985.702294552904	6
1	1734	991.102493826843	7
1	1740	994.723081523385	8
1	1745	998.055182379448	9
1	1747	999.58070257781	10
1	1751	1001.552754636151	11
1	1754	1004.532560688673	12
1	1757	1005.044149390713	13
1	1759	1009.744676480691	14
1	1761	1010.74528270046	15
1	1763	1011.323581718809	16
1	1765	1012.289176443787	17
1	1768	1017.294362645381	18
1	1770	1017.485202798298	19
1	1772	1017.735753066695	20
1	1775	1019.529209270182	21
1	1777	1020.822846926549	22
1	1779	1021.326426053914	23
1	1781	1021.396202938727	24
1	1783	1022.924143467162	25
1	1787	1029.450683066385	26
1	1789	1031.483887363038	26
1	1790	1032.057437961011	25
1	1791	1032.895112374709	24
1	1792	1033.987797558086	23
1	1793	1034.004698064675	22
1	1794	1034.180403168444	21
1	1795	1036.879323787374	20
1	1797	1037.467670417027	20
1	1798	1038.075614108721	20
1	1800	1038.601275962266	20
1	1802	1038.995204761602	21
1	1804	1039.061451367263	22
1	1805	1041.271540697724	22
1	1806	1041.686592199281	21
1	1807	1041.951613291709	20
1	1809	1042.082633316419	20
1	1810	1042.084058304665	20
1	1811	1042.352421326451	19
1	1813	1043.172228357903	19
1	1814	1044.629889288478	19
1	1815	1045.558686232128	18
1	1816	1045.620197547389	17
1	1818	1046.130571662611	17
1	1819	1049.103884570034	17
1	1820	1049.308567480227	16
1	1821	1049.636799835222	15
1	1823	1050.783988956986	15
1	1824	1051.678458276878	15
1	1825	1052.219481846379	14
1	1827	1052.676798446214	14
1	1829	1053.009052805698	15
1	1830	1053.859806076607	15
1	1832	1054.07296172494	15
1	1834	1054.879075412906	16
1	1835	1055.2780199362	16
1	1837	1056.131207739758	16
1	1838	1056.684542046618	16
1	1839	1056.965424004072	15
1	1840	1058.987493604203	14
1	1841	1059.028360738124	13
1	1842	1060.183462335982	12
1	1843	1061.179649711977	11
1	1844	1063.546822282589	10
1	1845	1064.673764853567	9
1	1847	1065.55152622347	9
1	1848	1065.649977361153	9
1	1850	1067.32323600641	9
1	1852	1069.604473068836	10
1	1858	1072.891208532089	11
1	1860	1073.638240968189	12
1	1862	1074.30083930938	13
1	1868	1078.491880134911	14
1	1874	1084.10372187337	15
1	1876	1084.406562729132	16
1	1879	1086.064398028615	17
1	1881	1086.703530979406	18
1	1883	1087.240057042203	19
1	1885	1089.893405473187	20
1	1887	1090.719385753331	21
1	1889	1091.842560656092	22
1	1891	1094.333416831852	23
1	1893	1095.538470620736	24
1	1895	1097.376866898789	25
1	1897	1099.03291250299	26
1	1899	1100.332128420027	27
1	1901	1100.548848280027	28
1	1904	1105.191901079885	29
1	1906	1105.685666709245	30
1	1908	1107.810278754297	31
1	1910	1109.393377692003	32
1	1912	1109.861384235109	33
1	1914	1112.179444126439	34
1	1916	1113.534691257221	35
1	1918	1113.818981803338	36
1	1920	1117.321027561627	37
1	1922	1117.513317281335	38
1	1925	1120.480474802471	39
1	1928	1122.94796471435	40
1	1931	1124.566824604728	41
1	1933	1124.681004872584	42
1	1938	1126.157201361988	43
1	1940	1127.469026980378	44
1	1942	1127.506512208781	45
1	1944	1133.639761139405	45
1	1945	1134.323733210981	44
1	1946	1134.420067175924	43
1	1948	1136.727318176787	43
1	1949	1137.84187271476	43
1	1950	1138.589570808413	42
1	1951	1138.691830122502	41
1	1953	1139.302917688896	41
1	1954	1139.477657669698	41
1	1955	1140.336245975149	40
1	1956	1141.079042999169	39
1	1957	1141.157758172915	38
1	1958	1141.675518676961	37
1	1959	1141.84700603672	36
1	1961	1143.065454186994	36
1	1965	1145.349499515374	37
1	1967	1146.368981623989	38
1	1969	1147.006537566831	39
1	1971	1147.695214564793	39
1	1972	1148.952030981144	38
1	1973	1149.900340209334	37
1	1975	1150.668634174198	37
1	1976	1153.526758266342	37
1	1977	1153.643313875114	36
1	1979	1154.565764254784	36
1	1980	1155.343918352169	36
1	1981	1155.542294467807	35
1	1982	1155.54927617153	34
1	1984	1156.600807090823	34
1	1985	1157.455779565482	34
1	1986	1157.935270309579	33
1	1988	1158.064770999993	33
1	1989	1158.254564216297	33
1	1991	1158.312542501996	33
1	1993	1158.422518422479	34
1	1995	1158.770096267779	35
1	1996	1158.798534384902	35
1	1998	1159.725168398375	35
1	1999	1159.802822838455	35
1	2001	1160.723772248546	35
1	2003	1161.512114151598	36
1	2005	1161.871548205486	37
1	2006	1163.000314613284	37
1	2007	1163.10096246453	36
1	2008	1163.565756263806	35
1	2009	1163.759649490106	34
1	2010	1165.193816258775	33
1	2014	1167.454355863366	32
1	2015	1168.145886729236	31
1	2016	1169.499555895473	30
1	2017	1169.738172098912	29
1	2018	1170.621869887161	28
1	2019	1171.383112983754	27
1	2021	1171.623199324503	27
1	2022	1171.743893074365	27
1	2023	1172.625532995318	26
1	2025	1172.65637856109	26
1	2026	1172.906308588336	26
1	2027	1172.953860547565	25
1	2029	1173.334010362413	25
1	2030	1173.421190517818	25
1	2031	1175.129544709047	24
1	2032	1175.584056254324	23
1	2036	1176.814513115337	23
1	2039	1179.612329976644	24
1	2041	1180.258964255321	25
1	2042	1180.498226339352	25
1	2043	1180.751317905644	24
1	2044	1181.640669225905	23
1	2046	1182.664052689313	23
1	2048	1182.714227021205	24
1	2049	1185.503992345957	24
1	2050	1185.545992231998	23
1	2051	1186.216472101552	22
1	2053	1186.864803440982	22
1	2054	1187.683093799589	22
1	2056	1188.017173915058	22
1	2057	1188.550163643173	22
1	2058	1189.192556753334	21
1	2060	1189.232952378286	21
1	2061	1190.156272665549	21
1	2062	1190.990655617404	20
1	2063	1191.524995668066	19
1	2064	1191.775732678743	18
1	2066	1192.417257987945	18
1	2067	1192.737707844043	18
1	2068	1193.656736110095	17
1	2070	1193.867399635374	17
1	2072	1194.23449485536	18
1	2073	1194.500906762056	18
1	2074	1195.855266281107	17
1	2076	1195.969095276514	17
1	2077	1197.793789980195	17
1	2078	1201.122680650268	16
1	2079	1202.768736947687	15
1	2080	1203.606223880406	14
1	2081	1204.717679656588	13
1	2083	1204.77596850751	13
1	2084	1205.988198581533	13
1	2085	1206.801471008844	12
1	2086	1207.19264901243	11
1	2090	1210.003535096125	11
1	2092	1213.443266666822	11
1	2093	1213.786536639925	10
1	2095	1213.97805939434	10
1	2099	1214.734815589935	11
1	2102	1215.411559017854	12
1	2104	1216.936302505745	13
1	2105	1217.006613573124	13
1	2107	1217.241607435794	13
1	2108	1217.539557918922	13
1	2109	1218.145741544411	12
1	2110	1218.413919865034	11
1	2111	1218.769906808694	10
1	2112	1219.720469419208	9
1	2114	1221.380552911466	9
1	2115	1221.405103772752	9
1	2116	1221.772499169536	8
1	2118	1222.149159762071	8
1	2119	1223.623411355122	8
1	2120	1224.206036264753	7
1	2122	1225.037738738886	7
1	2123	1225.083073194774	7
1	2124	1225.116677742045	6
1	2125	1226.785636385997	5
1	2126	1227.255341939218	4
1	2127	1227.342553607024	3
1	2129	1227.409813235186	3
1	2133	1230.905033350069	4
1	2135	1230.930020187377	5
1	2139	1234.379797274238	6
1	2141	1236.155600264002	7
1	2143	1236.765861467713	8
1	2145	1237.84464740697	9
1	2147	1242.581420068489	10
1	2149	1243.087410301412	11
1	2151	1243.412433106785	12
1	2155	1246.520091336135	13
1	2157	1249.074782351442	14
1	2159	1251.435312504645	15
1	2161	1251.59439240065	16
1	2164	1256.686702325383	17
1	2166	1257.999172824539	18
1	2170	1258.796692494408	19
1	2172	1260.719137204684	20
1	2174	1261.553145547857	21
1	2176	1263.213421804429	22
1	2179	1267.712937574036	23
1	2181	1270.997259803969	24
1	2188	1273.512150158743	25
1	2190	1274.18682273782	26
1	2192	1276.555259159769	27
1	2194	1278.092362229049	28
1	2198	1283.910935540259	29
1	2200	1284.208610362691	30
1	2202	1284.290403862319	31
1	2204	1286.057640711995	32
1	2206	1286.318338547918	33
1	2211	1287.47729495203	34
1	2213	1290.090998626203	35
1	2219	1297.768383902283	36
1	2222	1297.872065929392	37
1	2224	1299.566355902642	38
1	2230	1304.235892857955	39
1	2232	1305.172941832832	40
1	2235	1307.180992185961	41
1	2237	1307.882829117256	42
1	2240	1310.026825935919	43
1	2243	1311.24277641163	44
1	2248	1313.251440143675	45
1	2250	1315.613914818826	46
1	2252	1316.93231914514	47
1	2262	1329.481063128936	48
1	2264	1329.929074316345	49
1	2273	1333.350863690027	50
1	2275	1334.855313211235	51
1	2277	1334.882138201156	52
1	2279	1335.352715575179	53
1	2282	1336.735015486242	54
1	2285	1339.08973246004	55
1	2288	1341.990365123712	56
1	2290	1343.561513179764	57
1	2292	1346.52416384334	57
1	2293	1346.597629778372	56
1	2295	1350.832489613703	56
1	2297	1351.518953661712	57
1	2298	1352.118859765612	57
1	2300	1352.762130413925	57
1	2302	1352.907813915457	58
1	2304	1354.132999032431	59
1	2308	1356.33271266982	60
1	2311	1356.817256571792	61
1	2313	1356.97226248152	62
1	2315	1357.135341620707	63
1	2316	1357.331726541204	63
1	2318	1357.395622986319	63
1	2322	1358.420397472338	64
1	2324	1359.804713553336	65
1	2326	1360.680588469184	66
1	2330	1364.678232922706	67
1	2332	1365.006521937601	68
1	2338	1372.400128517137	69
1	2340	1373.201914396692	70
1	2342	1373.241704640554	71
1	2349	1376.281856761983	72
1	2351	1376.640287725521	73
1	2353	1377.364190042001	74
1	2355	1377.778940908557	75
1	2357	1378.350686618239	76
1	2359	1378.473570204762	77
1	2365	1383.43374683441	78
1	2370	1394.225507081035	79
1	2372	1394.245065891916	80
1	2374	1396.652285177269	81
1	2376	1399.224491337852	82
1	2380	1401.806413721447	83
1	2382	1402.635915223448	84
1	2385	1405.963928874789	85
1	2387	1406.234102926665	86
1	2389	1406.254759817356	87
1	2391	1407.493484732061	88
1	2393	1409.832764905433	89
1	2399	1414.88852586247	90
1	2401	1416.368646333902	91
1	2403	1416.68236979358	92
1	2407	1419.278318224631	93
1	2417	1428.456569498232	94
1	2419	1431.625511037518	95
1	2421	1432.255983273206	96
1	2424	1433.365593507154	97
1	2426	1437.333950293796	97
1	2428	1437.475345674541	97
1	2429	1437.650588006726	97
1	2430	1438.087381636536	96
1	2432	1438.15276690961	96
1	2433	1440.152236450968	96
1	2434	1441.754775897057	95
1	2435	1442.06977916241	94
1	2437	1442.901075921537	94
1	2439	1442.911511868054	95
1	2440	1443.110305857384	95
1	2441	1445.322700061845	94
1	2442	1446.432976806707	93
1	2443	1447.409312473858	92
1	2445	1447.522437591909	92
1	2446	1447.95416149687	92
1	2447	1448.211225573602	91
1	2448	1448.856339670294	90
1	2449	1449.774626939028	89
1	2450	1450.465456689587	88
1	2452	1451.148867336358	88
1	2453	1451.546063691159	88
1	2455	1451.867655928141	88
1	2457	1452.479565257249	89
1	2458	1453.365604006933	89
1	2460	1453.778742076989	89
1	2462	1453.984710821379	90
1	2463	1454.191446725868	90
1	2464	1455.913613130575	89
1	2466	1456.252039428424	89
1	2468	1456.924070948378	90
1	2470	1458.640446209903	91
1	2472	1459.670366647957	92
1	2473	1459.977933774829	92
1	2474	1460.43291971196	91
1	2475	1460.760377737644	90
1	2476	1461.558297767249	89
1	2478	1462.278683936061	89
1	2480	1462.536655483491	90
1	2481	1463.18644514431	90
1	2482	1463.474654348586	89
1	2483	1464.106429130285	88
1	2485	1464.705461498357	88
1	2487	1464.76386169049	89
1	2488	1465.117653892855	89
1	2489	1465.165613177298	88
1	2490	1466.821017639463	87
1	2492	1467.659225270889	87
1	2494	1467.861284908667	88
1	2495	1468.036165790536	88
1	2499	1470.154692602858	87
1	2500	1470.327702787707	86
1	2501	1470.678780685212	85
1	2503	1470.770836575743	85
1	2504	1471.585360398828	85
1	2506	1471.61414038166	85
1	2508	1472.035571971401	86
1	2510	1472.552181684138	87
1	2512	1472.628124725072	88
1	2514	1472.810446471767	89
1	2518	1474.009148351613	90
1	2525	1479.607678604679	91
1	2527	1479.650008924763	92
1	2531	1479.747247256387	93
1	2533	1481.808463356678	94
1	2537	1484.53095161978	95
1	2541	1485.6664047846	96
1	2543	1487.524517912776	97
1	2550	1495.736783470795	98
1	2554	1500.13741594626	99
1	2556	1503.074902012189	100
1	2559	1504.878897928251	101
1	2561	1510.06965531379	102
1	2563	1511.805195695927	103
1	2571	1515.56808592164	104
1	2573	1516.492577812988	105
1	2575	1516.941804655535	106
1	2579	1520.260348528563	107
1	2581	1523.968416990637	108
1	2587	1529.823054921884	109
1	2589	1532.40516030945	110
1	2595	1535.010210281566	111
1	2597	1535.134404224337	112
1	2599	1535.535958476586	113
1	2601	1536.521103283032	114
1	2605	1537.039035148885	115
1	2609	1540.068974900623	116
1	2611	1542.401352919203	117
1	2613	1543.410907217013	118
1	2618	1546.746406072561	119
1	2620	1546.774372367344	120
1	2622	1547.007819416079	121
1	2624	1547.926799176729	122
1	2626	1552.147838640419	123
1	2628	1553.834478484334	124
1	2633	1557.667594821035	125
1	2635	1558.49035517357	126
1	2637	1559.82253959389	127
1	2640	1564.54929005913	128
1	2642	1565.500372314744	129
1	2644	1566.755365686127	130
1	2650	1572.361098676231	131
1	2652	1576.025400308147	132
1	2655	1576.928423268717	133
1	2658	1578.076642949075	134
1	2660	1578.84595497133	135
1	2662	1578.959848777432	136
1	2664	1580.042782460382	137
1	2666	1581.5897888249	138
1	2668	1582.822147179523	139
1	2670	1583.098253515704	140
1	2672	1583.67367208846	141
1	2674	1583.737254465813	142
1	2676	1588.631894931082	143
1	2678	1588.710680895391	144
1	2685	1591.194391115452	145
1	2688	1592.241852524646	146
1	2692	1593.083619179107	147
1	2694	1593.259869600618	148
1	2696	1593.459612494361	149
1	2701	1596.340432635559	150
1	2703	1596.586493796738	151
1	2705	1599.441269764121	152
1	2708	1600.670240580419	153
1	2710	1600.688220480769	154
1	2711	1600.804509697853	154
1	2712	1601.359874153257	153
1	2713	1603.123258930667	152
1	2714	1604.045572119711	151
1	2716	1607.078608580292	151
1	2717	1609.496767043053	151
1	2718	1610.170066528149	150
1	2720	1610.907216422808	150
1	2721	1611.932964213056	150
1	2727	1614.340824444118	150
1	2733	1617.148360188712	151
1	2735	1617.630814826976	152
1	2737	1617.984120896204	153
1	2739	1619.121979213624	154
1	2742	1621.55721109442	155
1	2743	1622.685638213162	155
1	2745	1622.690773050701	155
1	2746	1623.171137024841	155
1	2747	1624.579258739404	154
1	2749	1624.763762814084	154
1	2750	1624.990064806075	154
1	2752	1625.379951482635	154
1	2753	1626.15974093927	154
1	2754	1626.599747869947	153
1	2755	1626.69122385048	152
1	2756	1626.724193659733	151
1	2761	1630.614229401254	151
1	2762	1630.664005907492	151
1	2764	1630.845818631929	151
1	2765	1631.362104162877	151
1	2766	1631.595901214017	150
1	2768	1631.741329519332	150
1	2769	1631.922132072653	150
1	2770	1632.367936329243	149
1	2771	1634.748563908681	148
1	2773	1635.600733087832	148
1	2774	1635.916232724415	148
1	2776	1637.543667257938	148
1	2777	1637.583275010762	148
1	2779	1637.604251083474	148
1	2780	1638.439477925154	148
1	2782	1639.122406122228	148
1	2784	1639.367493604565	149
1	2785	1639.399032202474	149
1	2789	1641.965945518554	149
1	2793	1645.624032345953	150
1	2795	1646.148256681661	151
1	2798	1651.814035206315	152
1	2801	1655.40008456131	153
1	2803	1656.619392924484	154
1	2804	1657.025426411844	154
1	2805	1657.340937830268	153
1	2809	1665.249805965979	153
1	2811	1667.045161392094	153
1	2812	1668.539104017822	152
1	2814	1669.021654398642	152
1	2815	1669.263500346142	152
1	2819	1671.01167794723	152
1	2821	1671.318441190302	153
1	2823	1671.929868266994	154
1	2825	1675.029177343293	155
1	2827	1675.173622492903	156
1	2829	1675.763871847763	157
1	2831	1676.283149019407	158
1	2833	1677.615190399237	158
1	2835	1677.751300095034	158
1	2836	1678.118450519546	158
1	2843	1680.800376678757	158
1	2845	1681.034677976464	159
1	2847	1682.569278808339	159
1	2848	1682.826269179533	158
1	2850	1683.345153236047	158
1	2851	1683.427312184973	158
1	2853	1683.675295323235	158
1	2855	1683.906711331139	159
1	2859	1686.286822801832	159
1	2864	1690.175915087465	159
1	2865	1690.18387872392	159
1	2866	1690.297928748441	158
1	2868	1690.80897598545	158
1	2869	1691.102624263264	158
1	2871	1692.391594603022	158
1	2873	1693.39067981028	159
1	2875	1694.468831213104	160
1	2876	1695.491227219756	160
1	2877	1695.910793485946	159
1	2878	1696.032485068265	158
1	2879	1697.626593379944	157
1	2880	1699.234507940147	156
1	2886	1702.108858835407	156
1	2889	1707.195299409335	157
1	2892	1707.663680800666	158
1	2893	1708.412228138097	158
1	2895	1708.761451065317	158
1	2897	1709.20456580531	159
1	2898	1709.405121316591	159
1	2900	1710.633415942205	159
1	2901	1710.636888497533	159
1	2903	1710.650008633857	159
1	2905	1710.911041595126	160
1	2906	1713.068525861419	160
1	2907	1713.204033995937	159
1	2908	1713.773582619894	158
1	2909	1714.490626312578	157
1	2910	1715.508506193451	156
1	2912	1716.718663764525	156
1	2913	1717.880022294149	156
1	2914	1718.491993603737	155
1	2915	1719.831376623222	154
1	2917	1721.839937690922	154
1	2918	1722.145431515768	154
1	2920	1722.168836764989	154
1	2922	1722.384120903657	155
1	2923	1722.90914151086	155
1	2924	1722.981212465547	154
1	2925	1724.356642085292	153
1	2926	1724.463181610825	152
1	2927	1725.278709280728	151
1	2929	1727.390813812328	151
1	2930	1727.590140802453	151
1	2932	1727.858657791157	151
1	2933	1728.482929530747	151
1	2934	1729.329179184785	150
1	2935	1730.057649738309	149
1	2936	1731.166684128891	148
1	2937	1731.512407339128	147
1	2938	1731.851475787788	146
1	2939	1732.083992497772	145
1	2940	1733.912806625074	144
1	2941	1735.511252059828	143
1	2942	1735.95451954795	142
1	2944	1736.774381621748	142
1	2946	1737.302852987631	143
1	2948	1738.772951558168	144
1	2949	1739.522990678468	144
1	2950	1741.389920434267	143
1	2952	1741.696522797033	143
1	2954	1742.246750413176	144
1	2956	1744.088811906717	145
1	2957	1745.060367819723	145
1	2958	1745.2331258522	144
1	2959	1745.733382994257	143
1	2961	1746.256745508211	143
1	2962	1746.727229149266	143
1	2963	1748.008251758924	142
1	2964	1748.122088712399	141
1	2966	1748.189219436818	141
1	2967	1748.283340749438	141
1	2969	1748.316443152303	141
1	2970	1749.152060512333	141
1	2974	1750.742969231214	141
1	2976	1753.315028965177	141
1	2978	1755.317597211361	141
1	2979	1757.110918364594	141
1	2983	1757.312567299481	141
1	2985	1759.91085731417	142
1	2990	1762.033804201569	143
1	2992	1762.073743976853	144
1	2994	1762.250877000071	145
1	2996	1762.988203362313	146
1	2998	1764.311751213944	147
1	3000	1765.054125485068	148
1	3004	1765.477148416758	149
1	3006	1766.538884874557	150
1	3010	1767.065026651097	151
1	3014	1769.330225752647	152
1	3020	1771.987076524945	153
1	3024	1773.618554551468	154
1	3029	1778.355311218823	155
1	3032	1778.989112695747	156
1	3036	1781.435655281273	157
1	3038	1781.584185219556	158
1	3041	1784.894527739285	159
1	3043	1785.29567954008	160
1	3045	1786.001621338979	161
1	3049	1792.166155833769	161
1	3056	1797.70107791205	161
1	3058	1802.459765576253	161
1	3060	1802.955324490015	161
1	3061	1803.027582254023	161
1	3062	1803.903086807704	160
1	3063	1807.446538859154	159
1	3064	1807.788222906597	158
1	3066	1808.260312486682	158
1	3067	1808.674528455973	158
1	3068	1808.943214249744	157
1	3069	1809.171272797045	156
1	3070	1809.829980601194	155
1	3071	1809.910112089387	154
1	3072	1810.091146846591	153
1	3074	1810.318492812979	153
1	3075	1810.462422745004	153
1	3077	1810.57725741856	153
1	3078	1810.598976181622	153
1	3080	1811.408723382592	153
1	3081	1812.356282744321	153
1	3083	1812.360347638287	153
1	3085	1812.486865299012	154
1	3086	1813.501102393112	154
1	3088	1813.777075997864	154
1	3090	1813.811741997422	155
1	3092	1814.089722332653	156
1	3093	1814.89646549119	156
1	3094	1815.879589526454	155
1	3095	1815.994391585684	154
1	3099	1816.080086549652	154
1	3101	1816.765702277005	155
1	3103	1818.241371332227	155
1	3104	1818.348376073221	154
1	3108	1821.224911489745	154
1	3110	1821.962481606768	155
1	3112	1822.877134146874	156
1	3114	1823.113745005332	157
1	3116	1827.311303589685	157
1	3117	1827.736105131579	156
1	3119	1828.01154715136	156
1	3120	1828.754612581032	156
1	3121	1828.967041087148	155
1	3123	1829.604875567456	155
1	3125	1829.980828238735	156
1	3127	1830.111715658402	157
1	3129	1832.324113340383	158
1	3131	1832.597449466641	159
1	3133	1832.976394422932	160
1	3135	1833.074165905773	161
1	3136	1834.694802073229	161
1	3137	1834.746220063602	160
1	3138	1834.842460315697	159
1	3140	1838.142521328649	159
1	3142	1838.221838318051	160
1	3143	1839.233282430698	160
1	3144	1839.27683217559	159
1	3145	1839.300401519131	158
1	3147	1839.496244878039	158
1	3148	1840.800594445495	158
1	3149	1841.196589277287	157
1	3150	1841.304943652401	156
1	3151	1841.394311317125	155
1	3152	1841.440886477957	154
1	3153	1842.174777725271	153
1	3155	1843.822062712117	153
1	3156	1844.107837698801	153
1	3157	1844.347138867126	152
1	3159	1846.197728269745	152
1	3160	1846.494280417276	152
1	3161	1850.044078210154	151
1	3165	1851.55227487299	150
1	3166	1852.771324574799	149
1	3168	1852.786817534372	149
1	3170	1854.591786204581	150
1	3171	1854.843430509887	150
1	3173	1855.011352202279	150
1	3174	1855.168082873832	150
1	3175	1855.870488892437	149
1	3176	1856.009800075536	148
1	3177	1856.731928541376	147
1	3178	1856.858043015063	146
1	3180	1856.966951733992	146
1	3182	1857.076542216142	147
1	3186	1861.037936738767	148
1	3191	1863.73125007026	148
1	3193	1863.931985984928	148
1	3194	1864.168705091642	148
1	3195	1865.085150931836	147
1	3196	1865.651306259266	146
1	3197	1867.195847606382	145
1	3198	1867.210366529689	144
1	3200	1867.797279138652	144
1	3201	1868.967987783155	144
1	3202	1869.465173212318	143
1	3204	1869.701167572381	143
1	3205	1869.807382495526	143
1	3206	1870.875166646303	142
1	3208	1870.919375119475	142
1	3210	1871.378242349026	143
1	3211	1871.402639830294	143
1	3212	1871.728723214509	142
1	3214	1872.472042960357	142
1	3215	1873.054446344345	142
1	3216	1873.263965981157	141
1	3218	1873.515735167893	141
1	3219	1873.537258604121	141
1	3220	1873.890187179252	140
1	3222	1874.220938716602	140
1	3223	1874.719580981545	140
1	3225	1875.782872223371	140
1	3226	1876.286351711474	140
1	3228	1876.422271519156	140
1	3230	1877.140180372836	141
1	3232	1878.631903343161	142
1	3233	1879.113916819604	142
1	3234	1879.145193354406	141
1	3235	1879.173915638843	140
1	3237	1879.228105495049	140
1	3238	1879.392610293896	140
1	3239	1879.401018840171	139
1	3240	1880.015026350489	138
1	3241	1880.102158366005	137
1	3243	1880.783114408648	137
1	3244	1881.319407336137	137
1	3246	1881.663911144356	137
1	3248	1882.597272201901	138
1	3249	1882.772629599637	138
1	3250	1882.84088446871	137
1	3251	1882.912972242779	136
1	3252	1884.077835393136	135
1	3253	1884.306408270241	134
1	3257	1886.665713635795	134
1	3259	1891.617838724593	135
1	3261	1891.670117772426	136
1	3263	1893.754269527065	136
1	3264	1894.619342419105	135
1	3265	1894.769386073208	134
1	3266	1895.453200003584	133
1	3268	1895.779474611714	133
1	3270	1896.116275877029	134
1	3271	1897.954870206537	134
1	3272	1899.416701922731	133
1	3273	1899.651794398381	132
1	3274	1899.795372717165	131
1	3275	1899.891339942411	130
1	3276	1900.387734424578	129
1	3278	1900.786746581119	129
1	3280	1901.301119833994	130
1	3281	1901.765464108733	130
1	3282	1901.785062456579	129
1	3283	1902.93825311837	128
1	3285	1903.061407798176	128
1	3287	1904.632438087334	129
1	3289	1904.880379205288	130
1	3291	1905.004984284445	131
1	3293	1905.394390126876	132
1	3294	1906.077019974975	132
1	3296	1906.283663052033	132
1	3298	1906.358565756057	133
1	3300	1908.507437222834	134
1	3301	1909.239449800456	134
1	3302	1910.049338718192	133
1	3303	1910.18625980246	132
1	3304	1912.217969189015	131
1	3305	1913.235968827284	130
1	3313	1917.499050283983	130
1	3319	1919.910722395268	131
1	3321	1920.233620546472	132
1	3323	1920.975990478991	133
1	3326	1923.524790816256	133
1	3327	1923.56018316789	132
1	3328	1923.718336885121	131
1	3330	1923.98708530183	131
1	3331	1926.320433988346	131
1	3333	1926.446090840758	131
1	3334	1926.772811857818	131
1	3336	1927.363747184354	131
1	3337	1927.975387688102	131
1	3339	1928.690507136593	131
1	3340	1928.826081542378	131
1	3346	1933.128807906388	131
1	3348	1934.201000344892	132
1	3352	1934.765414938596	133
1	3357	1936.775315346694	134
1	3360	1938.138017642265	135
1	3362	1942.609579697262	136
1	3365	1944.413427350428	137
1	3367	1944.981005278254	137
1	3368	1946.319125560273	136
1	3369	1946.72868373603	135
1	3371	1947.140869203252	135
1	3372	1947.464476502743	135
1	3373	1947.655825523659	134
1	3377	1948.506799977793	134
1	3379	1948.580906247598	135
1	3381	1949.393642332651	136
1	3383	1950.67933020201	137
1	3387	1953.945621165421	138
1	3389	1954.212612720131	139
1	3394	1956.293120106326	140
1	3396	1956.771572776127	141
1	3399	1959.400051236111	142
1	3401	1959.783652727314	143
1	3403	1959.796618849408	144
1	3405	1960.330420710775	145
1	3407	1961.415544560519	146
1	3411	1963.790747443347	147
1	3416	1966.178909613872	148
1	3418	1969.350626176295	149
1	3421	1976.099655761786	149
1	3422	1976.392074868471	148
1	3423	1976.51010996546	147
1	3427	1977.643386515363	146
1	3428	1978.722041907271	145
1	3430	1979.864377795897	145
1	3432	1980.17808314611	146
1	3433	1980.50353792477	146
1	3434	1980.692521558799	145
1	3435	1980.91709399578	144
1	3436	1981.023735363218	143
1	3438	1983.14290595447	143
1	3439	1984.614332768044	143
1	3440	1984.871257541233	142
1	3442	1985.096421069128	142
1	3443	1985.7558022331	142
1	3444	1986.431218445012	141
1	3445	1986.688255884664	140
1	3446	1987.375373411542	139
1	3447	1989.326630200376	138
1	3449	1990.033983183023	138
1	3450	1991.801693915091	138
1	3452	1991.825569875772	138
1	3453	1992.192870968776	138
1	3454	1992.482088936426	137
1	3456	1994.720116025837	137
1	3457	1994.912624114228	137
1	3458	1995.098848209061	136
1	3460	1995.842029398481	136
1	3461	1996.423474497435	136
1	3462	1996.873300531279	135
1	3463	1997.819653175379	134
1	3464	1998.028475178959	133
1	3465	1999.877766151891	132
2	0	0	0
2	30	25.476906419341	1
2	103	60.599413121798	2
2	113	67.488460575668	3
2	324	186.067399143555	4
2	331	191.324954381944	5
2	345	199.2414371574	6
2	389	226.311643288452	7
2	395	234.828670666367	8
2	400	238.281673291916	9
2	416	244.771552843322	10
2	441	263.012812188758	11
2	581	330.88851152621	12
2	616	354.097215626543	13
2	656	374.335875582335	14
2	701	406.50699407403	15
2	762	442.197003608807	16
2	821	478.674084361803	17
2	892	518.913977568688	18
2	1000	579.124414919182	19
2	1051	606.712729589468	20
2	1082	628.508798662802	21
2	1088	630.425256669614	22
2	1127	649.969173942343	23
2	1158	663.226504102528	24
2	1177	673.731802713832	25
2	1186	675.605324358375	26
2	1222	701.638227440442	27
2	1240	709.588797917969	28
2	1246	711.00100639843	29
2	1291	734.127627215947	30
2	1312	743.364352575687	31
2	1342	762.154221655157	32
2	1450	840.874274886756	33
2	1457	842.70248234519	34
2	1496	866.558208526669	35
2	1510	872.892991599615	36
2	1525	881.02894264117	37
2	1533	885.515615473181	38
2	1568	901.634256672622	39
2	1658	949.734841915346	40
2	1693	970.516780085048	41
2	1722	983.247903873916	42
2	1854	1070.127369055674	43
2	1936	1125.414568390874	44
2	1963	1143.51676346462	45
2	2012	1166.494571750392	46
2	2034	1175.855945061747	47
2	2088	1207.308443458	48
2	2097	1214.056492953351	49
[...]
8	3117	1827.736105131579	273.90162664724
8	3120	1828.754612581032	271.08701776
8	3121	1828.967041087148	270.47668591358
8	3136	1834.694802073229	274.87226247934
8	3137	1834.746220063602	270.19693000447
8	3138	1834.842460315697	269.34208800095
8	3143	1839.233282430698	272.47791674457
8	3144	1839.27683217559	266.91573349936
8	3145	1839.300401519131	263.27500121098
8	3148	1840.800594445495	263.87217117678
8	3149	1841.196589277287	263.11994632821
8	3150	1841.304943652401	262.45898868107
8	3151	1841.394311317125	262.43446253969
8	3152	1841.440886477957	261.39810401758
8	3153	1842.174777725271	260.58498890037
8	3156	1844.107837698801	261.28569051928
8	3157	1844.347138867126	261.24888535142
8	3160	1846.494280417276	262.82060832882
8	3161	1850.044078210154	266.30682374434
8	3165	1851.55227487299	262.8415939776
8	3166	1852.771324574799	261.72575896668
8	3171	1854.843430509887	263.64903939444
8	3174	1855.168082873832	262.92623034919
8	3175	1855.870488892437	263.2120085609
8	3176	1856.009800075536	262.92618089643
8	3177	1856.731928541376	263.47205894076
8	3178	1856.858043015063	263.3984305207
8	3191	1863.73125007026	267.3908174347
8	3194	1864.168705091642	267.5822112949
8	3195	1865.085150931836	265.64388116771
8	3196	1865.651306259266	264.98106567885
8	3197	1867.195847606382	266.50762712561
8	3198	1867.210366529689	260.1317579494
8	3201	1868.967987783155	258.06077136035
8	3202	1869.465173212318	257.10110092809
8	3205	1869.807382495526	255.46655805141
8	3206	1870.875166646303	253.72680645759
8	3211	1871.402639830294	253.77182500332
8	3212	1871.728723214509	253.7446023183
8	3215	1873.054446344345	253.93246713072
8	3216	1873.263965981157	251.70675488674
8	3219	1873.537258604121	250.84648555342
8	3220	1873.890187179252	249.12642436517
8	3223	1874.719580981545	249.33962949891
8	3226	1876.286351711474	249.47164052465
8	3233	1879.113916819604	248.49968741835
8	3234	1879.145193354406	248.29937472248
8	3235	1879.173915638843	247.43258611951
8	3238	1879.392610293896	243.79187720606
8	3239	1879.401018840171	241.85735158223
8	3240	1880.015026350489	242.41077526701
8	3241	1880.102158366005	240.97975224378
8	3244	1881.319407336137	241.95191373157
8	3249	1882.772629599637	242.82508524717
8	3250	1882.84088446871	240.87493895016
8	3251	1882.912972242779	237.28893989683
8	3252	1884.077835393136	237.92957871147
8	3253	1884.306408270241	232.49237306393
8	3263	1893.754269527065	237.13487660258
8	3264	1894.619342419105	237.21921842169
8	3265	1894.769386073208	229.51958010723
8	3266	1895.453200003584	226.43154560494
8	3271	1897.954870206537	227.41239841648
8	3272	1899.416701922731	228.4050239755
8	3273	1899.651794398381	228.33335320808
8	3274	1899.795372717165	227.86550445017
8	3275	1899.891339942411	224.86216259912
8	3276	1900.387734424578	225.21411193168
8	3281	1901.765464108733	226.00159226097
8	3282	1901.785062456579	225.50191343717
8	3283	1902.93825311837	225.18695302334
8	3294	1906.077019974975	227.65053675648
8	3301	1909.239449800456	228.4390731217
8	3302	1910.049338718192	229.01466074173
8	3303	1910.18625980246	226.84110656641
8	3304	1912.217969189015	228.54267386578
8	3305	1913.235968827284	229.32925749615
8	3326	1923.524790816256	235.20939556194
8	3327	1923.56018316789	233.38426808042
8	3328	1923.718336885121	232.90936089967
8	3331	1926.320433988346	233.92883938532
8	3334	1926.772811857818	233.38213204754
8	3337	1927.975387688102	233.506556475
8	3340	1928.826081542378	229.302826922
8	3367	1944.981005278254	237.78570586892
8	3368	1946.319125560273	238.65544475961
8	3369	1946.72868373603	237.96723267071
8	3372	1947.464476502743	238.25991069743
8	3373	1947.655825523659	237.02240958145
8	3421	1976.099655761786	265.18861416666
8	3422	1976.392074868471	259.67341110395
8	3423	1976.51010996546	254.67017227454
8	3427	1977.643386515363	255.25926561171
8	3428	1978.722041907271	251.33122809494
8	3433	1980.50353792477	252.64488013361
8	3434	1980.692521558799	243.91813993705
8	3435	1980.91709399578	243.61424100815
8	3436	1981.023735363218	242.25078380505
8	3439	1984.614332768044	242.91780997101
8	3440	1984.871257541233	242.62450712806
8	3443	1985.7558022331	241.66699032638
8	3444	1986.431218445012	240.1744729368
8	3445	1986.688255884664	238.49903644785
8	3446	1987.375373411542	239.05893025924
8	3447	1989.326630200376	239.69001890656
8	3450	1991.801693915091	241.05872468388
8	3453	1992.192870968776	236.87527375741
8	3454	1992.482088936426	235.22067847888
8	3457	1994.912624114228	237.60005681475
8	3458	1995.098848209061	235.18799089489
8	3461	1996.423474497435	234.38967029587
8	3462	1996.873300531279	234.79955655443
8	3463	1997.819653175379	235.56877617531
8	3464	1998.028475178959	235.04027181665
8	3465	1999.877766151891	235.56601493795
9	14	13.177660038642	0
9	21	18.755616437788	1.653251841725
9	30	25.476906419341	0
9	43	28.824825361572	3.344171643576
9	62	37.742236890786	8.677334212387
9	69	46.471251202957	15.876796144083
9	80	53.093723005793	7.331459094285
9	103	60.599413121798	0
9	113	67.488460575668	0
9	128	75.741061401863	3.044313387545
9	129	76.815159758126	2.852454592852
9	132	80.984307734783	6.157830018224
9	151	99.921857685411	20.176003247112
9	154	101.688279046286	17.776945499121
9	163	105.998787181343	17.068088024651
9	164	106.237892891138	4.656849665868
9	175	109.843222271926	4.144445696021
9	202	133.19304242882	24.58597407082
9	217	142.729522757554	33.260874203132
9	218	142.763768451804	13.130263122819
9	223	145.16245419127	10.984531424514
9	324	186.067399143555	0
9	331	191.324954381944	0
9	345	199.2414371574	0
9	389	226.311643288452	0
9	395	234.828670666367	0
9	400	238.281673291916	0
9	416	244.771552843322	0
9	441	263.012812188758	0
9	458	276.234555967148	8.336342433157
9	542	313.196984341095	0
9	569	325.522389053325	0
9	581	330.88851152621	0
9	604	349.128407669097	6.97436840417
9	616	354.097215626543	0
9	656	374.335875582335	0
9	701	406.50699407403	0
9	731	423.516140152552	0
9	740	429.428442685137	0.132197456696
9	749	437.819929100479	7.22198071201
9	762	442.197003608807	0
9	791	465.133961252911	0
9	797	468.660105440405	0
9	821	478.674084361803	0
9	884	516.80583943768	0
9	892	518.913977568688	0
9	914	530.733535882305	0
9	929	539.201503407222	1.062016792315
9	934	540.858200172548	2.395683837602
9	1000	579.124414919182	0
9	1019	591.981171683947	11.4517426956
9	1020	593.233600060317	6.25216126194
9	1025	595.869690925737	5.818871566693
9	1051	606.712729589468	0
9	1082	628.508798662802	0
9	1088	630.425256669614	0
9	1127	649.969173942343	0
9	1158	663.226504102528	0
9	1177	673.731802713832	0
9	1186	675.605324358375	0
9	1208	692.599030465955	0
9	1222	701.638227440442	0
9	1240	709.588797917969	0
9	1246	711.00100639843	0
9	1253	718.36116526352	0
9	1291	734.127627215947	0
9	1312	743.364352575687	0
9	1342	762.154221655157	0
9	1359	770.45307069531	6.358805866735
9	1360	771.79275411381	4.119631057819
9	1403	802.609429079187	0
9	1450	840.874274886756	0
9	1457	842.70248234519	0
9	1496	866.558208526669	0
9	1510	872.892991599615	0
9	1515	876.910418914203	3.230271872463
9	1525	881.02894264117	0
9	1533	885.515615473181	0
9	1568	901.634256672622	0
9	1581	914.851062339325	6.930011298155
9	1658	949.734841915346	0
9	1667	953.640229912409	1.90570558276
9	1682	964.393248973618	0
9	1693	970.516780085048	0
9	1706	976.06791452614	0
9	1722	983.247903873916	0
9	1743	997.275198475483	13.338095365229
9	1752	1002.385434888611	15.873605029038
9	1755	1004.807819279927	17.48278676664
9	1766	1012.871489966434	20.616036615108
9	1773	1017.8329425978	25.399058624883
9	1784	1026.839533224513	31.269929547401
9	1785	1028.904117366707	27.563208658055
9	1854	1070.127369055674	0
9	1877	1085.169014738188	13.23145611699
9	1902	1102.422030615032	27.917479344334
9	1923	1119.520507746674	42.746882763311
9	1926	1122.659535181348	41.617126414853
9	1929	1123.458694749639	42.361886176048
9	1936	1125.414568390874	0
9	1963	1143.51676346462	0
9	2012	1166.494571750392	0
9	2034	1175.855945061747	0
9	2088	1207.308443458	0
9	2097	1214.056492953351	0
9	2131	1227.73785049755	0
9	2162	1254.753735751978	22.965845672366
9	2177	1267.106536070743	21.50497664189
9	2186	1272.83941465403	14.205103617807
9	2207	1286.838385406132	15.82006880325
9	2220	1297.809808706086	26.448289229919
9	2233	1306.894997925017	23.194775971031
9	2238	1308.073662508588	21.099406475166
9	2241	1310.908785024339	16.034279659946
9	2244	1312.495924612275	15.503333365301
9	2255	1318.791818876961	17.214904838718
9	2256	1321.332464411369	18.765023003395
9	2267	1330.863066132091	18.101671804512
9	2270	1331.821413223254	14.599982262823
9	2271	1332.233142909699	7.619292975822
9	2280	1335.783778186139	8.223602233214
9	2283	1338.42159052531	7.578949860945
9	2286	1340.170742941877	8.949574400948
9	2306	1355.117337773148	0
9	2320	1357.422387131033	0
9	2347	1376.1658147092	15.282476246037
9	2368	1393.789916231784	28.504637798801
9	2377	1399.898705766182	31.546371975611
9	2378	1400.788128646504	25.725959565016
9	2383	1405.849660796858	30.626345393991
9	2396	1413.536610561377	33.671909290465
9	2397	1414.686109100674	33.325157252875
9	2408	1420.605555238846	28.377734190582
9	2411	1422.339638788865	11.639601493731
9	2412	1427.099878471599	10.391267425829
9	2415	1427.971705349987	6.374598198624
9	2422	1432.474040214005	5.15863528741
9	2497	1469.295790456725	0
9	2516	1472.828474989705	0
9	2523	1479.166702465079	4.958386196276
9	2544	1488.562612545143	10.380755968179
9	2557	1504.410659653379	24.748699626756
9	2576	1517.500326027623	33.217851742992
9	2577	1517.579866435382	32.321372661755
9	2584	1524.686315864322	34.835264620936
9	2585	1526.560470115802	32.059467495787
9	2606	1538.305855151841	39.952307172242
9	2607	1538.556602187613	26.336572463242
9	2614	1544.855776624482	32.532884399532
9	2629	1555.243828227896	42.434758621995
9	2638	1561.358221287958	36.818893274691
9	2645	1567.275117916254	34.724327008132
9	2646	1567.534921424482	33.087305291114
9	2653	1576.294496698991	39.729255931249
9	2656	1577.086200742697	32.011018593365
9	2679	1589.612654659395	32.8457202138
9	2680	1589.778687781948	19.894955508646
9	2683	1591.045565608122	0
9	2690	1592.658480331536	0
9	2699	1596.138207711215	0
9	2723	1612.364072284225	0
9	2730	1616.315322104542	2.774682236767
9	2731	1616.937992151555	1.321922436775
9	2758	1626.814711186823	0
9	2787	1639.947544352462	0
9	2796	1646.319834643585	1.651138012574
9	2807	1657.400123997415	0
9	2817	1670.542471790059	0
9	2838	1678.426483218495	0
9	2841	1679.767622831506	0.751608741771
9	2857	1684.132390998732	0
9	2861	1688.315395254313	0
9	2882	1699.523254620378	0
9	2887	1704.281290567177	3.28583798
9	2972	1749.636611293812	0
9	2981	1757.261410457542	0
9	2988	1761.141948432714	0.482746405774
9	3015	1769.912719821868	4.462337406379
9	3018	1771.260162424766	4.213837403059
9	3025	1774.392553442008	6.724397250335
9	3030	1778.539973376241	7.452068557858
9	3039	1784.412526915892	10.901550767632
9	3046	1786.141255023134	9.463433366418
9	3047	1788.332253068026	6.904833393411
9	3051	1792.342101124279	0
9	3054	1794.133023936337	0
9	3097	1816.053365399851	0
9	3106	1818.554778528527	0
9	3163	1850.192810763332	0
9	3184	1857.225681568377	0
9	3189	1861.673065704423	0.484901787914
9	3255	1886.188792228178	0
9	3307	1914.38839761886	0
9	3314	1918.319289012336	2.751724601
9	3317	1919.55852625963	2.927336537069
9	3324	1921.750362870399	2.728055442015
9	3342	1929.120886382935	0
9	3353	1935.946433184126	6.723954328503
9	3358	1937.906597039446	3.518614816533
9	3363	1943.12947404621	7.098253588867
9	3375	1948.043491559724	0
9	3390	1955.392689644253	2.464469750206
9	3397	1956.804831536349	0.82469655591
9	3412	1964.615975442606	2.261785530738
9	3419	1970.83766791094	5.292006797786
9	3425	1977.077977266552	0
10	21	18.755616437788	5.577956399146
10	28	25.166003019016	8.063638422953
10	43	28.824825361572	3.347918942231
10	62	37.742236890786	12.26158317279
10	69	46.471251202957	17.406348524558
10	80	53.093723005793	22.499267946919
10	81	53.253480208349	7.491216296841
10	110	66.636123005607	6.036709883809
10	128	75.741061401863	8.252600826195
10	129	76.815159758126	4.118411743808
10	132	80.984307734783	7.021602569509
10	151	99.921857685411	25.095379968852
10	154	101.688279046286	21.942424607987
10	163	105.998787181343	22.087453634178
10	164	106.237892891138	17.307193734446
10	175	109.843222271926	8.262179046656
10	202	133.19304242882	27.494265852915
10	217	142.729522757554	34.122454399554
10	218	142.763768451804	33.295119897382
10	223	145.16245419127	15.528948862285
10	234	152.506336663644	18.328413896888
10	325	187.667693281448	1.600294137893
10	336	198.192182701003	6.867228319059
10	350	204.35805380608	5.11661664868
10	390	228.681211068721	2.369567780269
10	398	238.230967448783	3.402296782416
10	407	241.689223593496	3.40755030158
10	417	246.824737403868	2.053184560546
10	458	276.234555967148	13.22174377839
10	459	281.024311548528	13.126098014537
10	545	315.713372313168	2.516387972073
10	572	327.757789134466	2.235400081141
10	604	349.128407669097	18.239896142887
10	611	351.143323278705	8.989284013778
10	627	357.813260917533	3.71604529099
10	659	379.27254611604	4.936670533705
10	702	406.998439153999	0.491445079969
10	740	429.428442685137	5.912302532585
10	749	437.819929100479	8.523683872038
10	752	439.799262091883	9.201313703414
10	763	443.386302534776	1.189298925969
10	794	467.767275781272	2.633314528361
10	804	472.701165091527	4.041059651122
10	832	485.297996786215	6.623912424412
10	889	518.534296252517	1.728456814837
10	899	525.079393274714	6.165415706026
10	929	539.201503407222	8.467967524917
10	934	540.858200172548	2.718713557641
10	943	549.660741627731	11.198225292785
10	1019	591.981171683947	12.856756764765
10	1020	593.233600060317	12.70417107197
10	1025	595.869690925737	8.88825212736
10	1038	601.045550779474	10.99473142043
10	1058	611.107155743243	4.394426153775
10	1083	629.008903897389	0.500105234587
10	1089	630.64644490532	0.221188235706
10	1130	652.621452772919	2.652278830576
10	1165	668.046306407846	4.819802305318
10	1180	674.241220323732	0.5094176099
10	1187	677.309343647953	1.704019289578
10	1209	693.376519251587	0.777488785632
10	1225	702.057309446062	0.41908200562
10	1243	710.78132876168	1.192530843711
10	1247	714.896097951587	3.895091553157
10	1262	721.598748194118	3.237582930598
10	1292	734.589753306779	0.462126090832
10	1315	743.768309110815	0.403956535128
10	1359	770.45307069531	8.298849040153
10	1360	771.79275411381	7.698489285235
10	1363	773.845781306811	6.17265825082
10	1404	802.642301924135	0.032872844948
10	1453	841.578889630727	0.704614743971
10	1472	854.148072594944	11.445590249754
10	1499	866.917109114664	0.358900587995
10	1515	876.910418914203	4.017427314588
10	1516	877.431125733042	3.750978691302
10	1526	881.94583295359	0.91689031242
10	1546	891.634378778403	6.118763305222
10	1581	914.851062339325	13.216805666703
10	1584	917.221640901211	9.300589860041
10	1667	953.640229912409	3.905387997063
10	1668	955.510714770747	3.776190441098
10	1683	964.606526364536	0.213277390918
10	1694	971.600908969881	1.084128884833
10	1713	979.788820573802	3.720906047662
10	1743	997.275198475483	14.027294601567
10	1752	1002.385434888611	18.448331778357
10	1755	1004.807819279927	18.295989420354
10	1766	1012.871489966434	25.546457453147
10	1773	1017.8329425978	25.577489246474
10	1784	1026.839533224513	34.405649251596
10	1785	1028.904117366707	33.334513689595
10	1788	1030.360106793946	29.019198085294
10	1877	1085.169014738188	15.041645682514
10	1902	1102.422030615032	30.484471993834
10	1923	1119.520507746674	45.015956475976
10	1926	1122.659535181348	45.885910197985
10	1929	1123.458694749639	42.416285983144
10	1934	1124.991939937533	43.895131363942
10	1943	1133.531822227336	8.117253836462
10	1970	1147.502400258951	3.985636794331
10	2013	1166.75898082491	0.264409074518
10	2037	1178.224668462374	2.368723400627
10	2091	1212.168947988752	4.860504530752
10	2100	1215.195567325682	1.139074372331
10	2162	1254.753735751978	27.015885254428
10	2177	1267.106536070743	35.318645991131
10	2186	1272.83941465403	27.237855225177
10	2207	1286.838385406132	28.204074369909
10	2220	1297.809808706086	26.791492103204
10	2233	1306.894997925017	35.53347844885
10	2238	1308.073662508588	24.373440554602
10	2241	1310.908785024339	23.934528990917
10	2244	1312.495924612275	17.621419247882
10	2255	1318.791818876961	21.799227629987
10	2256	1321.332464411369	19.755550373126
10	2267	1330.863066132091	28.295624724117
10	2270	1331.821413223254	19.060018895675
10	2271	1332.233142909699	15.011711949268
10	2280	1335.783778186139	11.169928252262
10	2283	1338.42159052531	10.861414572385
10	2286	1340.170742941877	9.328102277512
10	2291	1345.300853828057	14.079685287128
10	2309	1356.749766495388	1.63242872224
10	2347	1376.1658147092	18.743427578167
10	2368	1393.789916231784	32.906577768621
10	2377	1399.898705766182	34.613427333199
10	2378	1400.788128646504	32.435794855933
10	2383	1405.849660796858	30.78749171537
10	2396	1413.536610561377	38.31329515851
10	2397	1414.686109100674	34.821407829762
10	2408	1420.605555238846	39.244603391047
10	2411	1422.339638788865	30.111817740601
10	2412	1427.099878471599	16.399841176465
10	2415	1427.971705349987	11.263094304217
10	2422	1432.474040214005	10.876933062642
10	2425	1434.285588515175	6.97018358858
10	2498	1469.688831545297	0.393041088572
10	2523	1479.166702465079	6.338227475374
10	2544	1488.562612545143	14.35429627634
10	2557	1504.410659653379	26.228803076415
10	2576	1517.500326027623	37.838366001
10	2577	1517.579866435382	33.297392150751
10	2584	1524.686315864322	39.427822090695
10	2585	1526.560470115802	36.709418872416
10	2606	1538.305855151841	43.804852531826
10	2607	1538.556602187613	40.203054208014
10	2614	1544.855776624482	32.635746900111
10	2629	1555.243828227896	42.920936002946
10	2638	1561.358221287958	48.549151682057
10	2645	1567.275117916254	42.735789902987
10	2646	1567.534921424482	34.98413051636
10	2653	1576.294496698991	41.846880565623
10	2656	1577.086200742697	40.520959974955
10	2679	1589.612654659395	44.537472510063
10	2680	1589.778687781948	33.011753336353
10	2681	1590.609660020596	20.725927747294
10	2686	1591.672424132468	0.626858524346
10	2697	1595.833141667872	3.174661336336
10	2706	1600.389506267177	4.251298555962
10	2730	1616.315322104542	3.951249820317
10	2731	1616.937992151555	3.39735228378
10	2740	1620.568957392934	4.952887678154
10	2759	1629.593087963195	2.778376776372
10	2796	1646.319834643585	6.372290291123
10	2799	1654.644121496885	9.975424865874
10	2810	1666.044755832987	8.644631835572
10	2832	1676.953166982166	6.410695192107
10	2841	1679.767622831506	1.341139613011
10	2846	1682.292101393113	3.276087303378
10	2858	1684.690066547437	0.557675548705
10	2862	1689.607354848112	1.291959593799
10	2887	1704.281290567177	4.758035946799
10	2890	1707.539832048789	6.544379461612
10	2975	1751.032908194766	1.396296900954
10	2988	1761.141948432714	3.880537975172
10	3015	1769.912719821868	9.253517794928
10	3018	1771.260162424766	5.809780009277
10	3025	1774.392553442008	7.346228420301
10	3030	1778.539973376241	10.871817184568
10	3039	1784.412526915892	13.324622097509
10	3046	1786.141255023134	12.630278874874
10	3047	1788.332253068026	11.65443141131
10	3048	1791.468417473322	10.040997798707
10	3052	1792.888198279983	0.546097155704
10	3057	1802.458025577686	8.325001641349
10	3102	1817.828742191605	1.775376791754
10	3115	1827.282782078898	8.728003550371
10	3164	1851.083714708093	0.890903944761
10	3189	1861.673065704423	4.447384136046
10	3190	1862.998261851761	1.810097935252
10	3262	1892.447668072736	6.258875844558
10	3314	1918.319289012336	3.930891393476
10	3317	1919.55852625963	3.990961848294
10	3324	1921.750362870399	5.119173147838
10	3325	1922.578092792529	3.555785364145
10	3353	1935.946433184126	6.825546801191
10	3358	1937.906597039446	8.684118183823
10	3363	1943.12947404621	8.741491823297
10	3366	1944.613787942514	8.582567485171
10	3390	1955.392689644253	7.349198084529
10	3397	1956.804831536349	3.876611642302
10	3412	1964.615975442606	8.635840462167
10	3419	1970.83766791094	8.483477999072
10	3420	1974.576596611456	9.030935498302
10	3426	1977.188798672307	0.110821405755
11	3466	2000	0.4305
12	3466	2000	0.103

