version 2
run Continuity_test_mean_response_time-90-20221215-22:13:29-13822
attr configname Continuity_test_mean_response_time
attr datetime 20221215-22:13:29
attr experiment Continuity_test_mean_response_time
attr inifile omnetpp.ini
attr iterationvars $0=5
attr iterationvarsf 5-
attr measurement $0=5
attr network Network
attr processid 13822
attr repetition 90
attr replication #90
attr resultdir results
attr runnumber 90
attr seedset 90
param *.minion.arrival_mean 2
param *.minion.service_mean 1
param *.boss.arrival_mean 10
param *.boss.service_mean 5
param *.player.recover_rate_x 100
param **.minion.arrival_distribution 0
param **.minion.service_distribution 0
param **.boss.arrival_distribution 0
param **.boss.service_distribution 0

scalar Network.player boss_throughput:mean 0.0945
attr source signal_boss_throughput
scalar Network.player boss_throughput:last 0.0945
attr source signal_boss_throughput
scalar Network.player boss_defeated_stat:count 190
attr source signal_boss_defeated
scalar Network.player boss_defeated_stat:mean 94.5
attr source signal_boss_defeated
scalar Network.player boss_waiting_time_stat:mean 3.119415717824
attr source signal_boss_waiting_time
scalar Network.player boss_response_time_stat:mean 7.8843914345183
attr source signal_boss_response_time
scalar Network.player minion_throughput:mean 0.4975
attr source signal_minion_throughput
scalar Network.player minion_throughput:last 0.4975
attr source signal_minion_throughput
scalar Network.player minion_recovered_stat:count 96
attr source signal_minion_recovered
scalar Network.player minion_recovered_stat:mean 47.5
attr source signal_minion_recovered
scalar Network.player minion_defeated_stat:count 996
attr source signal_minion_defeated
scalar Network.player minion_defeated_stat:mean 497.5
attr source signal_minion_defeated
scalar Network.player minion_waiting_time_stat:mean 48.251186154105
attr source signal_minion_waiting_time
scalar Network.player minion_response_time_stat:mean 49.544554774015
attr source signal_minion_response_time

