version 2
run Continuity_test_mean_response_time-192-20221215-22:13:50-14334
attr configname Continuity_test_mean_response_time
attr datetime 20221215-22:13:50
attr experiment Continuity_test_mean_response_time
attr inifile omnetpp.ini
attr iterationvars $0=5.1
attr iterationvarsf 5.1-
attr measurement $0=5.1
attr network Network
attr processid 14334
attr repetition 92
attr replication #92
attr resultdir results
attr runnumber 192
attr seedset 92
param *.minion.arrival_mean 2
param *.minion.service_mean 1
param *.boss.arrival_mean 10
param *.boss.service_mean 5.1
param *.player.recover_rate_x 100
param **.minion.arrival_distribution 0
param **.minion.service_distribution 0
param **.boss.arrival_distribution 0
param **.boss.service_distribution 0

vector 0 Network.player minion_jobs_number_stat:vector ETV
attr source signal_minion_jobs_number
vector 1 Network.player minion_jobs_queue_number_stat:vector ETV
attr source signal_minion_jobs_queue_number
vector 2 Network.player minion_recovered_stat:vector ETV
attr source signal_minion_recovered
vector 3 Network.player minion_defeated_stat:vector ETV
attr source signal_minion_defeated
vector 4 Network.player boss_jobs_number_stat:vector ETV
attr source signal_boss_jobs_number
vector 5 Network.player boss_jobs_queue_number_stat:vector ETV
attr source signal_boss_jobs_queue_number
vector 6 Network.player boss_defeated_stat:vector ETV
attr source signal_boss_defeated
vector 7 Network.player minion_waiting_time_stat:vector ETV
attr source signal_minion_waiting_time
vector 8 Network.player minion_response_time_stat:vector ETV
attr source signal_minion_response_time
vector 9 Network.player boss_waiting_time_stat:vector ETV
attr source signal_boss_waiting_time
vector 10 Network.player boss_response_time_stat:vector ETV
attr source signal_boss_response_time
vector 11 Network.player minion_throughput:vector ETV
attr source signal_minion_throughput
vector 12 Network.player boss_throughput:vector ETV
attr source signal_boss_throughput
0	0	0	0
0	2	1.072831601516	1
0	5	2.207301873973	1
0	7	2.207453901397	2
0	13	9.197769561164	1
0	17	12.319293551137	1
0	20	13.993997524623	1
0	23	18.56898444517	1
0	31	24.074769397849	1
0	33	24.484513582183	2
0	35	25.127164316658	3
0	39	27.494807708752	3
0	41	27.779001388935	4
0	43	27.957041929276	5
0	50	31.052997503158	1
0	52	31.914786027255	2
0	56	36.678551614866	1
0	58	36.798053653325	2
0	62	38.943268735547	1
0	65	42.178102329188	1
0	68	45.036385067598	1
0	72	51.298071472543	2
0	75	55.669029372069	3
0	80	58.483050410306	1
0	82	60.06569170949	2
0	86	63.714162112081	1
0	89	65.310001463901	1
0	96	68.620850995554	2
0	100	72.210165049863	3
0	102	72.558056508038	4
0	105	73.933029107226	5
0	107	75.813923562045	6
0	109	77.228681361883	7
0	111	79.674517452718	8
0	115	82.157471122421	8
0	117	82.868288174869	9
0	122	84.619374532992	7
0	124	85.366391523327	8
0	129	88.599308212094	6
0	132	91.266599261526	6
0	137	93.926783506066	4
0	142	96.989493965773	2
0	144	97.374325466193	3
0	146	97.40908070379	4
0	152	102.38131222632	1
0	155	104.133820678221	1
0	158	104.90509969623	1
0	161	106.892963816434	1
0	169	108.985844976441	1
0	176	113.318575662364	1
0	179	118.681173323465	1
0	182	119.342279671181	1
0	185	124.271783333915	1
0	188	126.459026463497	1
0	190	126.587301814126	2
0	194	129.373117040674	1
0	196	129.707337650804	2
0	200	135.940601066666	3
0	202	138.090081012197	4
0	210	142.191473840248	5
0	212	142.329261298144	6
0	216	151.665267439391	7
0	218	153.012599519284	8
0	222	155.158123190746	9
0	228	160.482440678434	10
0	230	161.862881760816	11
0	232	162.629124136364	12
0	234	162.873525253038	13
0	236	163.821612644378	14
0	238	164.076016926534	15
0	242	166.410619533922	16
0	246	171.696376897785	17
0	248	173.605729575856	18
0	250	173.688544071073	19
0	253	174.272403132541	20
0	255	174.885814618547	21
0	257	175.476314968395	22
0	259	182.030525195532	23
0	263	182.733465126472	24
0	268	185.646974245772	25
0	272	188.74810990448	26
0	274	188.759100309694	27
0	276	191.567891317192	28
0	278	192.431204981905	29
0	285	197.830861602771	29
0	288	204.275665572112	30
0	292	205.418887254764	29
0	297	210.185138641299	27
0	302	211.169249265484	25
0	304	211.300560962119	26
0	309	215.41021661819	27
0	315	219.583793332684	27
0	317	220.203208175486	28
0	320	220.654812200308	28
0	330	226.112138913649	23
0	332	226.825733387244	24
0	335	230.185705516104	25
0	339	232.405202873637	26
0	341	233.055939621082	27
0	343	233.717479319671	28
0	345	234.105193574371	29
0	348	234.949035975568	30
0	358	242.727385849414	23
0	360	243.238406803389	24
0	364	246.354758763644	23
0	366	246.507671342265	24
0	370	247.10575695647	23
0	376	249.334918631213	20
0	380	252.104418542409	19
0	383	252.867656795422	19
0	394	263.718784313886	14
0	400	266.498673372835	11
0	403	267.144431614753	11
0	406	267.421023208236	11
0	408	267.89035742498	12
0	410	268.363678625601	13
0	416	271.52288199254	10
0	421	272.719017174489	8
0	425	273.570504280515	7
0	427	273.622833950937	8
0	437	281.226178869974	1
0	440	285.121224358861	1
0	442	285.448869112182	2
0	445	285.647640641627	2
0	448	287.503378413809	2
0	450	287.639807556222	3
0	455	291.310453655797	1
0	458	294.55227051171	1
0	461	296.775051223691	1
0	464	298.819995441693	1
0	467	299.790763840381	1
0	469	300.083496550151	2
0	473	305.542087917885	1
0	478	307.266630202892	1
0	480	308.645817097909	2
0	482	309.705823112091	3
0	484	310.093038837206	4
0	486	310.810716557199	5
0	488	311.738288016115	6
0	490	313.368052242803	7
0	494	314.334447304363	7
0	496	315.779958405061	8
0	500	318.177548532785	7
0	502	318.99535324992	8
0	508	322.703708243469	7
0	520	345.248743777343	1
0	524	350.912515237666	1
0	526	352.283565535991	2
0	528	352.301376316009	3
0	536	365.79539614186	1
0	539	369.063821307808	1
0	541	369.173524332976	2
0	543	370.273253364557	3
0	548	373.092528249252	3
0	550	375.156600583267	4
0	552	376.309301478618	5
0	554	378.581292543739	6
0	557	382.730540273292	7
0	563	385.242257515286	4
0	568	386.982912897893	2
0	575	393.511644600356	2
0	577	394.239574866553	3
0	581	394.626250512709	4
0	587	402.928132728805	5
0	590	405.552252471891	6
0	592	409.570276839763	7
0	594	410.605522572198	8
0	596	411.07257726259	9
0	598	412.373549909208	10
0	602	414.091272445705	11
0	604	415.766837309559	12
0	607	415.932967113447	13
0	609	415.93854665953	14
0	611	417.161418188126	15
0	613	418.421614152204	16
0	615	420.387253689246	17
0	620	424.936601568673	18
0	622	425.02652240641	19
0	627	426.887161508947	20
0	631	427.674346283856	21
0	633	428.421371097522	22
0	636	429.038809360966	23
0	639	431.899094120022	24
0	643	438.884179416918	25
0	645	443.564110622976	26
0	648	447.191723156252	27
0	650	447.426857381729	28
0	652	447.65143910324	29
0	657	450.730845958344	30
0	659	451.052719317905	31
0	663	452.605542098107	30
0	674	457.546729841629	22
0	677	458.431378733723	22
0	682	459.767087095025	22
0	686	460.425607832198	23
0	688	466.236945000021	24
0	690	466.491653037351	25
0	692	466.653687966194	26
0	694	466.949343047392	27
0	699	468.58289566047	28
0	701	468.804939595108	29
0	704	470.520298678992	30
0	706	471.446487959923	31
0	708	471.823404870116	32
0	710	471.923804451515	33
0	712	472.462657589049	34
0	714	472.480863783296	35
0	716	472.555670474787	36
0	718	473.826670618069	37
0	720	474.629474847632	38
0	722	475.817173372573	39
0	725	477.673058579497	40
0	731	480.35844024577	37
0	734	481.470612524933	37
0	736	481.563216052814	38
0	742	484.735915288569	39
0	744	485.191505853225	40
0	746	487.59280055857	41
0	749	489.365538855849	42
0	751	489.892248264419	43
0	753	490.059321644518	44
0	755	490.146260894101	45
0	759	494.224693542458	45
0	761	496.191507108411	46
0	763	496.601194882189	47
0	773	500.613392642857	43
0	779	503.814543640718	40
0	784	506.093964729	38
0	790	509.396481171478	37
0	792	509.44421180945	38
0	797	512.226247675842	37
0	799	513.212308175714	38
0	805	514.332582988608	37
0	807	515.223222190311	38
0	809	516.566290666577	39
0	811	516.723381676889	40
0	813	518.219810954407	41
0	817	519.545712001207	41
0	819	519.801346471239	42
0	827	523.20928005766	37
0	832	525.818909090708	35
0	834	527.169308464791	36
0	837	528.430490714478	36
0	841	530.624346214833	35
0	843	531.062627641471	36
0	851	533.558954102973	34
0	855	536.980592672793	33
0	857	539.040010316789	34
0	863	542.682178105535	31
0	867	544.811499406039	30
0	871	546.48485014298	29
0	873	546.77234908598	30
0	878	550.324807433792	28
0	882	555.24697258852	27
0	885	556.363397992324	27
0	887	557.674100059646	28
0	891	560.111606847144	29
0	893	560.703546040944	30
0	895	563.435452516762	31
0	907	568.297094217705	28
0	911	571.107777785109	28
0	913	571.421799379984	29
0	915	571.456194864881	30
0	919	574.358556638691	29
0	921	575.192388780198	30
0	926	577.499443250157	28
0	929	578.590169026509	28
0	936	581.382505521277	24
0	946	585.371249709698	17
0	948	585.552269085027	18
0	950	588.070783408417	19
0	952	588.089324431018	20
0	957	590.702353169714	18
0	959	591.324781743124	19
0	969	601.202749438621	15
0	971	603.765568891599	16
0	973	603.782321503449	17
0	978	605.176246614821	17
0	980	605.983281125762	18
0	982	606.073720895192	19
0	987	610.126127301401	18
0	1000	618.188159947556	10
0	1002	618.72216068732	11
0	1004	619.976210310492	12
0	1006	620.087637479374	13
0	1008	621.080037055783	14
0	1014	622.683863420041	12
0	1016	624.211581719396	13
0	1020	629.861449296259	12
0	1022	630.232074936145	13
0	1028	632.373097987961	13
0	1036	640.869827283867	8
0	1039	641.992641348698	8
0	1042	642.976156937147	8
0	1045	645.134694411777	8
0	1048	645.795877020333	8
0	1053	647.934486732248	8
0	1058	650.588379355111	7
0	1061	651.029216592546	7
0	1066	653.353436075279	5
0	1068	654.823444262441	6
0	1070	655.506142282129	7
0	1074	656.679274118479	6
0	1080	660.221912352855	3
0	1082	660.259544636233	4
0	1084	660.285790607268	5
0	1087	662.121257916024	5
0	1090	663.783198187617	5
0	1096	669.4686357276	2
0	1098	670.536005891418	3
0	1103	671.946387780566	1
0	1108	674.91252386254	1
0	1114	680.837289594054	1
0	1116	681.554813690173	2
0	1118	681.760282120134	3
0	1120	684.774652094206	4
0	1122	685.07859690193	5
0	1124	685.889638426399	6
0	1128	689.432120912106	7
0	1130	690.978844358744	8
0	1132	691.886422257168	9
0	1134	692.385888300392	10
0	1136	692.80996784872	11
0	1138	702.052224591572	12
0	1140	702.365791263058	13
0	1142	704.301128616947	14
0	1146	706.231699008421	15
0	1148	708.146401052789	16
0	1151	709.611354343803	17
0	1153	710.793488134967	18
0	1157	712.212404262262	19
0	1159	716.131492659	20
0	1161	716.425576833607	21
0	1165	719.307153646928	22
0	1167	721.769184408553	23
0	1169	721.84558288612	24
0	1171	722.596345058513	25
0	1173	723.276216726661	26
0	1175	724.152378650041	27
0	1178	726.166898523674	28
0	1180	728.896077641108	29
0	1182	731.976553751365	30
0	1184	732.586052215558	31
0	1186	733.274936763747	32
0	1189	736.988745885058	33
0	1191	739.954186461612	34
0	1195	741.599580468912	35
0	1197	743.120676245357	36
0	1199	743.800269306508	37
0	1201	746.010679165206	38
0	1204	751.78491709129	39
0	1206	752.227869430887	40
0	1209	752.98685430483	41
0	1214	754.744003722844	40
0	1219	760.91535357719	40
0	1221	761.165346809086	41
0	1223	763.062885885533	42
0	1225	765.320459731648	43
0	1227	767.012682143938	44
0	1234	771.439787403421	41
0	1238	773.936787179135	42
0	1240	774.744435525948	43
0	1247	777.483962218365	40
0	1251	779.798951056491	41
0	1253	780.371299893558	42
0	1255	781.630321966138	43
0	1257	783.699789546927	44
0	1259	784.157943053336	45
0	1261	784.330272881573	46
0	1267	785.429364606965	44
0	1269	786.078795926076	45
0	1272	788.433906757509	45
0	1280	791.22651835792	43
0	1283	793.1594643987	43
0	1285	793.746866413587	44
0	1288	796.036869158347	44
0	1294	798.871429561255	41
0	1303	807.702454294264	35
0	1305	808.332362835058	36
0	1308	808.738800386501	36
0	1311	810.970786076861	36
0	1316	816.210524233144	34
0	1321	818.58763793071	32
0	1325	822.589512603618	33
0	1327	823.654341968181	34
0	1329	828.682450463019	35
0	1331	830.294134536519	36
0	1335	831.238587879074	37
0	1339	835.202572503906	38
0	1341	836.22970563165	39
0	1344	839.411487867078	40
0	1346	839.770222483437	41
0	1348	842.373146650129	42
0	1352	845.290694432056	43
0	1354	845.343420762058	44
0	1359	846.322708832965	42
0	1362	847.095082938403	42
0	1364	847.594153455774	43
0	1366	848.133447143242	44
0	1370	848.754062434154	43
0	1373	850.270640751638	43
0	1377	853.015007750088	42
0	1379	853.155630590999	43
0	1381	853.304277459907	44
0	1386	857.677554189091	42
0	1389	860.40992471303	42
0	1395	866.050564485653	39
0	1397	866.182331450881	40
0	1403	870.200415071872	37
0	1407	871.176374957602	36
0	1409	871.471363879569	37
0	1411	873.353185762975	38
0	1418	875.482902182536	34
0	1420	875.656077966917	35
0	1423	876.946341877705	35
0	1426	878.116760666162	35
0	1434	882.867150262783	30
0	1436	882.891664069935	31
0	1438	883.201668655291	32
0	1440	884.957204178822	33
0	1455	894.57201328651	27
0	1460	899.950235791146	25
0	1463	900.230723620011	25
0	1466	900.532407230248	25
0	1469	900.821758683922	25
0	1473	903.654250797496	24
0	1482	912.818766390585	23
0	1484	913.545340744777	24
0	1489	916.898331373137	23
0	1495	922.151505716983	20
0	1499	923.35173530928	21
0	1509	930.000251900811	15
0	1511	930.912257212011	16
0	1513	932.317626458122	17
0	1518	933.301776372695	15
0	1520	933.526565541497	16
0	1523	934.010814689987	16
0	1525	935.126835177002	17
0	1527	935.728273187262	18
0	1532	937.750042598812	16
0	1535	939.709874146958	16
0	1537	940.446358538082	17
0	1547	949.491162478624	14
0	1549	950.035387826908	15
0	1551	954.836156428192	16
0	1553	955.700398997226	17
0	1556	957.772229191179	18
0	1558	959.140642985956	19
0	1563	962.319796802796	18
0	1565	962.475735629076	19
0	1567	962.705322933938	20
0	1571	965.557726340149	21
0	1576	978.724465450395	22
0	1578	980.202012785195	23
0	1581	980.507520472518	24
0	1584	982.285638836982	24
0	1588	986.145613616242	25
0	1591	991.284825493722	26
0	1595	992.098086140752	27
0	1597	994.076015969937	28
0	1599	998.829852841226	29
0	1601	999.479455136245	30
0	1603	1000.565790638095	31
0	1605	1001.973250920533	32
0	1610	1005.333425285457	31
0	1612	1005.401391092245	32
0	1614	1007.20412915564	33
0	1617	1012.227929184074	33
0	1620	1012.962266880079	33
0	1622	1013.122986303489	34
0	1624	1013.928737180524	35
0	1627	1014.249007498572	35
0	1629	1014.504193256232	36
0	1631	1014.518363646556	37
0	1634	1017.163387642957	37
0	1639	1019.944487644358	35
0	1641	1020.064179357032	36
0	1643	1020.419640131002	37
0	1652	1026.412447330293	31
0	1654	1027.296316402937	32
0	1657	1028.849135838872	32
0	1659	1029.063253684767	33
0	1661	1029.063312692373	34
0	1663	1029.502543611758	35
0	1666	1031.612959536214	35
0	1675	1035.792772351021	29
0	1678	1038.997225796808	29
0	1687	1046.399086718159	26
0	1690	1047.524973407544	26
0	1692	1047.881784210703	27
0	1694	1048.891891032577	28
0	1696	1048.920014620061	29
0	1699	1051.991420758899	29
0	1701	1052.180461990543	30
0	1706	1052.913518411812	28
0	1709	1053.279529945366	28
0	1711	1054.567298154954	29
0	1718	1057.136876748783	28
0	1723	1059.670766390671	26
0	1728	1062.889724108875	24
0	1730	1063.737386727038	25
0	1742	1069.277995259288	18
0	1750	1070.489013087902	14
0	1758	1074.690887318588	9
0	1763	1076.77165306651	7
0	1765	1076.885429474866	8
0	1767	1077.195625491607	9
0	1773	1078.525989473372	6
0	1775	1078.710568818985	7
0	1782	1083.614664311717	6
0	1785	1084.358925271062	6
0	1788	1084.798744700097	6
0	1790	1084.984014752315	7
0	1794	1087.051712677654	8
0	1796	1087.366919300909	9
0	1798	1089.387944811408	10
0	1802	1090.827157649493	10
0	1812	1096.785122874195	5
0	1814	1098.319434203569	6
0	1816	1102.080692417669	7
0	1820	1105.46563335724	8
0	1827	1110.397211447836	6
0	1832	1111.539704729036	4
0	1834	1111.797858095682	5
0	1836	1112.89334404687	6
0	1839	1113.64430399909	6
0	1842	1114.033572147108	6
0	1848	1116.830361180658	3
0	1850	1116.979897225711	4
0	1855	1119.192914936205	2
0	1864	1128.235215075549	1
0	1866	1132.119015136572	2
0	1870	1136.371969304749	2
0	1873	1136.777255137626	2
0	1876	1138.389865443015	2
0	1880	1140.665513980487	1
0	1883	1143.401990349277	1
0	1886	1146.972852052106	1
0	1888	1147.27699453816	2
0	1891	1148.229808578459	2
0	1893	1148.521996670844	3
0	1901	1152.755473041453	1
0	1904	1154.424894907248	1
0	1906	1154.763283422729	2
0	1910	1155.996092100405	1
0	1913	1158.658610976443	1
0	1915	1159.733802432531	2
0	1917	1161.021960427198	3
0	1921	1163.640334839354	4
0	1923	1164.798873878091	5
0	1932	1170.90547426434	2
0	1936	1171.7033090148	3
0	1939	1172.572816177088	4
0	1941	1172.648535979753	5
0	1943	1173.87791133584	6
0	1947	1179.030549927684	6
0	1949	1179.10236605005	7
0	1953	1180.253544596008	6
0	1955	1182.395807156673	7
0	1959	1185.320331169133	6
0	1961	1185.923338501669	7
0	1963	1186.033484461067	8
0	1968	1188.481714197559	6
0	1973	1191.12388917723	6
0	1975	1191.780317283591	7
0	1980	1195.480906769649	8
0	1985	1198.31251101101	9
0	1987	1199.128922014178	10
0	1989	1199.17907302888	11
0	1995	1202.502471989734	12
0	1997	1203.484051186718	13
0	1999	1203.578817644303	14
0	2001	1205.805769507408	15
0	2003	1207.073580744343	16
0	2005	1211.829676105355	17
0	2008	1215.286949225625	18
0	2010	1216.026350557512	19
0	2012	1217.364196790937	20
0	2014	1220.362997857079	21
0	2018	1223.547703108334	22
0	2024	1229.679612285232	23
0	2026	1230.602985609886	24
0	2028	1231.402423272366	25
0	2033	1233.219536105876	26
0	2036	1237.03193775663	27
0	2042	1238.839391142597	28
0	2045	1240.714117092853	29
0	2047	1242.414649884531	30
0	2049	1244.941826485926	31
0	2051	1245.445421406973	32
0	2053	1246.676119604651	33
0	2055	1252.15814666336	34
0	2057	1252.774994232608	35
0	2059	1252.830700149225	36
0	2061	1256.051659965203	37
0	2065	1257.235286324094	38
0	2067	1259.247062372562	39
0	2069	1262.362474165374	40
0	2071	1263.666926933976	41
0	2074	1265.90712819167	42
0	2078	1266.926702839113	43
0	2086	1277.295299149435	44
0	2092	1293.298294192596	45
0	2095	1299.130171597002	46
0	2098	1299.291052890402	47
0	2101	1301.766015903299	48
0	2103	1304.933839071598	49
0	2105	1305.397535252117	50
0	2107	1306.546803631948	51
0	2111	1314.649653165668	52
0	2113	1315.367942983061	53
0	2115	1315.622963084504	54
0	2119	1323.828285875014	55
0	2125	1327.878200966453	55
0	2130	1329.246629918419	56
0	2132	1329.36542361059	57
0	2134	1336.024179956775	58
0	2136	1336.283480194005	59
0	2138	1336.876281670852	60
0	2140	1337.791103300615	61
0	2144	1339.175646379044	62
0	2151	1347.065197580486	63
0	2155	1351.471464139757	64
0	2157	1355.830721854381	65
0	2159	1355.88390039077	66
0	2161	1356.114038550197	67
0	2164	1356.591711561722	68
0	2170	1359.409729405249	69
0	2172	1359.682725384037	70
0	2179	1364.417731528365	68
0	2184	1367.594120721514	66
0	2187	1367.964744733242	66
0	2192	1373.287423869794	66
0	2194	1373.63892701687	67
0	2196	1373.639747353379	68
0	2198	1377.528005884619	69
0	2200	1378.482095265415	70
0	2206	1380.250537143024	68
0	2213	1383.779875955352	64
0	2218	1385.273756771556	62
0	2224	1390.589519655264	59
0	2228	1393.310054345095	58
0	2230	1393.75340238149	59
0	2233	1395.48350555306	59
0	2235	1396.08966702355	60
0	2243	1398.866167470862	55
0	2264	1409.547550294857	48
0	2266	1409.774946764388	49
0	2270	1411.079132589204	49
0	2274	1413.312470089904	50
0	2279	1414.925794233495	49
0	2282	1415.790289828324	49
0	2285	1416.071353888647	49
0	2287	1416.593036759635	50
0	2292	1421.352164956594	48
0	2294	1422.315039733108	49
0	2298	1424.48878690348	50
0	2302	1428.71249616621	51
0	2304	1428.871920201449	52
0	2308	1436.181777453715	53
0	2310	1436.671006090139	54
0	2314	1438.496963787201	53
0	2318	1444.160485718435	52
0	2321	1444.525881969531	52
0	2324	1445.422111697444	52
0	2330	1450.464708485404	53
0	2337	1453.307476766121	54
0	2342	1457.42432213525	55
0	2344	1459.246103376866	56
0	2346	1462.466158056784	57
0	2348	1463.127518515337	58
0	2350	1464.558675925402	59
0	2355	1467.186777955651	60
0	2359	1469.282414664324	61
0	2361	1470.247851711114	62
0	2363	1470.984826770319	63
0	2365	1472.756882793617	64
0	2367	1473.752996986723	65
0	2369	1474.522407946314	66
0	2371	1474.556788451171	67
0	2373	1475.19251036869	68
0	2375	1475.922743559853	69
0	2379	1478.602534093849	70
0	2383	1480.220146636877	71
0	2387	1485.451661234752	72
0	2389	1486.608320679352	73
0	2391	1487.624666391689	74
0	2393	1488.325451279307	75
0	2395	1489.405752939402	76
0	2397	1489.669380724939	77
0	2399	1489.900401334664	78
0	2403	1491.724274499728	79
0	2405	1492.581462912426	80
0	2407	1493.506748329673	81
0	2409	1493.825326563623	82
0	2411	1494.188562524655	83
0	2415	1496.918486423558	84
0	2419	1502.664955656769	85
0	2423	1509.628620282893	86
0	2425	1511.210344357782	87
0	2428	1514.336894814855	88
0	2431	1515.549951074535	89
0	2433	1516.364146476826	90
0	2438	1524.359060372315	91
0	2440	1525.163746087868	92
0	2444	1526.026915122441	93
0	2448	1526.910220001535	94
0	2451	1530.778276770242	95
0	2453	1530.875144864205	96
0	2455	1531.842238819913	97
0	2457	1538.990951815872	98
0	2461	1542.201284400566	99
0	2464	1551.329058033378	100
0	2466	1551.544318358845	101
0	2468	1552.997324369372	102
0	2471	1553.292476826414	103
0	2477	1556.987215965671	100
0	2481	1559.984122134178	99
0	2488	1563.386901795932	95
0	2492	1564.781471827922	96
0	2494	1565.71648214542	97
0	2501	1569.324936193304	96
0	2503	1569.868772929221	97
0	2505	1573.638970361902	98
0	2510	1577.904608364661	99
0	2518	1580.68972678483	98
0	2522	1583.099118409136	97
0	2528	1588.011054329897	94
0	2535	1593.815916655319	90
0	2543	1600.338783002973	88
0	2547	1603.76189156217	87
0	2549	1603.802474611229	88
0	2555	1608.880286804249	85
0	2559	1610.136489561219	84
0	2561	1611.075056313611	85
0	2563	1611.35241088298	86
0	2569	1615.185195003382	83
0	2572	1617.113688607597	83
0	2574	1617.626632103358	84
0	2576	1617.876130404556	85
0	2578	1618.235125190643	86
0	2581	1618.317368157397	86
0	2583	1618.484330629173	87
0	2585	1620.388863843583	88
0	2591	1622.293296063692	88
0	2594	1622.947771717655	88
0	2599	1627.062609251788	88
0	2601	1627.928941642085	89
0	2610	1633.698352456365	84
0	2614	1634.434079701077	83
0	2617	1635.234684523168	83
0	2620	1636.679285174641	83
0	2628	1640.73920643277	78
0	2634	1642.37125243926	75
0	2636	1643.010644829958	76
0	2640	1645.352696889428	75
0	2642	1646.389474796859	76
0	2647	1649.889062461042	74
0	2649	1650.506794520507	75
0	2654	1652.794173926165	73
0	2663	1659.46228272246	67
0	2665	1659.928294030046	68
0	2668	1662.054842308708	68
0	2670	1662.344648284604	69
0	2675	1664.231960096768	69
0	2677	1664.493226895061	70
0	2683	1669.246301523218	71
0	2686	1670.302980997983	71
0	2689	1672.270591531014	71
0	2693	1674.17155905626	70
0	2695	1674.422492327083	71
0	2697	1674.446476940154	72
0	2702	1676.106368159625	70
0	2711	1680.752461367016	67
0	2717	1687.227879202461	64
0	2721	1687.852212215044	65
0	2723	1687.898726703216	66
0	2725	1688.399069873731	67
0	2727	1689.51777392075	68
0	2729	1689.850483236909	69
0	2731	1690.185670984851	70
0	2735	1693.283224079292	71
0	2739	1694.111877209996	72
0	2741	1694.467332466133	73
0	2745	1695.500830934256	74
0	2747	1696.242452566604	75
0	2749	1697.911716261853	76
0	2751	1698.866498034101	77
0	2753	1700.816985598254	78
0	2756	1701.526835507044	79
0	2758	1702.284165304981	80
0	2760	1703.143581659915	81
0	2767	1707.601912645726	82
0	2769	1708.282303594378	83
0	2771	1710.904952659947	84
0	2773	1711.08794019818	85
0	2775	1713.126793808997	86
0	2777	1714.581070097067	87
0	2782	1714.828750003836	88
0	2784	1717.123981746664	89
0	2786	1717.150353660668	90
0	2790	1721.748243992719	91
0	2796	1728.468551673437	92
0	2798	1729.881446770171	93
0	2802	1733.176562862489	94
0	2804	1734.21045980334	95
0	2806	1734.885627565678	96
0	2810	1738.257901346684	97
0	2814	1740.273889656012	98
0	2816	1740.344096126043	99
0	2818	1743.363680631537	100
0	2820	1745.14100462023	101
0	2823	1749.608466796089	102
0	2825	1751.133812194915	103
0	2827	1752.768109564158	104
0	2829	1753.493810336709	105
0	2831	1754.214547111662	106
0	2836	1755.831042424264	107
0	2840	1756.175359966799	108
0	2845	1756.957709942677	109
0	2848	1760.843987005067	110
0	2851	1763.911187250695	111
0	2853	1768.709974123465	112
0	2855	1771.880939879319	113
0	2859	1775.249962274237	114
0	2861	1778.812346768283	115
0	2863	1779.078824440195	116
0	2865	1779.331661274798	117
0	2867	1781.644782883315	118
0	2872	1786.25726588	119
0	2875	1787.037227232015	120
0	2879	1791.057317617298	121
0	2882	1794.044063570508	122
0	2884	1797.214017090358	123
0	2890	1801.619200455989	124
0	2892	1802.084796195275	125
0	2894	1806.290498347601	126
0	2896	1810.403488417209	127
0	2899	1811.299464593786	128
0	2904	1816.279356192984	129
0	2906	1816.332206098182	130
0	2911	1819.764122296621	131
0	2913	1820.259796371286	132
0	2915	1821.858501641203	133
0	2923	1826.253020649548	134
0	2925	1827.577789405023	135
0	2927	1828.607891891394	136
0	2932	1832.985248031632	137
0	2935	1835.541530368884	138
0	2937	1839.19828921845	139
0	2940	1840.157521212722	140
0	2942	1840.311400668125	141
0	2944	1840.551571260727	142
0	2946	1841.342517816044	143
0	2948	1843.072161060579	144
0	2950	1843.458787505761	145
0	2952	1846.208084434591	146
0	2957	1850.412884208913	147
0	2963	1853.688546309745	148
0	2965	1853.91011796348	149
0	2968	1854.608520556279	150
0	2971	1855.705651464354	151
0	2980	1858.53386432399	146
0	2987	1863.90263578603	142
0	2995	1869.530327262188	141
0	2999	1870.265929332635	142
0	3001	1874.229770933232	143
0	3003	1874.476626185866	144
0	3005	1875.42460236111	145
0	3007	1875.797990715349	146
0	3009	1877.461825031194	147
0	3012	1878.708870877631	148
0	3016	1881.563187093502	149
0	3018	1881.917428008654	150
0	3020	1886.042914497999	151
0	3024	1892.012400082619	152
0	3026	1892.830922465447	153
0	3028	1893.958825266542	154
0	3030	1897.172818089116	155
0	3036	1901.398427816398	153
0	3039	1902.173466634629	153
0	3043	1903.864675245439	152
0	3049	1909.070256078998	151
0	3051	1909.380426367194	152
0	3053	1911.128731300272	153
0	3057	1912.173302577934	154
0	3059	1912.443748937432	155
0	3061	1916.083199014706	156
0	3063	1918.622669957402	157
0	3065	1918.934169773462	158
0	3067	1919.110060205863	159
0	3071	1921.120856271106	160
0	3073	1921.923422128984	161
0	3075	1922.165639119349	162
0	3078	1929.550400712871	163
0	3080	1930.243546534838	164
0	3083	1930.703209925876	165
0	3085	1933.21264360061	166
0	3087	1936.983178438582	167
0	3089	1937.916178753521	168
0	3091	1937.962479931629	169
0	3093	1939.835065058364	170
0	3103	1949.171507355065	164
0	3106	1952.979673831917	164
0	3110	1954.67694708097	163
0	3118	1958.076108484468	158
0	3125	1961.636735532476	158
0	3129	1962.831142390052	159
0	3133	1963.805622091527	160
0	3137	1964.634401020989	161
0	3139	1965.302256019965	162
0	3141	1965.479714895987	163
0	3144	1965.749442369196	164
0	3146	1966.617053676619	165
0	3148	1969.466040482618	166
0	3150	1970.605754742535	167
0	3152	1971.836810366277	168
0	3154	1972.045543799415	169
0	3156	1973.324973878199	170
0	3160	1974.391242165242	171
0	3164	1980.472150819516	172
0	3166	1982.387115125419	173
0	3168	1983.54175178616	174
0	3171	1986.195703167372	175
0	3173	1986.599271157485	176
0	3175	1988.317669374067	177
0	3177	1989.558250449568	178
0	3179	1990.487564165839	179
0	3182	1993.512474359834	180
0	3184	1994.033345971729	181
0	3186	1994.174313058636	182
0	3188	1994.406637713513	183
0	3192	1999.838275039399	184
1	0	0	0
1	2	1.072831601516	0
1	3	2.122651911667	0
1	5	2.207301873973	0
1	7	2.207453901397	1
1	8	2.257855858168	1
1	9	2.678610704339	0
1	13	9.197769561164	0
1	15	11.740864936237	0
1	17	12.319293551137	0
1	18	12.866568986877	0
1	20	13.993997524623	0
1	21	14.59673127198	0
1	23	18.56898444517	0
1	27	20.221551232491	0
1	31	24.074769397849	0
1	33	24.484513582183	1
1	35	25.127164316658	2
1	37	27.293163350089	2
1	39	27.494807708752	2
1	41	27.779001388935	3
1	43	27.957041929276	4
1	44	28.857870324247	4
1	45	29.485884695872	3
1	46	29.601657135954	2
1	47	29.844632675184	1
1	48	30.287414765571	0
1	50	31.052997503158	0
1	52	31.914786027255	1
1	53	33.853846885891	1
1	54	34.597028112618	0
1	56	36.678551614866	0
1	58	36.798053653325	1
1	59	37.97661556586	1
1	60	38.10921731188	0
1	62	38.943268735547	0
1	63	39.907863584736	0
1	65	42.178102329188	0
1	66	42.537754732883	0
1	68	45.036385067598	0
1	72	51.298071472543	1
1	75	55.669029372069	2
1	76	56.179508321396	2
1	77	56.481329536048	1
1	78	56.756038191469	0
1	80	58.483050410306	0
1	82	60.06569170949	1
1	83	61.067983546321	1
1	84	62.009855837746	0
1	86	63.714162112081	0
1	87	64.658642598077	0
1	89	65.310001463901	0
1	96	68.620850995554	1
1	100	72.210165049863	2
1	102	72.558056508038	3
1	105	73.933029107226	4
1	107	75.813923562045	5
1	109	77.228681361883	6
1	111	79.674517452718	7
1	113	81.955603399679	7
1	115	82.157471122421	7
1	117	82.868288174869	8
1	118	83.268748542777	8
1	119	83.560122480188	7
1	120	84.488067199565	6
1	122	84.619374532992	6
1	124	85.366391523327	7
1	125	86.532910706771	7
1	126	86.730529586913	6
1	127	88.110495392687	5
1	129	88.599308212094	5
1	130	91.132860490417	5
1	132	91.266599261526	5
1	133	92.191875728821	5
1	134	92.332717898298	4
1	135	93.300121273783	3
1	137	93.926783506066	3
1	138	95.371909908089	3
1	139	95.983615798974	2
1	140	96.918113540429	1
1	142	96.989493965773	1
1	144	97.374325466193	2
1	146	97.40908070379	3
1	147	97.799200909054	3
1	148	100.736788388334	2
1	149	101.090213301099	1
1	150	101.998203627123	0
1	152	102.38131222632	0
1	153	102.43914754414	0
1	155	104.133820678221	0
1	156	104.83858699262	0
1	158	104.90509969623	0
1	159	105.489085922265	0
1	161	106.892963816434	0
1	162	107.205031511495	0
1	169	108.985844976441	0
1	171	111.403361897824	0
1	176	113.318575662364	0
1	177	115.902040481072	0
1	179	118.681173323465	0
1	180	119.199032335739	0
1	182	119.342279671181	0
1	183	119.755731215042	0
1	185	124.271783333915	0
1	186	124.485879242711	0
1	188	126.459026463497	0
1	190	126.587301814126	1
1	191	127.713022103944	1
1	192	127.824074010975	0
1	194	129.373117040674	0
1	196	129.707337650804	1
1	200	135.940601066666	2
1	202	138.090081012197	3
1	210	142.191473840248	4
1	212	142.329261298144	5
1	216	151.665267439391	6
1	218	153.012599519284	7
1	222	155.158123190746	8
1	228	160.482440678434	9
1	230	161.862881760816	10
1	232	162.629124136364	11
1	234	162.873525253038	12
1	236	163.821612644378	13
1	238	164.076016926534	14
1	242	166.410619533922	15
1	246	171.696376897785	16
1	248	173.605729575856	17
1	250	173.688544071073	18
1	253	174.272403132541	19
1	255	174.885814618547	20
1	257	175.476314968395	21
1	259	182.030525195532	22
1	263	182.733465126472	23
1	268	185.646974245772	24
1	272	188.74810990448	25
1	274	188.759100309694	26
1	276	191.567891317192	27
1	278	192.431204981905	28
1	281	196.748527241886	28
1	285	197.830861602771	28
1	288	204.275665572112	29
1	289	204.413553774418	29
1	290	204.567919627149	28
1	292	205.418887254764	28
1	293	208.372367062879	28
1	294	208.893329230319	27
1	295	209.094267392428	26
1	297	210.185138641299	26
1	298	210.436539519128	26
1	299	210.485634689731	25
1	300	211.138946058652	24
1	302	211.169249265484	24
1	304	211.300560962119	25
1	309	215.41021661819	26
1	313	219.576001200645	26
1	315	219.583793332684	26
1	317	220.203208175486	27
1	318	220.465527829737	27
1	320	220.654812200308	27
1	321	220.987862975278	27
1	322	221.004541826674	26
1	323	222.581147805439	25
1	324	223.103756852109	24
1	325	223.864775522833	23
1	326	224.30258925195	22
1	330	226.112138913649	22
1	332	226.825733387244	23
1	335	230.185705516104	24
1	339	232.405202873637	25
1	341	233.055939621082	26
1	343	233.717479319671	27
1	345	234.105193574371	28
1	348	234.949035975568	29
1	349	236.639649704335	29
1	350	237.024257404642	28
1	351	238.100553109329	27
1	352	238.614688140451	26
1	353	239.077092259777	25
1	354	239.757316682238	24
1	355	240.302937583828	23
1	356	242.345496957956	22
1	358	242.727385849414	22
1	360	243.238406803389	23
1	361	244.113381971803	23
1	362	245.965550710562	22
1	364	246.354758763644	22
1	366	246.507671342265	23
1	367	246.576394547093	23
1	368	246.979577523012	22
1	370	247.10575695647	22
1	371	247.119014711322	22
1	372	247.924209045673	21
1	373	248.702353194783	20
1	374	248.712659058939	19
1	376	249.334918631213	19
1	377	251.371624789888	19
1	378	251.978909815625	18
1	380	252.104418542409	18
1	381	252.372099517922	18
1	383	252.867656795422	18
1	384	252.882054050302	18
1	385	253.090515930937	17
1	386	255.353856033517	16
1	390	262.647670849406	15
1	391	262.676722943388	14
1	392	262.749124080111	13
1	394	263.718784313886	13
1	395	264.244216604121	13
1	396	264.321884899708	12
1	397	264.368187131868	11
1	398	265.21904323945	10
1	400	266.498673372835	10
1	401	266.745041510939	10
1	403	267.144431614753	10
1	404	267.351582364457	10
1	406	267.421023208236	10
1	408	267.89035742498	11
1	410	268.363678625601	12
1	411	268.735096108219	12
1	412	268.90984280055	11
1	413	270.291411516523	10
1	414	271.383979315505	9
1	416	271.52288199254	9
1	417	271.712316913408	9
1	418	271.754320299188	8
1	419	272.027857183188	7
1	421	272.719017174489	7
1	422	273.064098599362	7
1	423	273.16118722115	6
1	425	273.570504280515	6
1	427	273.622833950937	7
1	428	275.780062551778	7
1	429	275.885893013888	6
1	430	276.195975672076	5
1	431	277.18281783273	4
1	432	277.832257313338	3
1	433	278.125012494631	2
1	434	278.873465386636	1
1	435	279.525412038605	0
1	437	281.226178869974	0
1	438	282.983268790375	0
1	440	285.121224358861	0
1	442	285.448869112182	1
1	443	285.521664964909	1
1	445	285.647640641627	1
1	446	287.029798884405	1
1	448	287.503378413809	1
1	450	287.639807556222	2
1	451	288.19043595035	2
1	452	288.236704300035	1
1	453	289.371488279039	0
1	455	291.310453655797	0
1	456	291.574431160445	0
1	458	294.55227051171	0
1	459	294.71517068574	0
1	461	296.775051223691	0
1	462	298.490504871095	0
1	464	298.819995441693	0
1	465	299.137235420076	0
1	467	299.790763840381	0
1	469	300.083496550151	1
1	470	300.98963813041	1
1	471	301.009365093324	0
1	473	305.542087917885	0
1	474	305.769502186716	0
1	478	307.266630202892	0
1	480	308.645817097909	1
1	482	309.705823112091	2
1	484	310.093038837206	3
1	486	310.810716557199	4
1	488	311.738288016115	5
1	490	313.368052242803	6
1	492	313.869358736756	6
1	494	314.334447304363	6
1	496	315.779958405061	7
1	497	315.910828961534	7
1	498	316.853167206531	6
1	500	318.177548532785	6
1	502	318.99535324992	7
1	503	320.476030700642	7
1	504	320.743112081497	6
1	508	322.703708243469	6
1	510	324.704250766719	6
1	511	324.731092263365	5
1	512	324.875925052249	4
1	513	325.283662395395	3
1	514	325.892647801537	2
1	515	326.266497595471	1
1	516	331.044331921037	0
1	520	345.248743777343	0
1	522	349.715156952707	0
1	524	350.912515237666	0
1	526	352.283565535991	1
1	528	352.301376316009	2
1	529	352.44370765834	2
1	530	353.01752195956	1
1	531	356.23816520191	0
1	536	365.79539614186	0
1	537	366.041085260706	0
1	539	369.063821307808	0
1	541	369.173524332976	1
1	543	370.273253364557	2
1	544	370.954314484883	2
1	548	373.092528249252	2
1	550	375.156600583267	3
1	552	376.309301478618	4
1	554	378.581292543739	5
1	557	382.730540273292	6
1	558	382.933805421364	6
1	559	383.857952191069	5
1	560	383.912466875201	4
1	561	384.847071374582	3
1	563	385.242257515286	3
1	564	385.823829051254	3
1	565	385.849747436132	2
1	566	385.943180438274	1
1	568	386.982912897893	1
1	569	388.420809269073	1
1	575	393.511644600356	1
1	577	394.239574866553	2
1	581	394.626250512709	3
1	587	402.928132728805	4
1	590	405.552252471891	5
1	592	409.570276839763	6
1	594	410.605522572198	7
1	596	411.07257726259	8
1	598	412.373549909208	9
1	602	414.091272445705	10
1	604	415.766837309559	11
1	607	415.932967113447	12
1	609	415.93854665953	13
1	611	417.161418188126	14
1	613	418.421614152204	15
1	615	420.387253689246	16
1	620	424.936601568673	17
1	622	425.02652240641	18
1	627	426.887161508947	19
1	631	427.674346283856	20
1	633	428.421371097522	21
1	636	429.038809360966	22
1	639	431.899094120022	23
1	643	438.884179416918	24
1	645	443.564110622976	25
1	648	447.191723156252	26
1	650	447.426857381729	27
1	652	447.65143910324	28
1	657	450.730845958344	29
1	659	451.052719317905	30
1	660	451.074647875599	30
1	661	451.683119171704	29
1	663	452.605542098107	29
1	664	452.740414553066	29
1	665	452.775413008829	28
1	666	453.901156695282	27
1	667	454.313347373075	26
1	668	454.934606758594	25
1	669	455.06618480358	24
1	670	455.581131901711	23
1	671	456.186606577744	22
1	672	456.448938472617	21
1	674	457.546729841629	21
1	675	458.276184693779	21
1	677	458.431378733723	21
1	678	459.54821581085	21
1	682	459.767087095025	21
1	686	460.425607832198	22
1	688	466.236945000021	23
1	690	466.491653037351	24
1	692	466.653687966194	25
1	694	466.949343047392	26
1	699	468.58289566047	27
1	701	468.804939595108	28
1	704	470.520298678992	29
1	706	471.446487959923	30
1	708	471.823404870116	31
1	710	471.923804451515	32
1	712	472.462657589049	33
1	714	472.480863783296	34
1	716	472.555670474787	35
1	718	473.826670618069	36
1	720	474.629474847632	37
1	722	475.817173372573	38
1	725	477.673058579497	39
1	726	478.317873972878	39
1	727	478.938769107822	38
1	728	479.448019799636	37
1	729	480.268899850773	36
1	731	480.35844024577	36
1	732	481.246245848819	36
1	734	481.470612524933	36
1	736	481.563216052814	37
1	742	484.735915288569	38
1	744	485.191505853225	39
1	746	487.59280055857	40
1	749	489.365538855849	41
1	751	489.892248264419	42
1	753	490.059321644518	43
1	755	490.146260894101	44
1	757	492.337480376748	44
1	759	494.224693542458	44
1	761	496.191507108411	45
1	763	496.601194882189	46
1	767	497.931670424389	46
1	768	498.309178632166	45
1	769	498.571005075675	44
1	770	498.793513155536	43
1	771	499.661961392788	42
1	773	500.613392642857	42
1	774	500.741208352049	42
1	775	502.165848814807	41
1	776	502.863017193947	40
1	777	503.808345709505	39
1	779	503.814543640718	39
1	780	504.114804433569	39
1	781	504.572277411488	38
1	782	504.777713089826	37
1	784	506.093964729	37
1	785	506.406871505112	37
1	786	507.072927211295	36
1	790	509.396481171478	36
1	792	509.44421180945	37
1	794	511.363053318214	37
1	795	512.152756750046	36
1	797	512.226247675842	36
1	799	513.212308175714	37
1	800	513.846984064458	37
1	801	514.053694997053	36
1	805	514.332582988608	36
1	807	515.223222190311	37
1	809	516.566290666577	38
1	811	516.723381676889	39
1	813	518.219810954407	40
1	815	518.889195446832	40
1	817	519.545712001207	40
1	819	519.801346471239	41
1	820	520.79826174921	41
1	821	521.376794100418	40
1	822	521.382144494339	39
1	823	521.707525756558	38
1	824	521.838179646744	37
1	825	522.454411774658	36
1	827	523.20928005766	36
1	828	523.486567863434	36
1	829	524.544881688723	35
1	830	524.858355408804	34
1	832	525.818909090708	34
1	834	527.169308464791	35
1	835	527.932486947791	35
1	837	528.430490714478	35
1	838	530.315058200966	35
1	839	530.367229114208	34
1	841	530.624346214833	34
1	843	531.062627641471	35
1	847	532.686139765444	35
1	848	532.799258165433	34
1	849	533.523262880523	33
1	851	533.558954102973	33
1	852	534.042737754721	33
1	853	536.222169032222	32
1	855	536.980592672793	32
1	857	539.040010316789	33
1	858	539.388008201154	33
1	859	540.190566507667	32
1	860	542.29391999148	31
1	861	542.6218890501	30
1	863	542.682178105535	30
1	864	543.065013869439	30
1	865	544.528298159094	29
1	867	544.811499406039	29
1	868	545.281652388472	29
1	869	545.552502877493	28
1	871	546.48485014298	28
1	873	546.77234908598	29
1	874	547.45882086748	29
1	875	548.236044476743	28
1	876	548.408503208455	27
1	878	550.324807433792	27
1	879	552.35584778175	27
1	880	555.18046964486	26
1	882	555.24697258852	26
1	883	555.604457894782	26
1	885	556.363397992324	26
1	887	557.674100059646	27
1	891	560.111606847144	28
1	893	560.703546040944	29
1	895	563.435452516762	30
1	897	564.145758324066	30
1	898	564.22019037638	29
1	899	564.2367103657	28
1	900	565.090433234766	27
1	907	568.297094217705	27
1	909	570.697791322188	27
1	911	571.107777785109	27
1	913	571.421799379984	28
1	915	571.456194864881	29
1	916	573.846202289505	29
1	917	573.940502781117	28
1	919	574.358556638691	28
1	921	575.192388780198	29
1	922	576.67479196728	29
1	923	577.215709574134	28
1	924	577.24427223594	27
1	926	577.499443250157	27
1	927	578.082243624643	27
1	929	578.590169026509	27
1	930	580.162850105853	27
1	931	580.574109510184	26
1	932	580.718704006291	25
1	933	581.035233440528	24
1	934	581.043146489511	23
1	936	581.382505521277	23
1	937	581.462189311281	23
1	938	581.507793670165	22
1	939	581.544393125418	21
1	940	581.751340475904	20
1	941	582.695021042328	19
1	942	582.858121477513	18
1	943	583.67801494134	17
1	944	583.922111809857	16
1	946	585.371249709698	16
1	948	585.552269085027	17
1	950	588.070783408417	18
1	952	588.089324431018	19
1	953	589.095671282399	19
1	954	589.524539299725	18
1	955	589.854779918393	17
1	957	590.702353169714	17
1	959	591.324781743124	18
1	963	596.658140880863	18
1	964	598.680254319778	17
1	965	599.189439744818	16
1	966	600.58518514107	15
1	967	601.014640065027	14
1	969	601.202749438621	14
1	971	603.765568891599	15
1	973	603.782321503449	16
1	974	604.334649886612	16
1	978	605.176246614821	16
1	980	605.983281125762	17
1	982	606.073720895192	18
1	984	607.806078846467	18
1	985	607.92729552884	17
1	987	610.126127301401	17
1	988	610.531451606822	17
1	989	610.866031504024	16
1	990	611.8367957844	15
1	991	612.069701094766	14
1	992	612.805882027018	13
1	993	612.94407186755	12
1	994	613.260414448159	11
1	995	613.422857345619	10
1	996	614.653354263255	9
1	1000	618.188159947556	9
1	1002	618.72216068732	10
1	1004	619.976210310492	11
1	1006	620.087637479374	12
1	1008	621.080037055783	13
1	1010	621.481331882258	13
1	1011	622.039036831572	12
1	1012	622.28691021203	11
1	1014	622.683863420041	11
1	1016	624.211581719396	12
1	1017	625.999837855835	12
1	1018	626.664256613033	11
1	1020	629.861449296259	11
1	1022	630.232074936145	12
1	1023	630.270724406571	12
1	1028	632.373097987961	12
1	1029	634.076664240191	12
1	1030	636.465555027879	11
1	1031	636.487617749722	10
1	1032	637.11711668209	9
1	1033	640.535236742452	8
1	1034	640.795608948797	7
1	1036	640.869827283867	7
1	1037	641.524876390768	7
1	1039	641.992641348698	7
1	1040	642.761074634612	7
1	1042	642.976156937147	7
1	1043	644.438325661594	7
1	1045	645.134694411777	7
1	1046	645.278711937891	7
1	1048	645.795877020333	7
1	1049	646.44403815821	7
1	1053	647.934486732248	7
1	1055	648.90609794015	7
1	1056	649.948193271456	6
1	1058	650.588379355111	6
1	1059	650.751570246252	6
1	1061	651.029216592546	6
1	1062	651.747842546672	6
1	1063	652.411975777042	5
1	1064	653.168351133779	4
1	1066	653.353436075279	4
1	1068	654.823444262441	5
1	1070	655.506142282129	6
1	1071	655.575880361797	6
1	1072	656.147166492647	5
1	1074	656.679274118479	5
1	1075	656.808201561392	5
1	1076	657.629655449645	4
1	1077	657.743667640858	3
1	1078	659.667830290739	2
1	1080	660.221912352855	2
1	1082	660.259544636233	3
1	1084	660.285790607268	4
1	1085	660.847495343819	4
1	1087	662.121257916024	4
1	1088	662.734315859476	4
1	1090	663.783198187617	4
1	1091	667.490534474588	4
1	1092	668.110911843328	3
1	1093	669.08392019484	2
1	1094	669.322509325615	1
1	1096	669.4686357276	1
1	1098	670.536005891418	2
1	1099	671.098096031061	2
1	1100	671.23518758523	1
1	1101	671.337944028036	0
1	1103	671.946387780566	0
1	1104	672.024207037346	0
1	1108	674.91252386254	0
1	1110	675.967675494382	0
1	1114	680.837289594054	0
1	1116	681.554813690173	1
1	1118	681.760282120134	2
1	1120	684.774652094206	3
1	1122	685.07859690193	4
1	1124	685.889638426399	5
1	1128	689.432120912106	6
1	1130	690.978844358744	7
1	1132	691.886422257168	8
1	1134	692.385888300392	9
1	1136	692.80996784872	10
1	1138	702.052224591572	11
1	1140	702.365791263058	12
1	1142	704.301128616947	13
1	1146	706.231699008421	14
1	1148	708.146401052789	15
1	1151	709.611354343803	16
1	1153	710.793488134967	17
1	1157	712.212404262262	18
1	1159	716.131492659	19
1	1161	716.425576833607	20
1	1165	719.307153646928	21
1	1167	721.769184408553	22
1	1169	721.84558288612	23
1	1171	722.596345058513	24
1	1173	723.276216726661	25
1	1175	724.152378650041	26
1	1178	726.166898523674	27
1	1180	728.896077641108	28
1	1182	731.976553751365	29
1	1184	732.586052215558	30
1	1186	733.274936763747	31
1	1189	736.988745885058	32
1	1191	739.954186461612	33
1	1195	741.599580468912	34
1	1197	743.120676245357	35
1	1199	743.800269306508	36
1	1201	746.010679165206	37
1	1204	751.78491709129	38
1	1206	752.227869430887	39
1	1209	752.98685430483	40
1	1211	754.186300507803	40
1	1212	754.26123457706	39
1	1214	754.744003722844	39
1	1215	755.432592857668	39
1	1219	760.91535357719	39
1	1221	761.165346809086	40
1	1223	763.062885885533	41
1	1225	765.320459731648	42
1	1227	767.012682143938	43
1	1229	767.58607611304	43
1	1230	767.791609203323	42
1	1231	768.04738093942	41
1	1232	768.673523875002	40
1	1234	771.439787403421	40
1	1238	773.936787179135	41
1	1240	774.744435525948	42
1	1242	776.30244385453	42
1	1243	776.554373501082	41
1	1244	776.773316135317	40
1	1245	777.291867520879	39
1	1247	777.483962218365	39
1	1251	779.798951056491	40
1	1253	780.371299893558	41
1	1255	781.630321966138	42
1	1257	783.699789546927	43
1	1259	784.157943053336	44
1	1261	784.330272881573	45
1	1263	784.729140080233	45
1	1264	784.883922673721	44
1	1265	785.219325138863	43
1	1267	785.429364606965	43
1	1269	786.078795926076	44
1	1270	788.410887741927	44
1	1272	788.433906757509	44
1	1273	788.625439049719	44
1	1277	790.257243417189	43
1	1278	791.026420049331	42
1	1280	791.22651835792	42
1	1281	791.939693673618	42
1	1283	793.1594643987	42
1	1285	793.746866413587	43
1	1286	794.703231490945	43
1	1288	796.036869158347	43
1	1289	796.281055202924	43
1	1290	796.666081452608	42
1	1291	798.264873306041	41
1	1292	798.458707264939	40
1	1294	798.871429561255	40
1	1295	799.391589254163	40
1	1296	800.413208140415	39
1	1297	801.172291526609	38
1	1298	805.919520221617	37
1	1299	807.248368773008	36
1	1300	807.313097347955	35
1	1301	807.354267762231	34
1	1303	807.702454294264	34
1	1305	808.332362835058	35
1	1306	808.469861498099	35
1	1308	808.738800386501	35
1	1309	809.322854228358	35
1	1311	810.970786076861	35
1	1312	812.33874652375	35
1	1313	815.224069602873	34
1	1314	815.264189977105	33
1	1316	816.210524233144	33
1	1317	817.154376383602	33
1	1318	817.27410628103	32
1	1319	817.348140771666	31
1	1321	818.58763793071	31
1	1325	822.589512603618	32
1	1327	823.654341968181	33
1	1329	828.682450463019	34
1	1331	830.294134536519	35
1	1335	831.238587879074	36
1	1339	835.202572503906	37
1	1341	836.22970563165	38
1	1344	839.411487867078	39
1	1346	839.770222483437	40
1	1348	842.373146650129	41
1	1352	845.290694432056	42
1	1354	845.343420762058	43
1	1355	845.662231314345	43
1	1356	846.188683048064	42
1	1357	846.321443730926	41
1	1359	846.322708832965	41
1	1360	847.049499636151	41
1	1362	847.095082938403	41
1	1364	847.594153455774	42
1	1366	848.133447143242	43
1	1367	848.246981394576	43
1	1368	848.726661367954	42
1	1370	848.754062434154	42
1	1371	848.764716652307	42
1	1373	850.270640751638	42
1	1374	851.042154064491	42
1	1375	851.702234430702	41
1	1377	853.015007750088	41
1	1379	853.155630590999	42
1	1381	853.304277459907	43
1	1382	854.046871309483	43
1	1383	856.678264098604	42
1	1384	856.77996585753	41
1	1386	857.677554189091	41
1	1387	859.322498043701	41
1	1389	860.40992471303	41
1	1390	860.45964649173	41
1	1391	862.145152819175	40
1	1392	862.547124587921	39
1	1393	862.627283777441	38
1	1395	866.050564485653	38
1	1397	866.182331450881	39
1	1398	866.333718301847	39
1	1399	866.347534769314	38
1	1400	868.414363127898	37
1	1401	868.754513299129	36
1	1403	870.200415071872	36
1	1404	870.248412812582	36
1	1405	870.724696768365	35
1	1407	871.176374957602	35
1	1409	871.471363879569	36
1	1411	873.353185762975	37
1	1412	873.619630041257	37
1	1413	874.02079831441	36
1	1414	874.088754828776	35
1	1415	874.106664157229	34
1	1416	874.968881902583	33
1	1418	875.482902182536	33
1	1420	875.656077966917	34
1	1421	876.934591086229	34
1	1423	876.946341877705	34
1	1424	878.08660889485	34
1	1426	878.116760666162	34
1	1427	878.493400484757	34
1	1428	881.77563408714	33
1	1429	881.977275881173	32
1	1430	882.374868345361	31
1	1431	882.457080517164	30
1	1432	882.848595686008	29
1	1434	882.867150262783	29
1	1436	882.891664069935	30
1	1438	883.201668655291	31
1	1440	884.957204178822	32
1	1441	886.199353843	32
1	1442	886.784599916753	31
1	1443	887.023931879102	30
1	1444	887.964576800016	29
1	1451	892.071646794015	28
1	1452	893.300204090846	27
1	1453	894.47630664283	26
1	1455	894.57201328651	26
1	1456	895.065997212655	26
1	1457	895.649457287732	25
1	1458	896.888934559953	24
1	1460	899.950235791146	24
1	1461	899.990505694177	24
1	1463	900.230723620011	24
1	1464	900.452844837087	24
1	1466	900.532407230248	24
1	1467	900.663896630502	24
1	1469	900.821758683922	24
1	1470	901.478775262633	24
1	1471	902.480917675669	23
1	1473	903.654250797496	23
1	1474	903.827005436157	23
1	1475	904.969982759266	22
1	1482	912.818766390585	22
1	1484	913.545340744777	23
1	1486	915.863901935727	23
1	1487	916.773321127196	22
1	1489	916.898331373137	22
1	1490	919.353148957738	22
1	1491	920.289534610485	21
1	1492	921.067564799198	20
1	1493	921.470363131547	19
1	1495	922.151505716983	19
1	1499	923.35173530928	20
1	1501	923.834251918158	20
1	1502	924.899033563722	19
1	1503	925.060788243074	18
1	1504	925.609912914825	17
1	1505	926.933914071223	16
1	1506	928.865358636393	15
1	1507	929.768150136826	14
1	1509	930.000251900811	14
1	1511	930.912257212011	15
1	1513	932.317626458122	16
1	1514	932.500748797821	16
1	1515	932.804882194104	15
1	1516	932.874586566521	14
1	1518	933.301776372695	14
1	1520	933.526565541497	15
1	1521	933.922543462228	15
1	1523	934.010814689987	15
1	1525	935.126835177002	16
1	1527	935.728273187262	17
1	1528	935.817048632876	17
1	1529	936.896558786352	16
1	1530	937.177751007916	15
1	1532	937.750042598812	15
1	1533	938.537713518068	15
1	1535	939.709874146958	15
1	1537	940.446358538082	16
1	1538	940.458478911838	16
1	1539	942.69057934832	15
1	1540	943.474613369285	14
1	1541	944.608049381382	13
1	1547	949.491162478624	13
1	1549	950.035387826908	14
1	1551	954.836156428192	15
1	1553	955.700398997226	16
1	1556	957.772229191179	17
1	1558	959.140642985956	18
1	1560	960.657645760666	18
1	1561	961.762822726234	17
1	1563	962.319796802796	17
1	1565	962.475735629076	18
1	1567	962.705322933938	19
1	1571	965.557726340149	20
1	1576	978.724465450395	21
1	1578	980.202012785195	22
1	1581	980.507520472518	23
1	1582	982.198893705467	23
1	1584	982.285638836982	23
1	1588	986.145613616242	24
1	1591	991.284825493722	25
1	1595	992.098086140752	26
1	1597	994.076015969937	27
1	1599	998.829852841226	28
1	1601	999.479455136245	29
1	1603	1000.565790638095	30
1	1605	1001.973250920533	31
1	1607	1003.856908663226	31
1	1608	1004.321480554384	30
1	1610	1005.333425285457	30
1	1612	1005.401391092245	31
1	1614	1007.20412915564	32
1	1615	1008.28008892556	32
1	1617	1012.227929184074	32
1	1618	1012.75637107811	32
1	1620	1012.962266880079	32
1	1622	1013.122986303489	33
1	1624	1013.928737180524	34
1	1625	1014.11545363077	34
1	1627	1014.249007498572	34
1	1629	1014.504193256232	35
1	1631	1014.518363646556	36
1	1632	1015.956941504287	36
1	1634	1017.163387642957	36
1	1635	1017.693809688146	36
1	1636	1017.782796874882	35
1	1637	1019.708770102078	34
1	1639	1019.944487644358	34
1	1641	1020.064179357032	35
1	1643	1020.419640131002	36
1	1644	1020.894562720197	36
1	1645	1021.077397402978	35
1	1646	1021.403257315136	34
1	1647	1023.215038168231	33
1	1648	1024.551047436009	32
1	1649	1025.399878525465	31
1	1650	1026.063836230273	30
1	1652	1026.412447330293	30
1	1654	1027.296316402937	31
1	1655	1028.099359137822	31
1	1657	1028.849135838872	31
1	1659	1029.063253684767	32
1	1661	1029.063312692373	33
1	1663	1029.502543611758	34
1	1664	1030.567179845044	34
1	1666	1031.612959536214	34
1	1667	1032.077800696453	34
1	1668	1032.482866872259	33
1	1669	1032.854073110235	32
1	1670	1033.396326233216	31
1	1671	1033.529966866516	30
1	1672	1033.58807869665	29
1	1673	1033.602856912388	28
1	1675	1035.792772351021	28
1	1676	1036.859699377595	28
1	1678	1038.997225796808	28
1	1682	1044.003467333862	28
1	1683	1044.937696353547	27
1	1684	1045.184639270763	26
1	1685	1045.788995949749	25
1	1687	1046.399086718159	25
1	1688	1047.359031025525	25
1	1690	1047.524973407544	25
1	1692	1047.881784210703	26
1	1694	1048.891891032577	27
1	1696	1048.920014620061	28
1	1697	1049.08467498983	28
1	1699	1051.991420758899	28
1	1701	1052.180461990543	29
1	1702	1052.552122025612	29
1	1703	1052.561242248867	28
1	1704	1052.865210992228	27
1	1706	1052.913518411812	27
1	1707	1053.119018376899	27
1	1709	1053.279529945366	27
1	1711	1054.567298154954	28
1	1715	1056.683114247096	28
1	1716	1057.101444450992	27
1	1718	1057.136876748783	27
1	1719	1057.972500193349	27
1	1720	1058.469869697516	26
1	1721	1058.980521404775	25
1	1723	1059.670766390671	25
1	1724	1061.256234622103	25
1	1725	1062.064337521523	24
1	1726	1062.578924825154	23
1	1728	1062.889724108875	23
1	1730	1063.737386727038	24
1	1731	1063.969090311412	24
1	1732	1066.557619830077	23
1	1733	1066.559842412178	22
1	1734	1066.609893756358	21
1	1735	1066.830642597267	20
1	1736	1067.229000802635	19
1	1737	1068.032666391009	18
1	1738	1068.44435434839	17
1	1742	1069.277995259288	17
1	1744	1069.584926714593	17
1	1745	1069.696125692182	16
1	1746	1069.715181546115	15
1	1747	1070.259764227135	14
1	1748	1070.478564391945	13
1	1750	1070.489013087902	13
1	1751	1070.591026644232	13
1	1752	1071.655097963386	12
1	1753	1072.222703003331	11
1	1754	1073.020827877253	10
1	1755	1073.335152591668	9
1	1756	1074.554627387172	8
1	1758	1074.690887318588	8
1	1759	1075.891301384034	8
1	1760	1076.214871884282	7
1	1761	1076.646001782308	6
1	1763	1076.77165306651	6
1	1765	1076.885429474866	7
1	1767	1077.195625491607	8
1	1768	1077.233341830588	8
1	1769	1077.301351354081	7
1	1770	1077.670620011273	6
1	1771	1077.894916293356	5
1	1773	1078.525989473372	5
1	1775	1078.710568818985	6
1	1779	1081.884876211637	6
1	1780	1082.845410527358	5
1	1782	1083.614664311717	5
1	1783	1083.812143737982	5
1	1785	1084.358925271062	5
1	1786	1084.400925149288	5
1	1788	1084.798744700097	5
1	1790	1084.984014752315	6
1	1794	1087.051712677654	7
1	1796	1087.366919300909	8
1	1798	1089.387944811408	9
1	1800	1089.955971227849	9
1	1802	1090.827157649493	9
1	1803	1091.106268702681	9
1	1804	1092.802873497304	8
1	1805	1093.115065380644	7
1	1806	1094.928477159898	6
1	1807	1095.435222975146	5
1	1808	1095.907329937048	4
1	1812	1096.785122874195	4
1	1814	1098.319434203569	5
1	1816	1102.080692417669	6
1	1820	1105.46563335724	7
1	1823	1106.926884842931	7
1	1824	1108.71455974944	6
1	1825	1109.489038565491	5
1	1827	1110.397211447836	5
1	1828	1110.657596409474	5
1	1829	1111.095873283898	4
1	1830	1111.478719962406	3
1	1832	1111.539704729036	3
1	1834	1111.797858095682	4
1	1836	1112.89334404687	5
1	1837	1113.116238450191	5
1	1839	1113.64430399909	5
1	1840	1113.859804096837	5
1	1842	1114.033572147108	5
1	1843	1114.970865570148	5
1	1844	1115.107328924102	4
1	1845	1115.558124459744	3
1	1846	1116.640356712333	2
1	1848	1116.830361180658	2
1	1850	1116.979897225711	3
1	1851	1117.180773137722	3
1	1852	1117.653887003716	2
1	1853	1117.983937195636	1
1	1855	1119.192914936205	1
1	1856	1119.207887765138	1
1	1857	1120.137240341991	0
1	1864	1128.235215075549	0
1	1866	1132.119015136572	1
1	1868	1136.216259524322	1
1	1870	1136.371969304749	1
1	1871	1136.451344488135	1
1	1873	1136.777255137626	1
1	1874	1137.410341832918	1
1	1876	1138.389865443015	1
1	1877	1138.742161036017	1
1	1878	1140.268147042961	0
1	1880	1140.665513980487	0
1	1881	1142.531474907312	0
1	1883	1143.401990349277	0
1	1884	1143.676660389177	0
1	1886	1146.972852052106	0
1	1888	1147.27699453816	1
1	1889	1147.614153585738	1
1	1891	1148.229808578459	1
1	1893	1148.521996670844	2
1	1894	1148.674552801396	2
1	1895	1149.453832318336	1
1	1896	1149.647802338414	0
1	1901	1152.755473041453	0
1	1902	1153.533912614631	0
1	1904	1154.424894907248	0
1	1906	1154.763283422729	1
1	1907	1155.355770832888	1
1	1908	1155.729113960852	0
1	1910	1155.996092100405	0
1	1911	1156.525234908784	0
1	1913	1158.658610976443	0
1	1915	1159.733802432531	1
1	1917	1161.021960427198	2
1	1921	1163.640334839354	3
1	1923	1164.798873878091	4
1	1925	1167.33368630738	4
1	1926	1167.461519193512	3
1	1927	1167.940808753348	2
1	1928	1170.362070954199	1
1	1932	1170.90547426434	1
1	1936	1171.7033090148	2
1	1939	1172.572816177088	3
1	1941	1172.648535979753	4
1	1943	1173.87791133584	5
1	1945	1177.240388407292	5
1	1947	1179.030549927684	5
1	1949	1179.10236605005	6
1	1950	1179.672379325492	6
1	1951	1180.137389484584	5
1	1953	1180.253544596008	5
1	1955	1182.395807156673	6
1	1956	1184.361340725189	6
1	1957	1184.607165830376	5
1	1959	1185.320331169133	5
1	1961	1185.923338501669	6
1	1963	1186.033484461067	7
1	1964	1186.445694605882	7
1	1965	1187.966475701388	6
1	1966	1188.442383630161	5
1	1968	1188.481714197559	5
1	1969	1189.080407409599	5
1	1973	1191.12388917723	5
1	1975	1191.780317283591	6
1	1980	1195.480906769649	7
1	1985	1198.31251101101	8
1	1987	1199.128922014178	9
1	1989	1199.17907302888	10
1	1995	1202.502471989734	11
1	1997	1203.484051186718	12
1	1999	1203.578817644303	13
1	2001	1205.805769507408	14
1	2003	1207.073580744343	15
1	2005	1211.829676105355	16
1	2008	1215.286949225625	17
1	2010	1216.026350557512	18
1	2012	1217.364196790937	19
1	2014	1220.362997857079	20
1	2018	1223.547703108334	21
1	2024	1229.679612285232	22
1	2026	1230.602985609886	23
1	2028	1231.402423272366	24
1	2033	1233.219536105876	25
1	2036	1237.03193775663	26
1	2042	1238.839391142597	27
1	2045	1240.714117092853	28
1	2047	1242.414649884531	29
1	2049	1244.941826485926	30
1	2051	1245.445421406973	31
1	2053	1246.676119604651	32
1	2055	1252.15814666336	33
1	2057	1252.774994232608	34
1	2059	1252.830700149225	35
1	2061	1256.051659965203	36
1	2065	1257.235286324094	37
1	2067	1259.247062372562	38
1	2069	1262.362474165374	39
1	2071	1263.666926933976	40
1	2074	1265.90712819167	41
1	2078	1266.926702839113	42
1	2086	1277.295299149435	43
1	2092	1293.298294192596	44
1	2095	1299.130171597002	45
1	2098	1299.291052890402	46
1	2101	1301.766015903299	47
1	2103	1304.933839071598	48
1	2105	1305.397535252117	49
1	2107	1306.546803631948	50
1	2111	1314.649653165668	51
1	2113	1315.367942983061	52
1	2115	1315.622963084504	53
1	2119	1323.828285875014	54
1	2121	1324.603754155967	54
1	2125	1327.878200966453	54
1	2130	1329.246629918419	55
1	2132	1329.36542361059	56
1	2134	1336.024179956775	57
1	2136	1336.283480194005	58
1	2138	1336.876281670852	59
1	2140	1337.791103300615	60
1	2144	1339.175646379044	61
1	2151	1347.065197580486	62
1	2155	1351.471464139757	63
1	2157	1355.830721854381	64
1	2159	1355.88390039077	65
1	2161	1356.114038550197	66
1	2164	1356.591711561722	67
1	2170	1359.409729405249	68
1	2172	1359.682725384037	69
1	2175	1363.276009206341	69
1	2176	1363.603349305629	68
1	2177	1364.338717240939	67
1	2179	1364.417731528365	67
1	2180	1364.925099446976	67
1	2181	1365.558354144638	66
1	2182	1367.270256234635	65
1	2184	1367.594120721514	65
1	2185	1367.776463789482	65
1	2187	1367.964744733242	65
1	2188	1370.526305936486	65
1	2192	1373.287423869794	65
1	2194	1373.63892701687	66
1	2196	1373.639747353379	67
1	2198	1377.528005884619	68
1	2200	1378.482095265415	69
1	2202	1378.913274732457	69
1	2203	1379.15564367576	68
1	2204	1379.895951275336	67
1	2206	1380.250537143024	67
1	2207	1380.292088283275	67
1	2208	1380.3637101784	66
1	2209	1381.389947646042	65
1	2210	1381.670981573377	64
1	2211	1382.777592835655	63
1	2213	1383.779875955352	63
1	2214	1384.483946117023	63
1	2215	1384.784916050068	62
1	2216	1384.83767462251	61
1	2218	1385.273756771556	61
1	2219	1385.496724552376	61
1	2220	1387.413336324081	60
1	2221	1387.416999655833	59
1	2222	1388.760831443643	58
1	2224	1390.589519655264	58
1	2225	1392.912466009889	58
1	2226	1392.973727316011	57
1	2228	1393.310054345095	57
1	2230	1393.75340238149	58
1	2231	1394.499832634491	58
1	2233	1395.48350555306	58
1	2235	1396.08966702355	59
1	2236	1396.384220975785	59
1	2237	1396.821053311225	58
1	2238	1397.344134451147	57
1	2239	1397.429509503446	56
1	2240	1397.616040135871	55
1	2241	1398.838862377037	54
1	2243	1398.866167470862	54
1	2244	1399.383009051685	54
1	2245	1399.627400618658	53
1	2246	1399.7074244376	52
1	2247	1400.246988845112	51
1	2248	1400.863923442913	50
1	2252	1403.065794379474	49
1	2253	1403.885262593569	48
1	2254	1404.242974705792	47
1	2264	1409.547550294857	47
1	2266	1409.774946764388	48
1	2268	1410.811263790898	48
1	2270	1411.079132589204	48
1	2274	1413.312470089904	49
1	2276	1414.611333818884	49
1	2277	1414.621208660056	48
1	2279	1414.925794233495	48
1	2280	1415.513367586142	48
1	2282	1415.790289828324	48
1	2283	1416.066377134269	48
1	2285	1416.071353888647	48
1	2287	1416.593036759635	49
1	2288	1417.340533195487	49
1	2289	1419.005298363541	48
1	2290	1421.278284417194	47
1	2292	1421.352164956594	47
1	2294	1422.315039733108	48
1	2298	1424.48878690348	49
1	2302	1428.71249616621	50
1	2304	1428.871920201449	51
1	2308	1436.181777453715	52
1	2310	1436.671006090139	53
1	2311	1437.31849290785	53
1	2312	1437.972709390823	52
1	2314	1438.496963787201	52
1	2315	1439.18351535587	52
1	2316	1443.047229221348	51
1	2318	1444.160485718435	51
1	2319	1444.183355556372	51
1	2321	1444.525881969531	51
1	2322	1444.798252615001	51
1	2324	1445.422111697444	51
1	2330	1450.464708485404	52
1	2337	1453.307476766121	53
1	2342	1457.42432213525	54
1	2344	1459.246103376866	55
1	2346	1462.466158056784	56
1	2348	1463.127518515337	57
1	2350	1464.558675925402	58
1	2355	1467.186777955651	59
1	2359	1469.282414664324	60
1	2361	1470.247851711114	61
1	2363	1470.984826770319	62
1	2365	1472.756882793617	63
1	2367	1473.752996986723	64
1	2369	1474.522407946314	65
1	2371	1474.556788451171	66
1	2373	1475.19251036869	67
1	2375	1475.922743559853	68
1	2379	1478.602534093849	69
1	2383	1480.220146636877	70
1	2387	1485.451661234752	71
1	2389	1486.608320679352	72
1	2391	1487.624666391689	73
1	2393	1488.325451279307	74
1	2395	1489.405752939402	75
1	2397	1489.669380724939	76
1	2399	1489.900401334664	77
1	2403	1491.724274499728	78
1	2405	1492.581462912426	79
1	2407	1493.506748329673	80
1	2409	1493.825326563623	81
1	2411	1494.188562524655	82
1	2415	1496.918486423558	83
1	2419	1502.664955656769	84
1	2423	1509.628620282893	85
1	2425	1511.210344357782	86
1	2428	1514.336894814855	87
1	2431	1515.549951074535	88
1	2433	1516.364146476826	89
1	2438	1524.359060372315	90
1	2440	1525.163746087868	91
1	2444	1526.026915122441	92
1	2448	1526.910220001535	93
1	2451	1530.778276770242	94
1	2453	1530.875144864205	95
1	2455	1531.842238819913	96
1	2457	1538.990951815872	97
1	2461	1542.201284400566	98
1	2464	1551.329058033378	99
1	2466	1551.544318358845	100
1	2468	1552.997324369372	101
1	2471	1553.292476826414	102
1	2472	1553.418452215009	102
1	2473	1554.634074803476	101
1	2474	1554.957317983477	100
1	2475	1556.712258379449	99
1	2477	1556.987215965671	99
1	2478	1557.749005641887	99
1	2479	1559.547348790673	98
1	2481	1559.984122134178	98
1	2482	1560.448315719373	98
1	2483	1560.958771294168	97
1	2484	1561.158057310199	96
1	2485	1561.545460988605	95
1	2486	1562.387999145318	94
1	2488	1563.386901795932	94
1	2492	1564.781471827922	95
1	2494	1565.71648214542	96
1	2496	1567.990831150507	96
1	2497	1569.192522248509	95
1	2501	1569.324936193304	95
1	2503	1569.868772929221	96
1	2505	1573.638970361902	97
1	2510	1577.904608364661	98
1	2515	1579.78091465983	98
1	2516	1580.53316540321	97
1	2518	1580.68972678483	97
1	2519	1581.704998818402	97
1	2520	1581.863340196428	96
1	2522	1583.099118409136	96
1	2523	1584.137036118621	96
1	2524	1584.326273668148	95
1	2525	1586.879292187306	94
1	2526	1587.167415998236	93
1	2528	1588.011054329897	93
1	2529	1588.422566887024	93
1	2530	1591.275122866823	92
1	2531	1591.361650800484	91
1	2532	1591.397678678297	90
1	2533	1593.564102928133	89
1	2535	1593.815916655319	89
1	2536	1594.109208146517	89
1	2540	1597.20532596086	88
1	2541	1598.974209596913	87
1	2543	1600.338783002973	87
1	2544	1602.504351383624	87
1	2545	1602.567505544942	86
1	2547	1603.76189156217	86
1	2549	1603.802474611229	87
1	2550	1604.257361210616	87
1	2551	1606.860841732054	86
1	2552	1608.308435352124	85
1	2553	1608.593214550863	84
1	2555	1608.880286804249	84
1	2556	1609.034057392864	84
1	2557	1609.69383204118	83
1	2559	1610.136489561219	83
1	2561	1611.075056313611	84
1	2563	1611.35241088298	85
1	2564	1614.197954132003	85
1	2565	1614.349817175852	84
1	2566	1614.359791212026	83
1	2567	1614.901466348104	82
1	2569	1615.185195003382	82
1	2570	1616.711342146224	82
1	2572	1617.113688607597	82
1	2574	1617.626632103358	83
1	2576	1617.876130404556	84
1	2578	1618.235125190643	85
1	2579	1618.257932522164	85
1	2581	1618.317368157397	85
1	2583	1618.484330629173	86
1	2585	1620.388863843583	87
1	2586	1621.814892083671	87
1	2591	1622.293296063692	87
1	2592	1622.61684624466	87
1	2594	1622.947771717655	87
1	2595	1624.99822207443	87
1	2599	1627.062609251788	87
1	2601	1627.928941642085	88
1	2603	1631.351576616911	88
1	2604	1631.535295858761	87
1	2605	1633.02723797349	86
1	2606	1633.369702760313	85
1	2607	1633.41569887866	84
1	2608	1633.444314352731	83
1	2610	1633.698352456365	83
1	2611	1633.977741039628	83
1	2612	1634.065972256999	82
1	2614	1634.434079701077	82
1	2615	1634.846859091825	82
1	2617	1635.234684523168	82
1	2618	1635.845053931103	82
1	2620	1636.679285174641	82
1	2621	1636.699482510752	82
1	2622	1637.619975546128	81
1	2623	1638.2382499878	80
1	2624	1638.31818323864	79
1	2625	1638.785981975422	78
1	2626	1639.462915539823	77
1	2628	1640.73920643277	77
1	2629	1641.094868657455	77
1	2630	1641.095371304001	76
1	2631	1641.495574589001	75
1	2632	1641.787101208928	74
1	2634	1642.37125243926	74
1	2636	1643.010644829958	75
1	2637	1643.895502404784	75
1	2638	1644.060399026003	74
1	2640	1645.352696889428	74
1	2642	1646.389474796859	75
1	2643	1647.500154531142	75
1	2644	1648.35022996409	74
1	2645	1649.009559344112	73
1	2647	1649.889062461042	73
1	2649	1650.506794520507	74
1	2650	1650.579524499683	74
1	2651	1650.606159890282	73
1	2652	1651.425942025903	72
1	2654	1652.794173926165	72
1	2655	1653.605646370442	72
1	2656	1654.386728617201	71
1	2657	1655.918126076563	70
1	2658	1656.032740095891	69
1	2659	1656.086173452396	68
1	2660	1656.301660698901	67
1	2661	1656.867267915218	66
1	2663	1659.46228272246	66
1	2665	1659.928294030046	67
1	2666	1661.208820915784	67
1	2668	1662.054842308708	67
1	2670	1662.344648284604	68
1	2671	1662.808483769412	68
1	2675	1664.231960096768	68
1	2677	1664.493226895061	69
1	2683	1669.246301523218	70
1	2684	1669.256265030371	70
1	2686	1670.302980997983	70
1	2687	1671.423724733803	70
1	2689	1672.270591531014	70
1	2690	1673.217135279849	70
1	2691	1673.461096936763	69
1	2693	1674.17155905626	69
1	2695	1674.422492327083	70
1	2697	1674.446476940154	71
1	2698	1674.593888043729	71
1	2699	1674.921537405242	70
1	2700	1675.321858491073	69
1	2702	1676.106368159625	69
1	2703	1676.588429418405	69
1	2704	1676.869980054536	68
1	2705	1677.162932483283	67
1	2706	1677.403066980976	66
1	2711	1680.752461367016	66
1	2712	1681.131021102712	66
1	2713	1683.653909376192	65
1	2714	1684.12287548649	64
1	2715	1686.535426568303	63
1	2717	1687.227879202461	63
1	2721	1687.852212215044	64
1	2723	1687.898726703216	65
1	2725	1688.399069873731	66
1	2727	1689.51777392075	67
1	2729	1689.850483236909	68
1	2731	1690.185670984851	69
1	2735	1693.283224079292	70
1	2739	1694.111877209996	71
1	2741	1694.467332466133	72
1	2745	1695.500830934256	73
1	2747	1696.242452566604	74
1	2749	1697.911716261853	75
1	2751	1698.866498034101	76
1	2753	1700.816985598254	77
1	2756	1701.526835507044	78
1	2758	1702.284165304981	79
1	2760	1703.143581659915	80
1	2767	1707.601912645726	81
1	2769	1708.282303594378	82
1	2771	1710.904952659947	83
1	2773	1711.08794019818	84
1	2775	1713.126793808997	85
1	2777	1714.581070097067	86
1	2782	1714.828750003836	87
1	2784	1717.123981746664	88
1	2786	1717.150353660668	89
1	2790	1721.748243992719	90
1	2796	1728.468551673437	91
1	2798	1729.881446770171	92
1	2802	1733.176562862489	93
1	2804	1734.21045980334	94
1	2806	1734.885627565678	95
1	2810	1738.257901346684	96
1	2814	1740.273889656012	97
1	2816	1740.344096126043	98
1	2818	1743.363680631537	99
1	2820	1745.14100462023	100
1	2823	1749.608466796089	101
1	2825	1751.133812194915	102
1	2827	1752.768109564158	103
1	2829	1753.493810336709	104
1	2831	1754.214547111662	105
1	2836	1755.831042424264	106
1	2840	1756.175359966799	107
1	2845	1756.957709942677	108
1	2848	1760.843987005067	109
1	2851	1763.911187250695	110
1	2853	1768.709974123465	111
1	2855	1771.880939879319	112
1	2859	1775.249962274237	113
1	2861	1778.812346768283	114
1	2863	1779.078824440195	115
1	2865	1779.331661274798	116
1	2867	1781.644782883315	117
1	2872	1786.25726588	118
1	2875	1787.037227232015	119
1	2879	1791.057317617298	120
1	2882	1794.044063570508	121
1	2884	1797.214017090358	122
1	2890	1801.619200455989	123
1	2892	1802.084796195275	124
1	2894	1806.290498347601	125
1	2896	1810.403488417209	126
1	2899	1811.299464593786	127
1	2904	1816.279356192984	128
1	2906	1816.332206098182	129
1	2911	1819.764122296621	130
1	2913	1820.259796371286	131
1	2915	1821.858501641203	132
1	2923	1826.253020649548	133
1	2925	1827.577789405023	134
1	2927	1828.607891891394	135
1	2932	1832.985248031632	136
1	2935	1835.541530368884	137
1	2937	1839.19828921845	138
1	2940	1840.157521212722	139
1	2942	1840.311400668125	140
1	2944	1840.551571260727	141
1	2946	1841.342517816044	142
1	2948	1843.072161060579	143
1	2950	1843.458787505761	144
1	2952	1846.208084434591	145
1	2957	1850.412884208913	146
1	2963	1853.688546309745	147
1	2965	1853.91011796348	148
1	2968	1854.608520556279	149
1	2971	1855.705651464354	150
1	2973	1856.953038262996	150
1	2974	1856.960950268055	149
1	2975	1857.011225524004	148
1	2976	1857.325628994624	147
1	2977	1857.420571463689	146
1	2978	1858.146738631484	145
1	2980	1858.53386432399	145
1	2981	1858.63941213357	145
1	2982	1862.453746604399	144
1	2983	1862.580067970009	143
1	2984	1863.128355124088	142
1	2985	1863.769973209399	141
1	2987	1863.90263578603	141
1	2988	1864.674964645973	141
1	2989	1865.013203029698	140
1	2995	1869.530327262188	140
1	2999	1870.265929332635	141
1	3001	1874.229770933232	142
1	3003	1874.476626185866	143
1	3005	1875.42460236111	144
1	3007	1875.797990715349	145
1	3009	1877.461825031194	146
1	3012	1878.708870877631	147
1	3016	1881.563187093502	148
1	3018	1881.917428008654	149
1	3020	1886.042914497999	150
1	3024	1892.012400082619	151
1	3026	1892.830922465447	152
1	3028	1893.958825266542	153
1	3030	1897.172818089116	154
1	3032	1899.2815671798	154
1	3033	1900.329483393621	153
1	3034	1900.890003322428	152
1	3036	1901.398427816398	152
1	3037	1901.985533425064	152
1	3039	1902.173466634629	152
1	3040	1902.448970202479	152
1	3041	1902.699020214551	151
1	3043	1903.864675245439	151
1	3044	1904.645568363327	151
1	3045	1905.777481976911	150
1	3049	1909.070256078998	150
1	3051	1909.380426367194	151
1	3053	1911.128731300272	152
1	3057	1912.173302577934	153
1	3059	1912.443748937432	154
1	3061	1916.083199014706	155
1	3063	1918.622669957402	156
1	3065	1918.934169773462	157
1	3067	1919.110060205863	158
1	3071	1921.120856271106	159
1	3073	1921.923422128984	160
1	3075	1922.165639119349	161
1	3078	1929.550400712871	162
1	3080	1930.243546534838	163
1	3083	1930.703209925876	164
1	3085	1933.21264360061	165
1	3087	1936.983178438582	166
1	3089	1937.916178753521	167
1	3091	1937.962479931629	168
1	3093	1939.835065058364	169
1	3095	1944.584253952474	169
1	3096	1945.617072583961	168
1	3097	1945.874660762706	167
1	3098	1946.0023225214	166
1	3099	1946.374859627293	165
1	3100	1946.457411953811	164
1	3101	1946.635481393911	163
1	3103	1949.171507355065	163
1	3104	1952.288877232649	163
1	3106	1952.979673831917	163
1	3107	1953.300441796341	163
1	3108	1953.481286889669	162
1	3110	1954.67694708097	162
1	3111	1954.827504463478	162
1	3112	1954.903575605624	161
1	3113	1955.061362054693	160
1	3114	1955.353959008307	159
1	3115	1955.426507218537	158
1	3116	1956.101223626936	157
1	3118	1958.076108484468	157
1	3119	1958.622490183497	157
1	3125	1961.636735532476	157
1	3129	1962.831142390052	158
1	3133	1963.805622091527	159
1	3137	1964.634401020989	160
1	3139	1965.302256019965	161
1	3141	1965.479714895987	162
1	3144	1965.749442369196	163
1	3146	1966.617053676619	164
1	3148	1969.466040482618	165
1	3150	1970.605754742535	166
1	3152	1971.836810366277	167
1	3154	1972.045543799415	168
1	3156	1973.324973878199	169
1	3160	1974.391242165242	170
1	3164	1980.472150819516	171
1	3166	1982.387115125419	172
1	3168	1983.54175178616	173
1	3171	1986.195703167372	174
1	3173	1986.599271157485	175
1	3175	1988.317669374067	176
1	3177	1989.558250449568	177
1	3179	1990.487564165839	178
1	3182	1993.512474359834	179
1	3184	1994.033345971729	180
1	3186	1994.174313058636	181
1	3188	1994.406637713513	182
1	3192	1999.838275039399	183
2	0	0	0
2	25	19.109845872909	1
2	70	46.340145910273	2
2	91	66.55311463211	3
2	198	132.146706298555	4
2	283	196.970113249981	5
2	306	212.855849723816	6
2	311	215.881927773426	7
2	328	224.376585257128	8
2	337	230.806121910067	9
2	388	256.09426466245	10
2	506	320.952808833378	11
2	546	371.192195682875	12
2	571	389.809550757369	13
2	680	459.575432191225	14
2	738	482.839820056976	15
2	765	496.849752675596	16
2	788	509.196294654	17
2	803	514.231732722704	18
2	845	531.320481633115	19
2	889	559.733429212903	20
2	902	565.775674391283	21
2	961	591.825595943079	22
2	976	604.799366927915	23
2	998	616.323956019072	24
2	1025	631.013625889006	25
2	1051	646.466340965816	26
2	1217	755.619982568251	27
2	1236	771.443178669422	28
2	1249	778.313709132108	29
2	1275	788.951272116154	30
2	1323	821.186845770566	31
2	1446	888.373260811815	32
2	1477	904.989118867412	33
2	1480	912.149565691546	34
2	1497	922.854321632488	35
2	1543	945.562732287547	36
2	1569	963.494395496414	37
2	1586	982.89872028675	38
2	1593	991.477400947096	39
2	1680	1039.786273980833	40
2	1713	1055.21749599585	41
2	1740	1068.459804727173	42
2	1777	1078.724540710621	43
2	1792	1085.221158631192	44
2	1810	1095.998127146391	45
2	1919	1161.08684724165	46
2	1930	1170.715635800721	47
2	1971	1189.319054617185	48
2	2123	1324.870857145055	49
2	2190	1370.711234474805	50
2	2250	1401.55674928345	51
2	2256	1404.554033392311	52
2	2272	1412.656611501634	53
2	2296	1424.097735089433	54
2	2326	1446.87726803663	55
2	2490	1564.240375074459	56
2	2499	1569.210877843026	57
2	2513	1579.028306176672	58
2	2538	1595.939735000929	59
2	2588	1621.866092114508	60
2	2597	1625.492209753825	61
2	2673	1663.004219912209	62
2	2680	1667.659202932858	63
2	2708	1677.931359202785	64
2	2719	1687.716986434129	65
2	2991	1866.919381756186	66
2	3047	1905.986246279748	67
2	3121	1959.749144942803	68
3	0	0	0
3	3	2.122651911667	1
3	8	2.257855858168	2
3	9	2.678610704339	3
3	15	11.740864936237	4
3	18	12.866568986877	5
3	21	14.59673127198	6
3	27	20.221551232491	7
3	37	27.293163350089	8
3	44	28.857870324247	9
3	45	29.485884695872	10
3	46	29.601657135954	11
3	47	29.844632675184	12
3	48	30.287414765571	13
3	53	33.853846885891	14
3	54	34.597028112618	15
3	59	37.97661556586	16
3	60	38.10921731188	17
3	63	39.907863584736	18
3	66	42.537754732883	19
3	76	56.179508321396	20
3	77	56.481329536048	21
3	78	56.756038191469	22
3	83	61.067983546321	23
3	84	62.009855837746	24
3	87	64.658642598077	25
3	113	81.955603399679	26
3	118	83.268748542777	27
3	119	83.560122480188	28
3	120	84.488067199565	29
3	125	86.532910706771	30
3	126	86.730529586913	31
3	127	88.110495392687	32
3	130	91.132860490417	33
3	133	92.191875728821	34
3	134	92.332717898298	35
3	135	93.300121273783	36
3	138	95.371909908089	37
3	139	95.983615798974	38
3	140	96.918113540429	39
3	147	97.799200909054	40
3	148	100.736788388334	41
3	149	101.090213301099	42
3	150	101.998203627123	43
3	153	102.43914754414	44
3	156	104.83858699262	45
3	159	105.489085922265	46
3	162	107.205031511495	47
3	171	111.403361897824	48
3	177	115.902040481072	49
3	180	119.199032335739	50
3	183	119.755731215042	51
3	186	124.485879242711	52
3	191	127.713022103944	53
3	192	127.824074010975	54
3	281	196.748527241886	55
3	289	204.413553774418	56
3	290	204.567919627149	57
3	293	208.372367062879	58
3	294	208.893329230319	59
3	295	209.094267392428	60
3	298	210.436539519128	61
3	299	210.485634689731	62
3	300	211.138946058652	63
3	313	219.576001200645	64
3	318	220.465527829737	65
3	321	220.987862975278	66
3	322	221.004541826674	67
3	323	222.581147805439	68
3	324	223.103756852109	69
3	325	223.864775522833	70
3	326	224.30258925195	71
3	349	236.639649704335	72
3	350	237.024257404642	73
3	351	238.100553109329	74
3	352	238.614688140451	75
3	353	239.077092259777	76
3	354	239.757316682238	77
3	355	240.302937583828	78
3	356	242.345496957956	79
3	361	244.113381971803	80
3	362	245.965550710562	81
3	367	246.576394547093	82
3	368	246.979577523012	83
3	371	247.119014711322	84
3	372	247.924209045673	85
3	373	248.702353194783	86
3	374	248.712659058939	87
3	377	251.371624789888	88
3	378	251.978909815625	89
3	381	252.372099517922	90
3	384	252.882054050302	91
3	385	253.090515930937	92
3	386	255.353856033517	93
3	390	262.647670849406	94
3	391	262.676722943388	95
3	392	262.749124080111	96
3	395	264.244216604121	97
3	396	264.321884899708	98
3	397	264.368187131868	99
3	398	265.21904323945	100
3	401	266.745041510939	101
3	404	267.351582364457	102
3	411	268.735096108219	103
3	412	268.90984280055	104
3	413	270.291411516523	105
3	414	271.383979315505	106
3	417	271.712316913408	107
3	418	271.754320299188	108
3	419	272.027857183188	109
3	422	273.064098599362	110
3	423	273.16118722115	111
3	428	275.780062551778	112
3	429	275.885893013888	113
3	430	276.195975672076	114
3	431	277.18281783273	115
3	432	277.832257313338	116
3	433	278.125012494631	117
3	434	278.873465386636	118
3	435	279.525412038605	119
3	438	282.983268790375	120
3	443	285.521664964909	121
3	446	287.029798884405	122
3	451	288.19043595035	123
3	452	288.236704300035	124
3	453	289.371488279039	125
3	456	291.574431160445	126
3	459	294.71517068574	127
3	462	298.490504871095	128
3	465	299.137235420076	129
3	470	300.98963813041	130
3	471	301.009365093324	131
3	474	305.769502186716	132
3	492	313.869358736756	133
3	497	315.910828961534	134
3	498	316.853167206531	135
3	503	320.476030700642	136
3	504	320.743112081497	137
3	510	324.704250766719	138
3	511	324.731092263365	139
3	512	324.875925052249	140
3	513	325.283662395395	141
3	514	325.892647801537	142
3	515	326.266497595471	143
3	516	331.044331921037	144
3	522	349.715156952707	145
3	529	352.44370765834	146
3	530	353.01752195956	147
3	531	356.23816520191	148
3	537	366.041085260706	149
3	544	370.954314484883	150
3	558	382.933805421364	151
3	559	383.857952191069	152
3	560	383.912466875201	153
3	561	384.847071374582	154
3	564	385.823829051254	155
3	565	385.849747436132	156
3	566	385.943180438274	157
3	569	388.420809269073	158
3	660	451.074647875599	159
3	661	451.683119171704	160
3	664	452.740414553066	161
3	665	452.775413008829	162
3	666	453.901156695282	163
3	667	454.313347373075	164
3	668	454.934606758594	165
3	669	455.06618480358	166
3	670	455.581131901711	167
3	671	456.186606577744	168
3	672	456.448938472617	169
3	675	458.276184693779	170
3	678	459.54821581085	171
3	726	478.317873972878	172
3	727	478.938769107822	173
3	728	479.448019799636	174
3	729	480.268899850773	175
3	732	481.246245848819	176
3	757	492.337480376748	177
3	767	497.931670424389	178
3	768	498.309178632166	179
3	769	498.571005075675	180
3	770	498.793513155536	181
3	771	499.661961392788	182
3	774	500.741208352049	183
3	775	502.165848814807	184
3	776	502.863017193947	185
3	777	503.808345709505	186
3	780	504.114804433569	187
3	781	504.572277411488	188
3	782	504.777713089826	189
3	785	506.406871505112	190
3	786	507.072927211295	191
3	794	511.363053318214	192
3	795	512.152756750046	193
3	800	513.846984064458	194
3	801	514.053694997053	195
3	815	518.889195446832	196
3	820	520.79826174921	197
3	821	521.376794100418	198
3	822	521.382144494339	199
3	823	521.707525756558	200
3	824	521.838179646744	201
3	825	522.454411774658	202
3	828	523.486567863434	203
3	829	524.544881688723	204
3	830	524.858355408804	205
3	835	527.932486947791	206
3	838	530.315058200966	207
3	839	530.367229114208	208
3	847	532.686139765444	209
3	848	532.799258165433	210
3	849	533.523262880523	211
3	852	534.042737754721	212
3	853	536.222169032222	213
3	858	539.388008201154	214
3	859	540.190566507667	215
3	860	542.29391999148	216
3	861	542.6218890501	217
3	864	543.065013869439	218
3	865	544.528298159094	219
3	868	545.281652388472	220
3	869	545.552502877493	221
3	874	547.45882086748	222
3	875	548.236044476743	223
3	876	548.408503208455	224
3	879	552.35584778175	225
3	880	555.18046964486	226
3	883	555.604457894782	227
3	897	564.145758324066	228
3	898	564.22019037638	229
3	899	564.2367103657	230
3	900	565.090433234766	231
[...]
8	2312	1437.972709390823	110.09450842437
8	2315	1439.18351535587	109.93688543745
8	2316	1443.047229221348	113.68180561076
8	2319	1444.183355556372	108.1591755996
8	2322	1444.798252615001	108.514772421
8	2472	1553.418452215009	215.62734891439
8	2473	1554.634074803476	215.45842842443
8	2474	1554.957317983477	207.89212040299
8	2475	1556.712258379449	205.24079423969
8	2478	1557.749005641887	201.91828378751
8	2479	1559.547348790673	203.6634483999
8	2482	1560.448315719373	204.33427716918
8	2483	1560.958771294168	204.36705973245
8	2484	1561.158057310199	201.74832790495
8	2485	1561.545460988605	201.86273560457
8	2486	1562.387999145318	197.97026761695
8	2496	1567.990831150507	200.02608641726
8	2497	1569.192522248509	198.4812877737
8	2515	1579.78091465983	206.14116730645
8	2516	1580.53316540321	203.00515951859
8	2519	1581.704998818402	203.22290355299
8	2520	1581.863340196428	201.6128030534
8	2523	1584.137036118621	200.35716016327
8	2524	1584.326273668148	199.05251689659
8	2525	1586.879292187306	196.28977253204
8	2526	1587.167415998236	193.85736165314
8	2529	1588.422566887024	194.66916450553
8	2530	1591.275122866823	195.79161731376
8	2531	1591.361650800484	195.27198377693
8	2532	1591.397678678297	192.53151120743
8	2533	1593.564102928133	192.00735364468
8	2536	1594.109208146517	189.55517475421
8	2540	1597.20532596086	187.43037919647
8	2541	1598.974209596913	187.89507700771
8	2544	1602.504351383624	189.84773988199
8	2545	1602.567505544942	189.25503545504
8	2550	1604.257361210616	189.33156697712
8	2551	1606.860841732054	191.07055190373
8	2552	1608.308435352124	192.23708146348
8	2553	1608.593214550863	192.00017779123
8	2556	1609.034057392864	187.68189243627
8	2557	1609.69383204118	187.37879230807
8	2564	1614.197954132003	190.10021904257
8	2565	1614.349817175852	189.86103027237
8	2566	1614.359791212026	185.64729504582
8	2567	1614.901466348104	186.02954614666
8	2570	1616.711342146224	180.52956469251
8	2579	1618.257932522164	181.58692643202
8	2586	1621.814892083671	183.31792829647
8	2592	1622.61684624466	178.09096427513
8	2595	1624.99822207443	179.57611037699
8	2603	1631.351576616911	180.88686813151
8	2604	1631.535295858761	178.22781909264
8	2605	1633.02723797349	175.60291583824
8	2606	1633.369702760313	174.12359938345
8	2607	1633.41569887866	170.94954082188
8	2608	1633.444314352731	170.31679583739
8	2611	1633.977741039628	169.41906511423
8	2612	1634.065972256999	166.87919430135
8	2615	1634.846859091825	165.5644444275
8	2618	1635.845053931103	165.59720221999
8	2621	1636.699482510752	165.71465574043
8	2622	1637.619975546128	164.86309275251
8	2623	1638.2382499878	164.48525300108
8	2624	1638.31818323864	163.79577529233
8	2625	1638.785981975422	164.22919352425
8	2626	1639.462915539823	164.27040517113
8	2629	1641.094868657455	165.1721250976
8	2630	1641.095371304001	162.49283721015
8	2631	1641.495574589001	161.27542795212
8	2632	1641.787101208928	156.33543997418
8	2637	1643.895502404784	157.28718172543
8	2638	1644.060399026003	156.43573263431
8	2643	1647.500154531142	159.17470325183
8	2644	1648.35022996409	158.94447702469
8	2645	1649.009559344112	159.34017861917
8	2650	1650.579524499683	160.67912316502
8	2651	1650.606159890282	158.88188539055
8	2652	1651.425942025903	158.84447911348
8	2655	1653.605646370442	160.09889804077
8	2656	1654.386728617201	160.56140205358
8	2657	1655.918126076563	161.72956355191
8	2658	1656.032740095891	159.11425367233
8	2659	1656.086173452396	153.42121779563
8	2660	1656.301660698901	146.67304041601
8	2661	1656.867267915218	145.65692355744
8	2666	1661.208820915784	146.87192610093
8	2671	1662.808483769412	147.25853269488
8	2684	1669.256265030371	144.0925189425
8	2687	1671.423724733803	145.39680961136
8	2690	1673.217135279849	146.30691527831
8	2691	1673.461096936763	142.68282016652
8	2698	1674.593888043729	143.71874317952
8	2699	1674.921537405242	143.07929858533
8	2700	1675.321858491073	136.3309066752
8	2703	1676.588429418405	134.38714501784
8	2704	1676.869980054536	125.54092202116
8	2705	1677.162932483283	125.61861412444
8	2706	1677.403066980976	124.4057426116
8	2712	1681.131021102712	124.14380513704
8	2713	1683.653909376192	123.66978724201
8	2714	1684.12287548649	120.73597369056
8	2715	1686.535426568303	122.29505149384
8	2973	1856.953038262996	291.23655611758
8	2974	1856.960950268055	287.75007242503
8	2975	1857.011225524004	287.6862893307
8	2976	1857.325628994624	287.4568560654
8	2977	1857.420571463689	283.78160110179
8	2978	1858.146738631484	280.24213026682
8	2981	1858.63941213357	279.6111059569
8	2982	1862.453746604399	281.76401981957
8	2983	1862.580067970009	279.48094956087
8	2984	1863.128355124088	275.11730079419
8	2985	1863.769973209399	269.95405655408
8	2988	1864.674964645973	268.73522964504
8	2989	1865.013203029698	264.67442002672
8	3032	1899.2815671798	295.47909256857
8	3033	1900.329483393621	291.44919658937
8	3034	1900.890003322428	290.75351376121
8	3037	1901.985533425064	290.91047711145
8	3040	1902.448970202479	291.0965593195
8	3041	1902.699020214551	287.51382521117
8	3044	1904.645568363327	287.53187975573
8	3045	1905.777481976911	288.15084987355
8	3095	1944.584253952474	326.34912876183
8	3096	1945.617072583961	327.29970442656
8	3097	1945.874660762706	327.39033013353
8	3098	1946.0023225214	325.61345867782
8	3099	1946.374859627293	324.50876751278
8	3100	1946.457411953811	324.16411589012
8	3101	1946.635481393911	323.68770967626
8	3104	1952.288877232649	326.79666747882
8	3107	1953.300441796341	326.23783254455
8	3108	1953.481286889669	325.55234524758
8	3111	1954.827504463478	321.12915200711
8	3112	1954.903575605624	320.46949590455
8	3113	1955.061362054693	319.82667753152
8	3114	1955.353959008307	318.67467383367
8	3115	1955.426507218537	314.68730078577
8	3116	1956.101223626936	313.72997118768
8	3119	1958.622490183497	315.61184535354
9	11	4.553825799174	0
9	25	19.109845872909	0
9	29	22.691923046159	0
9	70	46.340145910273	0
9	91	66.55311463211	0
9	94	68.328555746215	0.968635370866
9	103	72.809612131161	1.414425784887
9	164	108.600360073849	0
9	167	108.788766794472	0.091268546104
9	173	112.615351154694	0
9	198	132.146706298555	0
9	223	156.204233136825	18.104615411368
9	226	159.335637241217	18.900519757891
9	243	170.364686694727	29.357711772931
9	244	170.860483927833	27.545921998283
9	251	174.057488350854	20.377908351467
9	264	183.806311621452	24.53468238502
9	265	184.211776093304	19.946560587291
9	266	185.350569068216	3.092741924045
9	279	193.797250004287	6.767321125352
9	283	196.970113249981	0
9	306	212.855849723816	0
9	311	215.881927773426	0
9	328	224.376585257128	0
9	337	230.806121910067	0
9	388	256.09426466245	0
9	476	306.758992213318	0
9	506	320.952808833378	0
9	518	339.726248422402	0
9	533	363.205649026037	0
9	546	371.192195682875	0
9	571	389.809550757369	0
9	588	403.067986115674	10.182405353417
9	605	415.799283773468	21.508991719343
9	616	421.224919935552	24.717637994708
9	625	426.397527855785	24.062705454905
9	634	428.518555934957	14.953872178809
9	637	429.669294943164	4.839535611803
9	646	445.333891994283	19.065826431622
9	653	449.904538435115	22.567112253522
9	654	450.215852361105	13.390283047101
9	680	459.575432191225	0
9	695	467.391372092138	7.430341330437
9	702	468.899456480194	1.392704301859
9	738	482.839820056976	0
9	747	489.266358152744	5.555417220821
9	765	496.849752675596	0
9	788	509.196294654	0
9	803	514.231732722704	0
9	845	531.320481633115	0
9	889	559.733429212903	0
9	902	565.775674391283	0
9	905	568.281133621198	1.262269924267
9	961	591.825595943079	0
9	976	604.799366927915	0
9	998	616.323956019072	0
9	1025	631.013625889006	0
9	1051	646.466340965816	0
9	1106	674.280458396211	0
9	1112	676.462035840674	0
9	1149	708.313017424824	20.253578632598
9	1176	724.949559168986	19.987777064035
9	1187	736.533335208062	24.74949562517
9	1202	748.031710979769	29.923139113364
9	1207	752.454259372701	11.481177906031
9	1217	755.619982568251	0
9	1236	771.443178669422	0
9	1249	778.313709132108	0
9	1275	788.951272116154	0
9	1323	821.186845770566	0
9	1342	838.176378483927	7.627832273262
9	1349	842.527308034771	8.18815807485
9	1446	888.373260811815	0
9	1449	890.560892759955	0.763930371933
9	1477	904.989118867412	0
9	1480	912.149565691546	0
9	1497	922.854321632488	0
9	1543	945.562732287547	0
9	1554	956.047649853054	6.801016238437
9	1569	963.494395496414	0
9	1574	977.723885256098	0.132139033478
9	1586	982.89872028675	0
9	1593	991.477400947096	0
9	1680	1039.786273980833	0
9	1713	1055.21749599585	0
9	1740	1068.459804727173	0
9	1777	1078.724540710621	0
9	1792	1085.221158631192	0
9	1810	1095.998127146391	0
9	1821	1105.508652028765	2.849591069259
9	1859	1121.191213327191	0
9	1862	1125.810492016971	0
9	1898	1149.969367203991	0
9	1919	1161.08684724165	0
9	1930	1170.715635800721	0
9	1937	1171.956124275307	0.904082061729
9	1971	1189.319054617185	0
9	1978	1194.075427643114	1.190603186132
9	1983	1197.734310265511	0.911290276995
9	2006	1213.884549585058	12.918303572257
9	2029	1231.493413279302	29.364976629427
9	2034	1235.916207601656	15.175162031408
9	2043	1239.645569536462	15.014179211458
9	2072	1264.602449045247	35.714733903814
9	2087	1278.916091501454	46.304341705404
9	2088	1280.593493399507	42.332649626858
9	2089	1281.703858480439	42.914736561115
9	2090	1283.597527338387	27.298034899995
9	2093	1298.994964747165	32.340167937412
9	2096	1299.256285879677	26.815828265382
9	2099	1301.036508046663	25.521895074443
9	2116	1316.746519321461	40.161058942558
9	2117	1322.347842156422	11.381259913884
9	2123	1324.870857145055	0
9	2128	1328.555706613313	0.420535511514
9	2145	1342.082629093097	3.845563647003
9	2162	1356.297197218595	12.78968022691
9	2165	1356.613079728889	12.190737130147
9	2166	1357.506072412762	7.396076733178
9	2173	1361.249106708689	3.728253741874
9	2190	1370.711234474805	0
9	2250	1401.55674928345	0
9	2256	1404.554033392311	0
9	2261	1408.568430864048	0.660808254954
9	2262	1408.666144794201	0.212726001932
9	2272	1412.656611501634	0
9	2296	1424.097735089433	0
9	2305	1432.240218857003	4.330737324413
9	2326	1446.87726803663	0
9	2331	1451.562884995358	2.999984192001
9	2338	1453.311923001491	1.268577682216
9	2353	1466.433173370536	13.801127572726
9	2376	1477.798396879795	24.372253137644
9	2377	1478.218279438688	13.395389547396
9	2384	1480.977288430862	13.483360762939
9	2385	1484.73387680858	5.065737517512
9	2426	1512.869552684434	21.24122826879
9	2429	1515.339040365682	20.044620565458
9	2436	1519.590289595414	20.368740732646
9	2449	1528.331632919953	21.450530811492
9	2458	1539.165859318781	22.368765199772
9	2459	1541.155876333585	15.254652281851
9	2462	1548.39666198629	21.840501936002
9	2490	1564.240375074459	0
9	2499	1569.210877843026	0
9	2508	1576.313161185558	0.598031679966
9	2513	1579.028306176672	0
9	2538	1595.939735000929	0
9	2588	1621.866092114508	0
9	2597	1625.492209753825	0
9	2673	1663.004219912209	0
9	2680	1667.659202932858	0
9	2708	1677.931359202785	0
9	2719	1687.716986434129	0
9	2754	1701.052332387362	9.920873622046
9	2763	1706.090052821397	12.672578636464
9	2778	1714.699966173157	19.675481530483
9	2793	1725.515785113895	21.054683472126
9	2794	1727.395879153429	21.21475286838
9	2821	1746.503761311836	31.80011435006
9	2832	1754.228225358782	34.756965689978
9	2843	1756.491322492098	32.020259719379
9	2846	1760.610372095529	28.915414014687
9	2849	1763.634428052138	26.143159276312
9	2870	1785.544259750495	45.467739226591
9	2873	1786.539043515085	31.425182532227
9	2880	1792.934460858245	36.804315144413
9	2885	1797.452589956564	41.25663196442
9	2886	1798.542602809394	25.99714203758
9	2897	1810.847492021465	26.637193698055
9	2902	1813.936726067178	25.258346242314
9	2907	1816.961995144647	16.334734255848
9	2918	1824.037558681781	11.45831898885
9	2919	1825.032332534588	6.950582595644
9	2930	1832.721018605598	9.263554536706
9	2933	1833.482713695609	8.328220635944
9	2938	1839.452401101668	10.477491039306
9	2955	1847.887607736861	1.253409306207
9	2966	1854.248085646748	2.312542640833
9	2969	1854.906274183527	1.316632327187
9	2991	1866.919381756186	0
9	3010	1877.861849337881	9.61638011631
9	3021	1888.652219691859	19.08805805438
9	3022	1890.326080081653	8.918599590803
9	3047	1905.986246279748	0
9	3076	1929.480405479084	17.85418954527
9	3081	1930.594496912568	11.119072056449
9	3121	1959.749144942803	0
9	3142	1965.647265154356	4.95642220305
9	3169	1984.408521799666	21.89945035777
9	3180	1991.68738569982	28.639333879152
10	14	10.219725772851	5.665899973677
10	26	20.129841791224	1.019995918315
10	36	27.028242954705	4.336319908546
10	73	55.052858115487	8.712712205214
10	94	68.328555746215	1.775441114105
10	103	72.809612131161	5.449691755812
10	112	81.344149296845	9.948962950571
10	167	108.788766794472	0.188406720623
10	170	111.018443082855	2.320944834487
10	174	112.688087485223	0.072736330529
10	223	156.204233136825	24.05752683827
10	226	159.335637241217	21.23601951576
10	243	170.364686694727	29.929569211401
10	244	170.860483927833	29.853509006037
10	251	174.057488350854	30.742926421304
10	264	183.806311621452	30.126731622065
10	265	184.211776093304	24.940146856872
10	266	185.350569068216	21.085353562203
10	279	193.797250004287	11.539422860116
10	280	195.304039929116	8.274111050181
10	286	203.041691035306	6.071577785325
10	307	213.813268226741	0.957418502925
10	312	218.919473884591	3.037546111165
10	333	229.840313349727	5.463728092599
10	346	234.745105166532	3.938983256465
10	389	261.39408702528	5.29982236283
10	491	313.501046868541	6.742054655223
10	509	322.792137201813	1.839328368435
10	521	348.472708146693	8.746459724291
10	534	364.943117167234	1.737468141197
10	555	382.253715243347	11.061519560472
10	588	403.067986115674	13.258435358305
10	605	415.799283773468	22.913703011211
10	616	421.224919935552	26.934627881427
10	625	426.397527855785	29.890245914941
10	634	428.518555934957	26.183733534077
10	637	429.669294943164	16.104611187016
10	646	445.333891994283	20.504132662922
10	653	449.904538435115	23.636472872454
10	654	450.215852361105	22.878426179512
10	655	450.500954776281	13.675385462277
10	695	467.391372092138	7.815939900913
10	702	468.899456480194	8.938425718493
10	723	476.732224768526	9.225472590191
10	747	489.266358152744	6.426538095768
10	756	491.303001895526	7.592060963603
10	766	497.581153934766	0.73140125917
10	793	510.96606368503	1.76976903103
10	814	518.735349938398	4.503617215694
10	846	532.199592062778	0.879110429663
10	896	563.901960408892	4.168531195989
10	905	568.281133621198	2.505459229915
10	908	570.378881664006	3.360017967075
10	962	596.069358729117	4.243762786038
10	983	607.603775429649	2.804408501734
10	1009	621.156245604479	4.832289585407
10	1026	631.717549545238	0.703923656232
10	1054	648.614077849294	2.147736883478
10	1109	675.37358665479	1.093128258579
10	1149	708.313017424824	31.85098158415
10	1176	724.949559168986	36.89012037676
10	1187	736.533335208062	31.571553103111
10	1202	748.031710979769	36.247871396877
10	1207	752.454259372701	34.345687506296
10	1210	753.570276884828	12.597195418158
10	1228	767.326096962739	11.706114394488
10	1241	775.033373151105	3.590194481683
10	1262	784.416450067534	6.102740935426
10	1276	789.184628637595	0.233356521441
10	1342	838.176378483927	16.989532713361
10	1349	842.527308034771	11.978761824106
10	1350	844.937037302917	10.597887342996
10	1449	890.560892759955	2.18763194814
10	1450	891.028470288086	1.231507900064
10	1478	912.142413733325	7.153294865913
10	1485	914.899805976878	2.750240285332
10	1500	923.527492507001	0.673170874513
10	1554	956.047649853054	10.484917565507
10	1559	960.098515749981	10.851882135364
10	1574	977.723885256098	14.229489759684
10	1579	980.253086226894	2.661340004274
10	1589	989.639203301484	6.740483014734
10	1606	1002.707809954579	11.230409007483
10	1681	1043.712796616015	3.926522635182
10	1714	1055.333522821869	0.116026826019
10	1743	1069.292008937355	0.832204210182
10	1778	1080.026872890274	1.302332179653
10	1799	1089.688527740659	4.467369109467
10	1821	1105.508652028765	9.510524882374
10	1822	1105.692237558712	3.033176599206
10	1860	1123.203743226989	2.012529899798
10	1867	1134.730040515668	8.919548498697
10	1899	1152.440377895352	2.471010691361
10	1924	1166.113173217787	5.026325976137
10	1937	1171.956124275307	1.240488474586
10	1944	1175.727864525813	4.675822312235
10	1978	1194.075427643114	4.756373025929
10	1983	1197.734310265511	4.849485808529
10	2006	1213.884549585058	17.061529596542
10	2029	1231.493413279302	30.527167266501
10	2034	1235.916207601656	33.787770951781
10	2043	1239.645569536462	18.904523966214
10	2072	1264.602449045247	39.971058720243
10	2087	1278.916091501454	50.028376360021
10	2088	1280.593493399507	47.981743603457
10	2089	1281.703858480439	43.44301470779
10	2090	1283.597527338387	44.808405419063
10	2093	1298.994964747165	42.695472308773
10	2096	1299.256285879677	32.601489069924
10	2099	1301.036508046663	28.596050432368
10	2116	1316.746519321461	41.231906349241
10	2117	1322.347842156422	45.762381777519
10	2120	1324.189948189998	13.22336594746
10	2128	1328.555706613313	3.684849468258
10	2145	1342.082629093097	13.947457991298
10	2162	1356.297197218595	18.060131772501
10	2165	1356.613079728889	13.105562737204
10	2166	1357.506072412762	13.08372981402
10	2173	1361.249106708689	11.139111029105
10	2174	1363.25434538344	5.733492416625
10	2201	1378.687334913804	7.976100438999
10	2251	1402.881895673898	1.325146390448
10	2261	1408.568430864048	4.014397471737
10	2262	1408.666144794201	0.758522185107
10	2267	1410.147989175458	1.694570383189
10	2275	1414.26551104764	1.608899546006
10	2305	1432.240218857003	8.14248376757
10	2306	1435.686205127069	7.776723594479
10	2331	1451.562884995358	4.685616958728
10	2338	1453.311923001491	4.749022198134
10	2353	1466.433173370536	14.389828051261
10	2376	1477.798396879795	25.166351081985
10	2377	1478.218279438688	24.792135696537
10	2384	1480.977288430862	16.15439853957
10	2385	1484.73387680858	17.239949140657
10	2426	1512.869552684434	33.201413393366
10	2429	1515.339040365682	23.710715950038
10	2436	1519.590289595414	24.29586979519
10	2449	1528.331632919953	29.110084057185
10	2458	1539.165859318781	32.28475721032
10	2459	1541.155876333585	24.358782214576
10	2462	1548.39666198629	22.495437934556
10	2469	1553.005041773829	26.448881723541
10	2495	1565.72396418169	1.483589107231
10	2508	1576.313161185558	7.102283342532
10	2511	1578.455512827353	2.740383321761
10	2514	1579.1317449123	0.103438735628
10	2539	1597.113716284701	1.173981283772
10	2589	1621.997910845792	0.131818731284
10	2602	1629.041540120024	3.549330366199
10	2678	1667.10798257361	4.103762661401
10	2681	1668.130628634673	0.471425701815
10	2709	1679.496339178861	1.564979976076
10	2754	1701.052332387362	13.335345953233
10	2763	1706.090052821397	14.958594056081
10	2778	1714.699966173157	21.282491988224
10	2793	1725.515785113895	30.491300471221
10	2794	1727.395879153429	22.93477751166
10	2821	1746.503761311836	40.322635026787
10	2832	1754.228225358782	39.524578397006
10	2843	1756.491322492098	37.020062823294
10	2846	1760.610372095529	36.13930932281
10	2849	1763.634428052138	31.939469971296
10	2870	1785.544259750495	48.052990974669
10	2873	1786.539043515085	46.462522991181
10	2880	1792.934460858245	37.820599875387
10	2885	1797.452589956564	41.322444242732
10	2886	1798.542602809394	42.34664481725
10	2897	1810.847492021465	38.302031249651
10	2902	1813.936726067178	29.726427743768
10	2907	1816.961995144647	28.283615319783
10	2918	1824.037558681781	23.410297792982
10	2919	1825.032332534588	12.453092841657
10	2930	1832.721018605598	14.639268666654
10	2933	1833.482713695609	10.025249626717
10	2938	1839.452401101668	14.297908042003
10	2955	1847.887607736861	18.912697674499
10	2966	1854.248085646748	7.613887216094
10	2969	1854.906274183527	2.970731177612
10	2972	1856.83249926103	3.24285740469
10	3010	1877.861849337881	10.942467581695
10	3021	1888.652219691859	20.406750470288
10	3022	1890.326080081653	20.761918444174
10	3031	1898.779003959606	17.371523468756
10	3076	1929.480405479084	23.494159199336
10	3081	1930.594496912568	18.968280978754
10	3094	1944.049365987283	24.573941131164
10	3142	1965.647265154356	5.898120211553
10	3169	1984.408521799666	23.71767884836
10	3180	1991.68738569982	29.178314257924
11	3193	2000	0.374
12	3193	2000	0.095

