version 2
run Continuity_test_mean_response_time-287-20221215-22:14:10-14810
attr configname Continuity_test_mean_response_time
attr datetime 20221215-22:14:10
attr experiment Continuity_test_mean_response_time
attr inifile omnetpp.ini
attr iterationvars $0=5.2
attr iterationvarsf 5.2-
attr measurement $0=5.2
attr network Network
attr processid 14810
attr repetition 87
attr replication #87
attr resultdir results
attr runnumber 287
attr seedset 87
param *.minion.arrival_mean 2
param *.minion.service_mean 1
param *.boss.arrival_mean 10
param *.boss.service_mean 5.2
param *.player.recover_rate_x 100
param **.minion.arrival_distribution 0
param **.minion.service_distribution 0
param **.boss.arrival_distribution 0
param **.boss.service_distribution 0

scalar Network.player boss_throughput:mean 0.1005
attr source signal_boss_throughput
scalar Network.player boss_throughput:last 0.1005
attr source signal_boss_throughput
scalar Network.player boss_defeated_stat:count 202
attr source signal_boss_defeated
scalar Network.player boss_defeated_stat:mean 100.5
attr source signal_boss_defeated
scalar Network.player boss_waiting_time_stat:mean 4.4490657712034
attr source signal_boss_waiting_time
scalar Network.player boss_response_time_stat:mean 9.0441559307702
attr source signal_boss_response_time
scalar Network.player minion_throughput:mean 0.487
attr source signal_minion_throughput
scalar Network.player minion_throughput:last 0.487
attr source signal_minion_throughput
scalar Network.player minion_recovered_stat:count 100
attr source signal_minion_recovered
scalar Network.player minion_recovered_stat:mean 49.5
attr source signal_minion_recovered
scalar Network.player minion_defeated_stat:count 975
attr source signal_minion_defeated
scalar Network.player minion_defeated_stat:mean 487
attr source signal_minion_defeated
scalar Network.player minion_waiting_time_stat:mean 42.880574559355
attr source signal_minion_waiting_time
scalar Network.player minion_response_time_stat:mean 43.601351021067
attr source signal_minion_response_time

