file 215500 1671138831                                          
version 2
run Continuity_test_mean_response_time-198-20221215-22:13:51-14364
attr configname Continuity_test_mean_response_time
attr datetime 20221215-22:13:51
attr experiment Continuity_test_mean_response_time
attr inifile omnetpp.ini
attr iterationvars $0=5.1
attr iterationvarsf 5.1-
attr measurement $0=5.1
attr network Network
attr processid 14364
attr repetition 98
attr replication #98
attr resultdir results
attr runnumber 198
attr seedset 98
param *.minion.arrival_mean 2
param *.minion.service_mean 1
param *.boss.arrival_mean 10
param *.boss.service_mean 5.1
param *.player.recover_rate_x 100
param **.minion.arrival_distribution 0
param **.minion.service_distribution 0
param **.boss.arrival_distribution 0
param **.boss.service_distribution 0

vector 0 Network.player minion_jobs_number_stat:vector ETV
attr source signal_minion_jobs_number
vector 1 Network.player minion_jobs_queue_number_stat:vector ETV
attr source signal_minion_jobs_queue_number
vector 2 Network.player minion_recovered_stat:vector ETV
attr source signal_minion_recovered
vector 3 Network.player minion_defeated_stat:vector ETV
attr source signal_minion_defeated
vector 4 Network.player boss_jobs_number_stat:vector ETV
attr source signal_boss_jobs_number
vector 5 Network.player boss_jobs_queue_number_stat:vector ETV
attr source signal_boss_jobs_queue_number
vector 6 Network.player boss_defeated_stat:vector ETV
attr source signal_boss_defeated
vector 7 Network.player minion_waiting_time_stat:vector ETV
attr source signal_minion_waiting_time
vector 8 Network.player minion_response_time_stat:vector ETV
attr source signal_minion_response_time
vector 9 Network.player boss_waiting_time_stat:vector ETV
attr source signal_boss_waiting_time
vector 10 Network.player boss_response_time_stat:vector ETV
attr source signal_boss_response_time
vector 11 Network.player minion_throughput:vector ETV
attr source signal_minion_throughput
vector 12 Network.player boss_throughput:vector ETV
attr source signal_boss_throughput
0	2003 26753 0 3500 0 1997.511669883994 1010 0 84 16797 624425
1	28756 51134 0 3500 0 1997.511669883994 1935 0 83 28090 989626
2	79890 2125 0 3487 0 1991.701199072959 80 0 79 3160 167480
3	82015 25763 0 3485 0 1991.683089834198 926 0 925 428275 264245675
4	107778 4841 0 3491 0 1995.343015268539 187 0 6 334 830
5	112619 9683 0 3501 0 1999.870196286309 373 0 5 296 696
6	122302 5114 0 3501 0 1999.870196286309 187 0 186 17391 2162281
7	127416 38145 2 3501 0.908372126172 1999.870196286309 1005 0 131.67230458919 23186.724346487 1186595.2660232
8	165561 36467 3 3485 1.130797961013 1991.683089834198 925 0.006031407526 128.55175556974 21927.868472018 1096549.74092
9	202028 5933 11 3494 7.120242338537 1996.269757974086 186 0 32.962764220552 699.76015406876 9678.6694746976
10	207961 7499 16 3501 10.513650455626 1999.870196286309 186 0.028131786634 45.579590018867 1590.5640204508 24938.547695203
11	215460 20 3502 3502 2000 2000 1 0.4625 0.4625 0.4625 0.21390625
12	215480 19 3502 3502 2000 2000 1 0.093 0.093 0.093 0.008649

