version 2
run Continuity_test_mean_response_time-287-20221215-22:14:10-14810
attr configname Continuity_test_mean_response_time
attr datetime 20221215-22:14:10
attr experiment Continuity_test_mean_response_time
attr inifile omnetpp.ini
attr iterationvars $0=5.2
attr iterationvarsf 5.2-
attr measurement $0=5.2
attr network Network
attr processid 14810
attr repetition 87
attr replication #87
attr resultdir results
attr runnumber 287
attr seedset 87
param *.minion.arrival_mean 2
param *.minion.service_mean 1
param *.boss.arrival_mean 10
param *.boss.service_mean 5.2
param *.player.recover_rate_x 100
param **.minion.arrival_distribution 0
param **.minion.service_distribution 0
param **.boss.arrival_distribution 0
param **.boss.service_distribution 0

vector 0 Network.player minion_jobs_number_stat:vector ETV
attr source signal_minion_jobs_number
vector 1 Network.player minion_jobs_queue_number_stat:vector ETV
attr source signal_minion_jobs_queue_number
vector 2 Network.player minion_recovered_stat:vector ETV
attr source signal_minion_recovered
vector 3 Network.player minion_defeated_stat:vector ETV
attr source signal_minion_defeated
vector 4 Network.player boss_jobs_number_stat:vector ETV
attr source signal_boss_jobs_number
vector 5 Network.player boss_jobs_queue_number_stat:vector ETV
attr source signal_boss_jobs_queue_number
vector 6 Network.player boss_defeated_stat:vector ETV
attr source signal_boss_defeated
vector 7 Network.player minion_waiting_time_stat:vector ETV
attr source signal_minion_waiting_time
vector 8 Network.player minion_response_time_stat:vector ETV
attr source signal_minion_response_time
vector 9 Network.player boss_waiting_time_stat:vector ETV
attr source signal_boss_waiting_time
vector 10 Network.player boss_response_time_stat:vector ETV
attr source signal_boss_response_time
vector 11 Network.player minion_throughput:vector ETV
attr source signal_minion_throughput
vector 12 Network.player boss_throughput:vector ETV
attr source signal_boss_throughput
0	0	0	0
0	2	0.637266456967	1
0	5	1.569442812138	1
0	8	2.539381141118	1
0	10	3.899592818707	2
0	12	4.706343342134	3
0	14	4.985810899169	4
0	23	12.254389378489	1
0	26	12.99981049913	1
0	28	14.182096634836	2
0	32	17.003926713134	1
0	35	19.88617922415	1
0	41	22.010687852002	1
0	44	23.699114704977	1
0	46	25.190440150985	2
0	50	28.389116867798	1
0	52	28.394448173042	2
0	54	29.795349573169	3
0	56	29.853031661612	4
0	61	33.384233658855	4
0	63	33.582533286584	5
0	65	33.684234015787	6
0	68	36.125071565099	7
0	72	38.264688541159	6
0	74	38.328922253163	7
0	76	39.18927869343	8
0	79	40.504249297192	8
0	81	40.943840929949	9
0	83	41.008215951391	10
0	85	41.170374438778	11
0	87	41.248075796381	12
0	92	44.309052514181	10
0	100	47.461107625193	5
0	103	48.466685498055	5
0	108	51.604144620053	5
0	110	53.791819501795	6
0	112	55.535034085136	7
0	114	55.679902840338	8
0	116	56.658931780664	9
0	118	56.9512907446	10
0	120	57.090209848608	11
0	122	57.35503296233	12
0	124	57.941958303893	13
0	126	58.434051358291	14
0	128	60.507472372788	15
0	130	63.966406484816	16
0	132	67.384813356233	17
0	137	72.074066635556	16
0	143	72.378709759513	16
0	145	72.780406277515	17
0	150	76.114833877723	15
0	154	77.185363963369	14
0	161	82.287332361691	12
0	165	85.250930647024	13
0	170	88.355492538506	14
0	172	88.796286961003	15
0	174	92.756881430403	16
0	176	93.54466091888	17
0	179	95.389763209742	18
0	184	97.155563749372	19
0	191	101.231649448565	20
0	193	101.740534832071	21
0	195	102.147418890353	22
0	201	107.686098246716	23
0	205	108.884618886827	24
0	207	108.989994210696	25
0	210	111.380660794174	26
0	214	118.455523801562	27
0	216	119.086447653263	28
0	220	126.476702204627	29
0	222	128.129781255059	30
0	226	133.032332709173	31
0	228	135.471591105646	32
0	230	135.680021256334	33
0	232	137.602732732085	34
0	234	139.858198189391	35
0	236	140.726187998094	36
0	238	141.250490545638	37
0	240	141.418339980207	38
0	244	143.44941540142	39
0	246	145.199507038979	40
0	250	148.090458861777	41
0	252	148.253756936787	42
0	254	150.935281031487	43
0	256	151.186427586014	44
0	258	151.420982692086	45
0	260	151.843737508506	46
0	266	160.947492788725	47
0	268	161.243751340029	48
0	270	161.750336606386	49
0	272	161.802722796084	50
0	274	162.465695305023	51
0	279	165.210308121922	51
0	284	167.4350105999	49
0	287	170.146440417652	49
0	294	173.936635603167	47
0	296	175.750542295974	48
0	298	177.657735543673	49
0	300	177.90474373584	50
0	305	179.828343979859	49
0	308	180.212145803071	49
0	321	190.323325803218	44
0	325	193.120062725307	45
0	327	193.248862382332	46
0	329	195.195924901352	47
0	331	195.518159910146	48
0	333	195.534805832451	49
0	335	196.043362764148	50
0	337	196.528644321893	51
0	339	197.392362199111	52
0	342	198.612658384856	53
0	344	198.628551609569	54
0	360	210.864058699669	48
0	362	211.530218031846	49
0	364	211.949612927224	50
0	375	223.008081081895	48
0	381	225.671360317954	45
0	388	227.625914052843	44
0	390	228.871874153559	45
0	394	229.618323957439	44
0	396	229.714353305934	45
0	398	229.918201043791	46
0	403	232.781894729626	44
0	405	233.43545350083	45
0	407	233.741578303653	46
0	411	233.998690385853	47
0	413	234.754311662384	48
0	415	235.427738245828	49
0	418	237.237532421345	50
0	427	241.462377798854	44
0	429	241.794682936792	45
0	434	244.203406814999	46
0	438	248.241784213614	45
0	440	249.449229816351	46
0	442	249.766796089789	47
0	447	252.204870601346	45
0	457	256.050952803304	38
0	462	258.246072361476	36
0	465	258.982441186805	36
0	468	262.357458090747	36
0	472	264.173579339505	35
0	475	265.426833176368	35
0	477	267.655717986895	36
0	479	267.91196760766	37
0	483	270.730179880149	36
0	487	272.234304112814	35
0	489	273.002123095082	36
0	493	274.574996818348	35
0	495	274.70930298135	36
0	497	275.118671564028	37
0	499	276.856638162736	38
0	508	284.048669334371	38
0	510	284.657093830453	39
0	512	285.360421888185	40
0	515	286.538885882655	40
0	517	286.882219884374	41
0	522	290.62344197024	39
0	526	291.29626737399	38
0	528	291.574617279987	39
0	531	292.915360860941	39
0	535	295.124794778116	40
0	537	295.515470422601	41
0	541	297.075788722681	41
0	550	299.507472723374	38
0	552	299.832814125402	39
0	555	302.120498169347	39
0	564	306.863470110493	33
0	566	308.59905261795	34
0	569	311.039553675585	34
0	573	313.071476065032	33
0	576	313.739735900639	33
0	578	313.94368609453	34
0	582	315.641873122966	33
0	585	316.116881892103	33
0	590	318.270060818632	33
0	592	321.975575643137	34
0	594	323.258989666203	35
0	602	329.1397056777	31
0	608	333.349382645849	28
0	613	335.408723748378	26
0	615	335.509449910046	27
0	620	338.543378566905	25
0	630	342.82130404688	18
0	634	345.519576199714	17
0	640	347.204761215699	14
0	642	347.775600885566	15
0	645	348.818866999542	15
0	652	349.063090950685	13
0	655	349.387564314814	14
0	657	350.849924232725	15
0	662	354.676234555581	13
0	664	354.886712978318	14
0	673	361.089743178901	11
0	681	363.710564590091	6
0	685	368.479892152232	5
0	689	371.301215132148	4
0	695	373.567161193936	1
0	699	375.130366858611	2
0	704	376.240152845637	3
0	707	376.804450202694	4
0	712	380.475102985355	4
0	714	381.742421004021	5
0	718	383.291867804805	5
0	722	385.238933346491	4
0	727	386.94908669954	2
0	733	389.922912443404	1
0	735	390.52060108706	2
0	737	391.111789658536	3
0	739	391.793658509346	4
0	741	394.960454670308	5
0	747	396.829071419914	5
0	749	397.278395512592	6
0	751	400.908318972601	7
0	753	401.296465923453	8
0	757	402.759168667349	8
0	761	409.539558515125	7
0	763	411.38110672227	8
0	765	411.473733860772	9
0	768	412.377365146011	9
0	772	414.157571078851	8
0	775	414.329870407273	8
0	778	414.957599755652	8
0	780	415.970738173458	9
0	782	416.247886765818	10
0	785	417.241894391888	10
0	789	417.694693566074	11
0	791	418.738656602184	12
0	806	428.514081239928	4
0	810	429.011044966917	3
0	814	434.369435481513	4
0	817	435.224938414432	5
0	821	435.67405730773	4
0	827	439.838958702813	1
0	830	449.331537252406	1
0	833	454.281135722198	1
0	836	455.846773315528	1
0	839	457.616441328881	1
0	841	458.851939678581	2
0	844	459.723446418367	2
0	846	460.35061007641	3
0	849	460.76521166398	3
0	854	463.499437144547	1
0	856	464.692538312607	2
0	859	465.449586833591	2
0	863	466.588958824362	1
0	865	467.428955920777	2
0	867	470.888702474287	3
0	872	475.50292531901	1
0	874	476.521017439303	2
0	881	485.845594076577	2
0	883	486.17990444109	3
0	886	491.807707541355	4
0	893	495.004955346578	1
0	896	498.872751365862	1
0	899	499.798438502065	1
0	903	501.400088567105	2
0	905	501.92709524516	3
0	908	502.769658007557	4
0	910	502.814508213713	5
0	913	503.764832321801	5
0	915	503.982560702017	6
0	922	507.122504397592	4
0	924	507.938502210717	5
0	926	508.682230399101	6
0	928	508.967272287202	7
0	932	512.402761539171	8
0	937	515.525154006865	9
0	948	525.687897100624	10
0	950	525.690568910856	11
0	952	528.259186661335	12
0	954	529.665952720941	13
0	956	530.51992742743	14
0	959	531.061432515015	15
0	961	532.572272055484	16
0	963	535.203915124847	17
0	965	535.462042031983	18
0	967	535.471445561199	19
0	970	537.733633961388	20
0	972	539.048070036124	21
0	975	539.979556492147	22
0	978	542.648461709178	23
0	985	554.149975446063	24
0	987	554.772422467212	25
0	989	557.42813829637	26
0	991	558.98867557131	27
0	993	560.865177369891	28
0	995	561.529037156007	29
0	997	561.985582997162	30
0	999	562.167916050908	31
0	1001	563.966610051281	32
0	1007	565.523109706845	33
0	1009	568.244289630088	34
0	1011	569.209711681684	35
0	1013	571.002285009738	36
0	1016	572.625610188745	37
0	1022	574.729685153912	38
0	1026	576.028297340158	39
0	1028	576.301066589303	40
0	1030	582.153479871767	41
0	1032	584.033411356435	42
0	1034	585.866157382805	43
0	1042	590.007429372653	44
0	1045	591.35893669412	45
0	1048	595.423249891288	46
0	1050	595.509999570212	47
0	1052	596.601824278782	48
0	1055	597.327458573814	49
0	1057	601.994457335418	50
0	1059	603.425799566397	51
0	1061	604.656104093379	52
0	1063	605.923968117263	53
0	1065	605.981466557115	54
0	1067	606.472394337874	55
0	1069	610.547818416007	56
0	1072	613.297435865516	57
0	1075	614.640875246183	58
0	1077	615.46497674063	59
0	1079	616.514565918086	60
0	1081	619.850977108756	61
0	1083	621.221798142203	62
0	1088	629.121657041995	63
0	1090	634.545468890947	64
0	1092	635.138187942201	65
0	1094	635.414599829327	66
0	1096	636.766222968866	67
0	1098	638.307044516785	68
0	1100	639.281643116633	69
0	1109	646.806640659149	64
0	1112	647.114172834217	64
0	1115	648.470989564594	64
0	1124	654.695992438459	64
0	1127	656.503177481292	64
0	1131	657.454477644727	63
0	1133	658.924738078021	64
0	1135	658.998279470789	65
0	1141	660.947033405728	64
0	1143	662.404572510059	65
0	1145	663.981330674419	66
0	1153	670.743168283914	65
0	1155	671.780736903221	66
0	1160	673.530519667938	66
0	1162	674.371950231113	67
0	1164	677.689670320365	68
0	1173	680.955089963751	65
0	1177	685.317721232371	65
0	1181	686.157965370379	66
0	1184	688.711484636189	67
0	1186	690.195722544443	68
0	1191	692.854397773078	66
0	1202	700.776362536263	58
0	1207	702.43547384324	58
0	1209	706.435892069422	59
0	1211	709.166831020932	60
0	1213	710.253291802024	61
0	1217	710.641694166779	61
0	1219	710.65451542532	62
0	1221	710.910350884265	63
0	1226	712.94547759756	61
0	1228	713.677780204309	62
0	1230	715.561509097461	63
0	1236	721.457098674192	60
0	1238	721.963852591954	61
0	1240	722.244288297103	62
0	1243	723.147675661717	62
0	1245	724.606532078747	63
0	1248	726.507878041262	63
0	1255	728.025101896735	59
0	1259	731.894895536558	60
0	1262	733.990429302408	61
0	1266	735.909300661542	60
0	1269	737.284577566732	60
0	1272	739.318747199487	60
0	1274	739.345251920229	61
0	1280	742.168059591635	58
0	1285	746.05891814443	56
0	1287	746.112965868112	57
0	1289	746.462722788924	58
0	1294	747.163009179917	56
0	1303	752.564849419909	50
0	1306	753.866774639792	50
0	1313	757.638084276517	50
0	1326	763.419328658834	45
0	1328	763.884739352572	46
0	1333	765.474578661549	44
0	1338	767.810743920013	42
0	1340	768.07497556451	43
0	1342	768.320631051621	44
0	1345	768.983057299735	44
0	1347	769.332320421302	45
0	1349	769.387732854348	46
0	1355	771.09014025315	43
0	1357	771.352571910731	44
0	1364	775.966521776616	40
0	1369	778.548857820926	41
0	1380	784.114278259103	33
0	1386	785.599644021675	32
0	1391	791.258171513176	33
0	1397	793.912491309998	34
0	1399	794.722062515762	35
0	1401	795.074048949547	36
0	1403	796.650387804496	37
0	1406	800.394220865317	38
0	1411	803.711262577844	39
0	1414	805.159316641449	40
0	1430	813.730667903642	28
0	1438	816.446491188288	23
0	1442	819.571037708212	22
0	1445	820.55923101888	22
0	1451	823.502794364416	22
0	1453	824.468732741871	23
0	1456	824.836167835668	23
0	1458	824.895776837117	24
0	1462	827.114044701829	23
0	1464	827.145416593343	24
0	1466	827.605763581418	25
0	1470	830.540943629084	24
0	1475	832.95744683633	25
0	1479	834.290029832091	24
0	1482	836.571468299963	24
0	1485	836.620137037296	24
0	1488	837.1487111889	24
0	1494	841.783062928874	21
0	1496	841.907490933475	22
0	1502	845.206170391062	19
0	1504	845.45821980323	20
0	1506	845.614616975377	21
0	1521	855.758146932743	9
0	1525	856.582693269258	8
0	1527	857.247277680606	9
0	1529	859.813148874913	10
0	1531	860.900700561309	11
0	1535	863.651941407843	10
0	1537	864.024180040938	11
0	1539	865.492218871764	12
0	1541	865.769707229448	13
0	1548	869.573032993766	11
0	1553	874.275422960665	10
0	1555	874.332530384616	11
0	1566	879.304262536579	7
0	1569	881.308180702025	8
0	1571	882.897651677413	9
0	1573	883.882144290612	10
0	1575	885.67836811834	11
0	1577	885.857424258186	12
0	1579	887.06908581543	13
0	1581	889.13120632858	14
0	1587	896.09091658838	12
0	1594	898.746573586247	8
0	1598	900.126063221117	7
0	1603	901.563374277068	7
0	1611	905.372423631456	6
0	1613	905.920213685036	7
0	1615	906.004389126489	8
0	1617	906.463444978014	9
0	1626	912.943570524808	3
0	1629	913.383812788316	3
0	1634	916.11260088297	4
0	1639	918.972891752901	5
0	1641	919.420376844908	6
0	1651	924.450942668557	3
0	1653	926.58858278903	4
0	1655	927.380206512299	5
0	1657	928.445173090114	6
0	1659	928.709696916275	7
0	1668	935.409455906188	3
0	1671	937.24544099746	3
0	1673	937.759966421243	4
0	1681	939.26870851859	2
0	1683	942.836629132496	3
0	1686	943.891654205958	3
0	1688	943.941019864252	4
0	1690	943.979855626732	5
0	1694	944.445860748429	4
0	1697	944.566592826502	4
0	1701	947.340993104019	3
0	1704	948.184267348193	3
0	1709	951.775387841662	1
0	1712	956.660391766933	1
0	1715	962.15318550756	1
0	1718	963.751173248964	1
0	1720	963.923141266314	2
0	1722	964.197482603347	3
0	1724	964.478209817252	4
0	1730	970.714948003083	1
0	1733	976.233277812872	1
0	1735	976.322549715751	2
0	1737	977.364449468176	3
0	1740	979.032137302006	3
0	1743	981.742112318774	3
0	1745	982.506524166483	4
0	1756	989.207377943569	1
0	1758	989.896875101465	2
0	1760	993.727205051605	3
0	1764	994.704896284095	4
0	1766	995.534784739013	5
0	1768	996.845639331854	6
0	1770	1000.22260442459	7
0	1772	1000.901406545678	8
0	1774	1001.241493636582	9
0	1776	1001.388951081046	10
0	1781	1004.14995554961	11
0	1784	1007.372732590022	12
0	1788	1010.810534798382	12
0	1790	1011.133685368628	13
0	1794	1012.272626629842	12
0	1796	1015.07554509593	13
0	1799	1016.326021675456	13
0	1801	1017.245406735928	14
0	1806	1019.719821097296	12
0	1812	1021.528985483614	9
0	1817	1023.797497184892	7
0	1819	1024.329291190995	8
0	1826	1028.521608559022	4
0	1832	1032.826355629197	1
0	1838	1039.55261110421	1
0	1840	1041.483314707216	2
0	1843	1042.224908909791	2
0	1851	1046.630991825122	1
0	1853	1047.450782261108	2
0	1855	1049.148947601383	3
0	1857	1049.739552503975	4
0	1859	1050.836833814764	5
0	1861	1050.96151943336	6
0	1863	1051.324566915175	7
0	1870	1054.468527242893	8
0	1872	1054.940136736561	9
0	1876	1061.098077600024	10
0	1878	1061.325370072008	11
0	1880	1063.075752346914	12
0	1887	1066.894846648859	13
0	1889	1067.974004938833	14
0	1891	1068.682052603662	15
0	1893	1068.754574150407	16
0	1895	1069.467886323535	17
0	1899	1070.085575813839	18
0	1902	1070.570357447533	19
0	1904	1072.823396098358	20
0	1906	1074.915227452355	21
0	1908	1076.107006634056	22
0	1910	1076.703940911387	23
0	1918	1080.964282497178	20
0	1926	1084.468953302641	18
0	1928	1084.868749965757	19
0	1931	1086.547277300908	19
0	1934	1086.684862758226	19
0	1939	1088.627764798433	17
0	1947	1093.041141534475	15
0	1951	1095.584365702801	14
0	1962	1104.751633346375	9
0	1964	1104.932521815931	10
0	1967	1106.219845817064	10
0	1973	1108.598993241431	7
0	1976	1109.934455092703	7
0	1979	1111.920914624344	7
0	1983	1113.3880347733	8
0	1985	1114.292843683278	9
0	1987	1115.866334970472	10
0	1990	1117.420168605261	11
0	1998	1119.96254110877	10
0	2000	1120.434166887255	11
0	2003	1124.871456849597	12
0	2005	1125.556945915635	13
0	2007	1125.629959642931	14
0	2009	1129.220947468857	15
0	2011	1130.354549954212	16
0	2014	1131.960852720501	17
0	2017	1132.179624289447	17
0	2020	1133.372935786803	17
0	2023	1134.561660833088	17
0	2029	1138.258620043172	14
0	2031	1139.035027463285	15
0	2034	1140.363110103193	15
0	2037	1142.471903785642	15
0	2039	1143.460464271084	16
0	2041	1143.689364797717	17
0	2043	1143.87582046355	18
0	2047	1144.307839901727	19
0	2049	1145.983425228486	20
0	2052	1146.640857164352	21
0	2056	1146.943885001755	22
0	2060	1147.786135181434	22
0	2063	1148.513789699959	22
0	2067	1149.895862653348	21
0	2073	1154.007332153623	18
0	2079	1155.711034927857	15
0	2081	1156.435661136252	16
0	2087	1157.645811455467	13
0	2090	1158.254757778801	13
0	2094	1161.953785957724	12
0	2097	1162.2849611805	12
0	2101	1163.347448259038	11
0	2104	1166.88940474399	11
0	2108	1168.576298646567	10
0	2113	1170.951166878812	10
0	2115	1171.53635074561	11
0	2118	1173.483690956017	12
0	2122	1174.066593746467	13
0	2124	1175.777057245341	14
0	2128	1180.271332995297	15
0	2132	1184.291178175762	16
0	2136	1185.781594037654	15
0	2138	1185.879038846363	16
0	2150	1190.961413629815	9
0	2152	1190.962012628374	10
0	2156	1194.358561881407	11
0	2160	1195.429472802487	12
0	2162	1198.097676301788	13
0	2164	1204.549973537999	14
0	2172	1211.261982543981	15
0	2181	1214.468672967513	9
0	2186	1215.839307273233	9
0	2188	1217.937183790762	10
0	2196	1220.904890915169	9
0	2200	1222.73007296828	8
0	2202	1222.939133799941	9
0	2204	1223.480701039928	10
0	2210	1229.396515018691	7
0	2215	1235.218283872707	5
0	2218	1235.87021201836	5
0	2224	1245.04666505859	6
0	2226	1247.060873704525	7
0	2228	1247.633917397719	8
0	2230	1250.384475306955	9
0	2232	1251.216351920274	10
0	2234	1253.361069451091	11
0	2240	1255.352832049763	12
0	2242	1257.125672770418	13
0	2244	1257.327775275582	14
0	2247	1262.79205478652	15
0	2249	1263.258451140584	16
0	2251	1263.265220857583	17
0	2256	1267.776364725044	18
0	2258	1267.838836691524	19
0	2260	1268.339422273009	20
0	2265	1273.929435725619	21
0	2270	1275.751252550472	22
0	2273	1277.362468498591	23
0	2277	1279.572427609202	24
0	2279	1279.796940130652	25
0	2284	1281.690009012899	26
0	2288	1283.54567231749	25
0	2290	1283.549557947774	26
0	2294	1285.813539805008	25
0	2296	1286.085970318965	26
0	2298	1287.930848139433	27
0	2302	1292.624369561142	26
0	2304	1293.323566123892	27
0	2307	1293.921021422766	27
0	2311	1298.982694472301	28
0	2313	1299.975998821278	29
0	2316	1302.388846284327	30
0	2321	1302.904236502467	30
0	2323	1303.064310756177	31
0	2326	1306.481138739863	32
0	2328	1306.504099379183	33
0	2337	1310.096760377429	27
0	2339	1311.722743786409	28
0	2345	1312.729207922608	29
0	2347	1314.758040162038	30
0	2349	1315.615474418983	31
0	2351	1316.458359591757	32
0	2355	1318.10907420334	33
0	2357	1318.250453829462	34
0	2371	1330.144788488051	25
0	2373	1333.41360055562	26
0	2375	1334.592724981096	27
0	2377	1334.673103418592	28
0	2379	1335.949917072742	29
0	2381	1336.640826557638	30
0	2383	1337.281765779455	31
0	2385	1338.587137559221	32
0	2387	1339.078388249857	33
0	2389	1340.230195124003	34
0	2394	1342.963204507202	35
0	2396	1343.103211152314	36
0	2398	1343.655487150992	37
0	2400	1345.179549111455	38
0	2402	1345.425177443038	39
0	2404	1348.757307499232	40
0	2406	1348.958698930024	41
0	2408	1348.968934177661	42
0	2411	1349.562875875645	43
0	2415	1350.56598053208	44
0	2425	1356.092022854033	41
0	2429	1357.111236190014	40
0	2431	1357.401760041506	41
0	2436	1358.808142833142	39
0	2441	1359.895132776511	37
0	2448	1361.785428029714	33
0	2450	1362.358863054741	34
0	2454	1365.500930066551	35
0	2456	1366.128505911873	36
0	2458	1369.337293801217	37
0	2460	1372.490777751786	38
0	2466	1374.004686803199	38
0	2468	1375.042188396644	39
0	2470	1377.880031990166	40
0	2475	1382.982350926903	39
0	2481	1385.43101501949	36
0	2486	1386.3417735102	34
0	2492	1391.855737442111	31
0	2496	1394.022804927744	30
0	2499	1396.498278704667	30
0	2503	1399.741521283852	29
0	2511	1403.980799340322	27
0	2513	1405.055064267401	28
0	2517	1405.576226487822	27
0	2526	1411.135656392586	21
0	2530	1412.818117230552	22
0	2533	1417.529893675197	23
0	2538	1418.488171290189	21
0	2542	1420.08678457541	20
0	2546	1421.039680082699	19
0	2552	1423.765859584113	16
0	2555	1425.140276374988	16
0	2560	1427.134091145509	14
0	2566	1430.487394971704	11
0	2569	1433.015347955485	11
0	2571	1434.61003048888	12
0	2573	1434.77811589205	13
0	2576	1435.32078965644	13
0	2587	1441.608135600399	5
0	2589	1442.073891321448	6
0	2592	1443.501738010514	6
0	2594	1444.42958317986	7
0	2598	1445.413318965599	6
0	2605	1448.876541687859	4
0	2610	1451.071617816702	3
0	2615	1452.94728557353	3
0	2617	1454.953268043235	4
0	2619	1456.092357975965	5
0	2621	1458.419027762648	6
0	2625	1462.587096471994	6
0	2629	1464.302471334699	5
0	2633	1466.781684390585	6
0	2635	1467.259097781204	7
0	2637	1467.631821187354	8
0	2644	1479.243510927378	9
0	2646	1482.698444090948	10
0	2654	1486.666478298805	11
0	2656	1489.027948920021	12
0	2659	1490.405744552078	13
0	2661	1490.505610867732	14
0	2665	1491.503265481807	15
0	2670	1496.329504825194	16
0	2673	1501.360677523083	17
0	2675	1501.849462333143	18
0	2679	1503.073275635818	19
0	2683	1507.902953503342	20
0	2688	1510.504473548921	21
0	2690	1510.553024722511	22
0	2692	1510.672327724694	23
0	2694	1511.674417178027	24
0	2696	1514.007892605306	25
0	2698	1514.838940996074	26
0	2700	1516.125353411547	27
0	2704	1516.411333435492	28
0	2706	1517.091433528291	29
0	2708	1518.517749254977	30
0	2711	1518.976709517177	31
0	2716	1521.611043624801	29
0	2720	1523.44703783178	28
0	2723	1524.658984921529	28
0	2733	1529.502848468104	23
0	2736	1533.484890250459	24
0	2738	1535.554696447648	25
0	2740	1536.440621946944	26
0	2743	1538.461928637499	26
0	2746	1540.256248405112	26
0	2748	1540.365131577108	27
0	2751	1541.68894293694	27
0	2757	1544.324685041177	24
0	2768	1550.005805292874	19
0	2771	1550.640596346315	19
0	2774	1551.773895443735	19
0	2778	1552.913289656522	18
0	2782	1554.19344930823	17
0	2787	1557.696912910248	15
0	2791	1561.79165407463	14
0	2796	1564.091747427958	12
0	2800	1564.658980614875	11
0	2804	1567.076845313705	10
0	2807	1567.719554757299	10
0	2810	1569.144616071931	10
0	2823	1577.770543984265	3
0	2825	1580.259315833294	4
0	2827	1581.768993521973	5
0	2834	1585.43212035013	1
0	2836	1586.560368519467	2
0	2838	1586.664695634868	3
0	2843	1588.123035378438	1
0	2846	1591.305173546991	1
0	2849	1593.699837911513	1
0	2851	1593.990211630906	2
0	2855	1595.522295502596	1
0	2858	1595.979148823408	1
0	2861	1598.676759319634	1
0	2864	1599.749332500275	1
0	2872	1606.771226774356	1
0	2874	1607.182016935995	2
0	2877	1608.012879685183	3
0	2879	1608.071539396602	4
0	2883	1609.381192347078	3
0	2886	1612.04690649279	3
0	2891	1616.568164263083	1
0	2897	1620.077107868914	1
0	2899	1620.500409463086	2
0	2906	1626.307996572645	1
0	2908	1626.505697037656	2
0	2912	1628.107137426378	1
0	2915	1629.04499185205	1
0	2920	1630.239580225124	1
0	2922	1631.694921745395	2
0	2926	1636.605521658913	3
0	2930	1640.765917886699	4
0	2932	1642.841253447157	5
0	2934	1643.513335729598	6
0	2937	1645.680699677299	7
0	2941	1647.36832135072	8
0	2943	1649.455623811647	9
0	2947	1652.750829826372	10
0	2950	1654.213740940319	11
0	2952	1655.34974810522	12
0	2960	1662.002388949018	13
0	2962	1662.507050893379	14
0	2964	1662.56694412216	15
0	2966	1663.488798455853	16
0	2968	1664.604374030487	17
0	2972	1669.52108420959	18
0	2978	1672.77654600744	16
0	2982	1675.509932989346	15
0	2985	1675.901715432313	15
0	2988	1677.147343015497	15
0	2997	1681.500546761769	9
0	3000	1681.932682338415	9
0	3003	1684.349561570267	9
0	3005	1684.481878781786	10
0	3013	1693.12391273754	5
0	3015	1693.418682239011	6
0	3020	1696.638204890967	4
0	3023	1698.755713281396	4
0	3029	1700.917401027837	3
0	3031	1701.563275615567	4
0	3033	1702.265840678411	5
0	3035	1703.024310579384	6
0	3037	1703.057203550126	7
0	3039	1703.662329673567	8
0	3041	1703.911438006993	9
0	3043	1704.826912673892	10
0	3045	1708.602674849129	11
0	3047	1708.644678770203	12
0	3049	1708.673156136737	13
0	3051	1710.552836064809	14
0	3053	1713.558734250224	15
0	3055	1717.319115427006	16
0	3057	1718.558295448464	17
0	3060	1721.200016320034	18
0	3069	1727.445667440049	16
0	3071	1730.245124066524	17
0	3073	1730.286706923473	18
0	3075	1731.479862164675	19
0	3077	1731.89095529695	20
0	3080	1735.04533271734	21
0	3082	1737.200952018067	22
0	3086	1738.917082655518	23
0	3088	1739.363825609722	24
0	3091	1741.8564264426	25
0	3093	1746.658998003562	26
0	3095	1746.705812010556	27
0	3098	1750.540165122035	28
0	3107	1753.985576300846	22
0	3112	1758.982747277005	22
0	3115	1760.354950518812	23
0	3117	1762.414316680199	24
0	3119	1762.470877200784	25
0	3121	1762.581299804679	26
0	3130	1766.609065241088	25
0	3134	1768.251401541747	26
0	3139	1772.181618597248	27
0	3143	1774.137012414929	28
0	3145	1774.921586626059	29
0	3147	1775.391638615515	30
0	3151	1780.537300456208	31
0	3153	1781.249317411968	32
0	3155	1782.893080976087	33
0	3160	1787.007393224564	34
0	3162	1787.132026975641	35
0	3164	1787.910744325246	36
0	3166	1791.318571858729	37
0	3168	1792.513443675563	38
0	3170	1792.557954536313	39
0	3172	1795.323470428267	40
0	3179	1803.492327002717	41
0	3181	1804.105956252998	42
0	3183	1807.320759595686	43
0	3185	1808.254835084201	44
0	3187	1808.453044997196	45
0	3189	1811.559691497395	46
0	3194	1813.571631021782	47
0	3196	1814.04312470696	48
0	3202	1817.366258864815	49
0	3204	1821.155018498792	50
0	3206	1823.218597601931	51
0	3210	1825.400875705838	52
0	3214	1828.998062083797	53
0	3216	1830.656930053804	54
0	3218	1831.810457411606	55
0	3221	1833.763739334489	56
0	3227	1842.478728051183	57
0	3230	1843.858526300541	58
0	3232	1843.981507156088	59
0	3235	1844.484281988887	59
0	3237	1844.669868664877	60
0	3239	1845.406181260874	61
0	3242	1846.610199817816	61
0	3244	1847.104755338529	62
0	3246	1847.152097570652	63
0	3248	1847.191236782299	64
0	3258	1852.998116837115	60
0	3261	1853.972732394757	60
0	3273	1861.705228675416	51
0	3281	1867.234155311347	49
0	3283	1867.691453296627	50
0	3292	1871.663697724981	44
0	3297	1872.851657792359	44
0	3299	1873.488815875582	45
0	3303	1874.768137572245	46
0	3308	1878.401184929036	47
0	3312	1882.661731771088	48
0	3315	1886.803771159336	49
0	3318	1888.658560828617	50
0	3320	1889.075275625128	51
0	3322	1893.583626225638	52
0	3325	1898.482458014839	53
0	3327	1898.687296931574	54
0	3329	1898.809487318617	55
0	3337	1901.45877461769	50
0	3341	1902.292352429364	49
0	3348	1905.263372583412	48
0	3354	1906.271634857321	45
0	3356	1906.3191673145	46
0	3362	1909.36639735585	45
0	3370	1912.871345651095	41
0	3372	1913.093676678914	42
0	3374	1913.103709968756	43
0	3379	1916.083479230587	41
0	3383	1916.710073376418	42
0	3385	1917.163650017921	43
0	3387	1917.957573639057	44
0	3391	1921.879638001512	44
0	3395	1923.611234113077	43
0	3398	1925.512016382958	43
0	3403	1928.721912176541	41
0	3406	1929.748993996865	41
0	3411	1932.432815248946	39
0	3418	1936.513879962847	35
0	3422	1937.867222815379	34
0	3427	1942.670182073581	32
0	3441	1948.508856829588	24
0	3448	1950.36831548221	20
0	3454	1953.3063125116	17
0	3457	1954.764448581476	17
0	3462	1956.648757734946	17
0	3468	1960.139772974065	15
0	3472	1961.386125415023	14
0	3476	1963.173485488922	13
0	3480	1963.820831276432	12
0	3485	1968.359015486634	10
0	3492	1970.372205350632	8
0	3498	1973.482062148245	6
0	3501	1974.618158799465	6
0	3506	1978.021070777053	4
0	3513	1982.492060405733	4
0	3515	1983.092281521866	5
0	3517	1983.621087785171	6
0	3519	1984.834153201114	7
0	3521	1984.994328281979	8
0	3523	1987.03227751835	9
0	3525	1988.430355494345	10
0	3527	1988.969683121478	11
0	3531	1995.881515794603	12
1	0	0	0
1	2	0.637266456967	0
1	3	0.87812807747	0
1	5	1.569442812138	0
1	6	2.477128353987	0
1	8	2.539381141118	0
1	10	3.899592818707	1
1	12	4.706343342134	2
1	14	4.985810899169	3
1	18	6.560166510627	3
1	19	7.208169400083	2
1	20	7.604791551397	1
1	21	8.387585849767	0
1	23	12.254389378489	0
1	24	12.52383207141	0
1	26	12.99981049913	0
1	28	14.182096634836	1
1	29	14.4374385276	1
1	30	16.906087408158	0
1	32	17.003926713134	0
1	33	18.94902320782	0
1	35	19.88617922415	0
1	36	20.248945314883	0
1	41	22.010687852002	0
1	42	22.449815334957	0
1	44	23.699114704977	0
1	46	25.190440150985	1
1	47	25.322263614896	1
1	48	26.301775176153	0
1	50	28.389116867798	0
1	52	28.394448173042	1
1	54	29.795349573169	2
1	56	29.853031661612	3
1	57	33.040898691545	3
1	61	33.384233658855	3
1	63	33.582533286584	4
1	65	33.684234015787	5
1	68	36.125071565099	6
1	69	36.586698774714	6
1	70	38.15886382084	5
1	72	38.264688541159	5
1	74	38.328922253163	6
1	76	39.18927869343	7
1	77	39.522432958934	7
1	79	40.504249297192	7
1	81	40.943840929949	8
1	83	41.008215951391	9
1	85	41.170374438778	10
1	87	41.248075796381	11
1	88	42.012404379806	11
1	89	42.938902935302	10
1	90	43.996165561515	9
1	92	44.309052514181	9
1	93	44.369001143048	9
1	94	44.697729233105	8
1	95	45.075207544474	7
1	96	46.049398747673	6
1	97	46.870248517925	5
1	98	47.048332490218	4
1	100	47.461107625193	4
1	101	47.723170256584	4
1	103	48.466685498055	4
1	104	49.169780042539	4
1	108	51.604144620053	4
1	110	53.791819501795	5
1	112	55.535034085136	6
1	114	55.679902840338	7
1	116	56.658931780664	8
1	118	56.9512907446	9
1	120	57.090209848608	10
1	122	57.35503296233	11
1	124	57.941958303893	12
1	126	58.434051358291	13
1	128	60.507472372788	14
1	130	63.966406484816	15
1	132	67.384813356233	16
1	134	71.109916748682	16
1	135	71.902935337521	15
1	137	72.074066635556	15
1	138	72.104588792699	15
1	143	72.378709759513	15
1	145	72.780406277515	16
1	146	72.802732281677	16
1	147	73.88757298067	15
1	148	75.670995707599	14
1	150	76.114833877723	14
1	151	76.200553970648	14
1	152	76.458381661711	13
1	154	77.185363963369	13
1	155	78.147174742948	13
1	156	80.925651529076	12
1	157	81.136766769127	11
1	161	82.287332361691	11
1	165	85.250930647024	12
1	170	88.355492538506	13
1	172	88.796286961003	14
1	174	92.756881430403	15
1	176	93.54466091888	16
1	179	95.389763209742	17
1	184	97.155563749372	18
1	191	101.231649448565	19
1	193	101.740534832071	20
1	195	102.147418890353	21
1	201	107.686098246716	22
1	205	108.884618886827	23
1	207	108.989994210696	24
1	210	111.380660794174	25
1	214	118.455523801562	26
1	216	119.086447653263	27
1	220	126.476702204627	28
1	222	128.129781255059	29
1	226	133.032332709173	30
1	228	135.471591105646	31
1	230	135.680021256334	32
1	232	137.602732732085	33
1	234	139.858198189391	34
1	236	140.726187998094	35
1	238	141.250490545638	36
1	240	141.418339980207	37
1	244	143.44941540142	38
1	246	145.199507038979	39
1	250	148.090458861777	40
1	252	148.253756936787	41
1	254	150.935281031487	42
1	256	151.186427586014	43
1	258	151.420982692086	44
1	260	151.843737508506	45
1	266	160.947492788725	46
1	268	161.243751340029	47
1	270	161.750336606386	48
1	272	161.802722796084	49
1	274	162.465695305023	50
1	277	164.798754900516	50
1	279	165.210308121922	50
1	280	165.719756610877	50
1	281	166.385334402105	49
1	282	166.489952251565	48
1	284	167.4350105999	48
1	285	168.312694655742	48
1	287	170.146440417652	48
1	288	170.731512011966	48
1	289	170.919234378215	47
1	290	172.559489447401	46
1	294	173.936635603167	46
1	296	175.750542295974	47
1	298	177.657735543673	48
1	300	177.90474373584	49
1	302	179.662244606658	49
1	303	179.796610082968	48
1	305	179.828343979859	48
1	306	180.066803633755	48
1	308	180.212145803071	48
1	309	181.670011179602	48
1	313	185.335763963937	47
1	314	186.38280796978	46
1	315	186.43409445137	45
1	316	187.496713278379	44
1	317	188.67188268783	43
1	321	190.323325803218	43
1	325	193.120062725307	44
1	327	193.248862382332	45
1	329	195.195924901352	46
1	331	195.518159910146	47
1	333	195.534805832451	48
1	335	196.043362764148	49
1	337	196.528644321893	50
1	339	197.392362199111	51
1	342	198.612658384856	52
1	344	198.628551609569	53
1	346	199.598074072882	53
1	347	200.077230778658	52
1	351	206.348745257151	51
1	352	208.736636992476	50
1	353	209.222682795925	49
1	357	210.40073660695	48
1	358	210.541390047929	47
1	360	210.864058699669	47
1	362	211.530218031846	48
1	364	211.949612927224	49
1	365	212.428459021753	49
1	369	213.778720141291	48
1	373	222.680111220032	47
1	375	223.008081081895	47
1	376	223.051691967442	47
1	377	223.379990735442	46
1	378	224.810047287266	45
1	379	225.022540571106	44
1	381	225.671360317954	44
1	382	225.763037703861	44
1	383	225.900616161382	43
1	388	227.625914052843	43
1	390	228.871874153559	44
1	391	228.944172079002	44
1	392	229.508843952847	43
1	394	229.618323957439	43
1	396	229.714353305934	44
1	398	229.918201043791	45
1	399	230.754811454536	45
1	400	231.187880127012	44
1	401	231.332172452537	43
1	403	232.781894729626	43
1	405	233.43545350083	44
1	407	233.741578303653	45
1	411	233.998690385853	46
1	413	234.754311662384	47
1	415	235.427738245828	48
1	418	237.237532421345	49
1	419	238.207866947468	49
1	420	238.550561136219	48
1	421	239.031823847774	47
1	422	239.632392666238	46
1	423	239.853775298766	45
1	424	240.970137513158	44
1	425	241.41210902319	43
1	427	241.462377798854	43
1	429	241.794682936792	44
1	434	244.203406814999	45
1	435	244.774944109182	45
1	436	248.179479361507	44
1	438	248.241784213614	44
1	440	249.449229816351	45
1	442	249.766796089789	46
1	443	250.305859141363	46
1	444	250.711789832046	45
1	445	250.797793106085	44
1	447	252.204870601346	44
1	448	252.667530731917	44
1	449	254.774116227562	43
1	450	254.878380423884	42
1	451	255.404257386071	41
1	452	255.515714539655	40
1	453	255.562520790836	39
1	454	255.663074581527	38
1	455	255.903324593292	37
1	457	256.050952803304	37
1	458	256.110408792062	37
1	459	257.58782665224	36
1	460	257.96065887879	35
1	462	258.246072361476	35
1	463	258.795213776872	35
1	465	258.982441186805	35
1	466	261.455266572772	35
1	468	262.357458090747	35
1	469	263.032670456519	35
1	470	263.760446842524	34
1	472	264.173579339505	34
1	473	264.202082362373	34
1	475	265.426833176368	34
1	477	267.655717986895	35
1	479	267.91196760766	36
1	480	269.712573847888	36
1	481	270.097672668419	35
1	483	270.730179880149	35
1	484	270.997034717272	35
1	485	271.769413054291	34
1	487	272.234304112814	34
1	489	273.002123095082	35
1	490	273.732409562025	35
1	491	274.096983023343	34
1	493	274.574996818348	34
1	495	274.70930298135	35
1	497	275.118671564028	36
1	499	276.856638162736	37
1	503	281.523959184807	37
1	508	284.048669334371	37
1	510	284.657093830453	38
1	512	285.360421888185	39
1	513	286.38457844139	39
1	515	286.538885882655	39
1	517	286.882219884374	40
1	518	287.397019136485	40
1	519	289.474272770324	39
1	520	290.263085028862	38
1	522	290.62344197024	38
1	523	290.824131342597	38
1	524	291.232764857114	37
1	526	291.29626737399	37
1	528	291.574617279987	38
1	529	292.422148821182	38
1	531	292.915360860941	38
1	535	295.124794778116	39
1	537	295.515470422601	40
1	539	296.455015374357	40
1	541	297.075788722681	40
1	545	298.367739854891	40
1	546	298.407847782952	39
1	547	298.882555740004	38
1	548	298.981397096809	37
1	550	299.507472723374	37
1	552	299.832814125402	38
1	553	302.119456068418	38
1	555	302.120498169347	38
1	556	303.709411051892	38
1	557	303.900365114962	37
1	558	304.285847079734	36
1	559	304.417431531422	35
1	560	305.702254660211	34
1	561	305.717329999073	33
1	562	306.31446787639	32
1	564	306.863470110493	32
1	566	308.59905261795	33
1	567	310.829968446462	33
1	569	311.039553675585	33
1	570	311.810028555877	33
1	571	312.786124827103	32
1	573	313.071476065032	32
1	574	313.142504405199	32
1	576	313.739735900639	32
1	578	313.94368609453	33
1	579	314.789999533739	33
1	580	315.245856662995	32
1	582	315.641873122966	32
1	583	315.899411659422	32
1	585	316.116881892103	32
1	586	316.864752278246	32
1	590	318.270060818632	32
1	592	321.975575643137	33
1	594	323.258989666203	34
1	596	324.719115873219	34
1	597	324.927074232178	33
1	598	326.815327226507	32
1	599	327.37307717307	31
1	600	328.262517621901	30
1	602	329.1397056777	30
1	603	329.312137124328	30
1	604	330.683735298453	29
1	605	333.078389366498	28
1	606	333.089745242121	27
1	608	333.349382645849	27
1	609	334.410759311993	27
1	610	335.373460446359	26
1	611	335.399426548322	25
1	613	335.408723748378	25
1	615	335.509449910046	26
1	616	335.587692817076	26
1	617	335.62131067109	25
1	618	336.824286870149	24
1	620	338.543378566905	24
1	621	339.322141865612	24
1	622	340.719882132945	23
1	623	341.137561283023	22
1	624	341.330721144258	21
1	625	341.798082434652	20
1	626	341.95271248621	19
1	627	342.169713498529	18
1	628	342.500842959052	17
1	630	342.82130404688	17
1	631	344.791341353719	17
1	632	345.070122066691	16
1	634	345.519576199714	16
1	635	346.59662920198	16
1	636	346.753814664317	15
1	637	346.798355424287	14
1	638	346.952916522493	13
1	640	347.204761215699	13
1	642	347.775600885566	14
1	643	348.361575246927	14
1	645	348.818866999542	14
1	646	348.877878531711	14
1	647	348.886570309993	13
1	648	348.908231261563	12
1	652	349.063090950685	12
1	655	349.387564314814	13
1	657	350.849924232725	14
1	658	350.897609270537	14
1	659	351.588796897504	13
1	660	352.211767953202	12
1	662	354.676234555581	12
1	664	354.886712978318	13
1	665	355.906929651346	13
1	666	356.280188483387	12
1	667	357.51362446835	11
1	668	359.274059326453	10
1	673	361.089743178901	10
1	674	362.059099015822	10
1	675	362.552375502954	9
1	676	362.624789192456	8
1	677	362.815646909594	7
1	678	363.576404646245	6
1	679	363.649795143077	5
1	681	363.710564590091	5
1	682	365.463841176356	5
1	683	366.289270765731	4
1	685	368.479892152232	4
1	686	368.874446797167	4
1	687	370.506352736735	3
1	689	371.301215132148	3
1	690	372.115801994139	3
1	691	372.759221681923	2
1	692	373.088359476381	1
1	693	373.362330921052	0
1	695	373.567161193936	0
1	699	375.130366858611	1
1	704	376.240152845637	2
1	707	376.804450202694	3
1	708	378.696529329489	3
1	712	380.475102985355	3
1	714	381.742421004021	4
1	716	382.748709085475	4
1	718	383.291867804805	4
1	719	384.074829447124	4
1	720	384.40792155584	3
1	722	385.238933346491	3
1	723	385.428992562823	3
1	724	385.437594801293	2
1	725	385.898197695817	1
1	727	386.94908669954	1
1	728	387.134338939607	1
1	729	388.309504922585	0
1	733	389.922912443404	0
1	735	390.52060108706	1
1	737	391.111789658536	2
1	739	391.793658509346	3
1	741	394.960454670308	4
1	743	396.167554917546	4
1	747	396.829071419914	4
1	749	397.278395512592	5
1	751	400.908318972601	6
1	753	401.296465923453	7
1	755	402.1352304001	7
1	757	402.759168667349	7
1	758	404.83647168962	7
1	759	405.097578629451	6
1	761	409.539558515125	6
1	763	411.38110672227	7
1	765	411.473733860772	8
1	766	411.588936020761	8
1	768	412.377365146011	8
1	769	413.53467921019	8
1	770	413.832304377052	7
1	772	414.157571078851	7
1	773	414.167547718314	7
1	775	414.329870407273	7
1	776	414.607427737019	7
1	778	414.957599755652	7
1	780	415.970738173458	8
1	782	416.247886765818	9
1	783	416.902224922723	9
1	785	417.241894391888	9
1	789	417.694693566074	10
1	791	418.738656602184	11
1	793	419.335569395133	11
1	797	422.995626714804	10
1	798	423.865517370882	9
1	799	425.46833476746	8
1	800	426.333617829369	7
1	801	427.355955990851	6
1	802	427.587627851008	5
1	803	427.629920269614	4
1	804	428.326205541526	3
1	806	428.514081239928	3
1	807	428.548692439629	3
1	808	428.842710990371	2
1	810	429.011044966917	2
1	814	434.369435481513	3
1	817	435.224938414432	4
1	818	435.272180487211	4
1	819	435.646116121195	3
1	821	435.67405730773	3
1	822	436.305445897602	3
1	823	437.137402023123	2
1	824	437.15726041564	1
1	825	438.253331422431	0
1	827	439.838958702813	0
1	828	439.986657715953	0
1	830	449.331537252406	0
1	831	450.419017636262	0
1	833	454.281135722198	0
1	834	455.188372455153	0
1	836	455.846773315528	0
1	837	456.592686860925	0
1	839	457.616441328881	0
1	841	458.851939678581	1
1	842	459.03995677234	1
1	844	459.723446418367	1
1	846	460.35061007641	2
1	847	460.427313843393	2
1	849	460.76521166398	2
1	850	460.809728877386	2
1	851	462.050953120894	1
1	852	462.395956251137	0
1	854	463.499437144547	0
1	856	464.692538312607	1
1	857	464.837579555359	1
1	859	465.449586833591	1
1	860	465.659376063035	1
1	861	466.352897180841	0
1	863	466.588958824362	0
1	865	467.428955920777	1
1	867	470.888702474287	2
1	868	470.948156436148	2
1	869	473.286535053539	1
1	870	474.211552780166	0
1	872	475.50292531901	0
1	874	476.521017439303	1
1	875	477.342052329458	1
1	881	485.845594076577	1
1	883	486.17990444109	2
1	886	491.807707541355	3
1	888	493.088550856931	3
1	889	494.198277044085	2
1	890	494.478700206091	1
1	891	494.893487205386	0
1	893	495.004955346578	0
1	894	495.50608382314	0
1	896	498.872751365862	0
1	897	499.692339621773	0
1	899	499.798438502065	0
1	903	501.400088567105	1
1	905	501.92709524516	2
1	908	502.769658007557	3
1	910	502.814508213713	4
1	911	503.334516496923	4
1	913	503.764832321801	4
1	915	503.982560702017	5
1	916	505.925132709095	5
1	917	506.311814840898	4
1	918	506.495657988187	3
1	922	507.122504397592	3
1	924	507.938502210717	4
1	926	508.682230399101	5
1	928	508.967272287202	6
1	932	512.402761539171	7
1	937	515.525154006865	8
1	948	525.687897100624	9
1	950	525.690568910856	10
1	952	528.259186661335	11
1	954	529.665952720941	12
1	956	530.51992742743	13
1	959	531.061432515015	14
1	961	532.572272055484	15
1	963	535.203915124847	16
1	965	535.462042031983	17
1	967	535.471445561199	18
1	970	537.733633961388	19
1	972	539.048070036124	20
1	975	539.979556492147	21
1	978	542.648461709178	22
1	985	554.149975446063	23
1	987	554.772422467212	24
1	989	557.42813829637	25
1	991	558.98867557131	26
1	993	560.865177369891	27
1	995	561.529037156007	28
1	997	561.985582997162	29
1	999	562.167916050908	30
1	1001	563.966610051281	31
1	1007	565.523109706845	32
1	1009	568.244289630088	33
1	1011	569.209711681684	34
1	1013	571.002285009738	35
1	1016	572.625610188745	36
1	1022	574.729685153912	37
1	1026	576.028297340158	38
1	1028	576.301066589303	39
1	1030	582.153479871767	40
1	1032	584.033411356435	41
1	1034	585.866157382805	42
1	1042	590.007429372653	43
1	1045	591.35893669412	44
1	1048	595.423249891288	45
1	1050	595.509999570212	46
1	1052	596.601824278782	47
1	1055	597.327458573814	48
1	1057	601.994457335418	49
1	1059	603.425799566397	50
1	1061	604.656104093379	51
1	1063	605.923968117263	52
1	1065	605.981466557115	53
1	1067	606.472394337874	54
1	1069	610.547818416007	55
1	1072	613.297435865516	56
1	1075	614.640875246183	57
1	1077	615.46497674063	58
1	1079	616.514565918086	59
1	1081	619.850977108756	60
1	1083	621.221798142203	61
1	1088	629.121657041995	62
1	1090	634.545468890947	63
1	1092	635.138187942201	64
1	1094	635.414599829327	65
1	1096	636.766222968866	66
1	1098	638.307044516785	67
1	1100	639.281643116633	68
1	1102	640.581151089152	68
1	1103	640.586130720852	67
1	1104	640.628158011533	66
1	1105	643.840416646563	65
1	1106	645.506391249092	64
1	1107	645.553828202237	63
1	1109	646.806640659149	63
1	1110	647.098068486593	63
1	1112	647.114172834217	63
1	1113	647.60019932836	63
1	1115	648.470989564594	63
1	1119	653.172604497818	63
1	1124	654.695992438459	63
1	1125	656.269539961967	63
1	1127	656.503177481292	63
1	1128	656.591139285619	63
1	1129	656.675363659279	62
1	1131	657.454477644727	62
1	1133	658.924738078021	63
1	1135	658.998279470789	64
1	1136	659.388725637746	64
1	1137	660.260281073626	63
1	1141	660.947033405728	63
1	1143	662.404572510059	64
1	1145	663.981330674419	65
1	1147	666.849474044405	65
1	1151	670.411786633714	64
1	1153	670.743168283914	64
1	1155	671.780736903221	65
1	1156	672.107719406119	65
1	1160	673.530519667938	65
1	1162	674.371950231113	66
1	1164	677.689670320365	67
1	1166	679.676283925135	67
1	1167	679.680857635497	66
1	1168	679.769033035545	65
1	1169	679.9776879732	64
1	1173	680.955089963751	64
1	1175	683.292368502789	64
1	1177	685.317721232371	64
1	1181	686.157965370379	65
1	1184	688.711484636189	66
1	1186	690.195722544443	67
1	1187	691.488835331744	67
1	1188	691.808776232377	66
1	1189	692.711245433292	65
1	1191	692.854397773078	65
1	1192	692.915237117668	65
1	1193	695.814999203183	64
1	1194	696.436052956727	63
1	1195	696.602676389527	62
1	1196	697.248202618461	61
1	1197	697.423317462232	60
1	1198	697.745725088276	59
1	1199	698.831680912902	58
1	1200	700.048438443087	57
1	1202	700.776362536263	57
1	1203	700.939825263833	57
1	1207	702.43547384324	57
1	1209	706.435892069422	58
1	1211	709.166831020932	59
1	1213	710.253291802024	60
1	1215	710.492523177382	60
1	1217	710.641694166779	60
1	1219	710.65451542532	61
1	1221	710.910350884265	62
1	1222	711.181042721176	62
1	1223	712.023114746354	61
1	1224	712.314741888492	60
1	1226	712.94547759756	60
1	1228	713.677780204309	61
1	1230	715.561509097461	62
1	1231	717.680832889813	62
1	1232	718.803248654889	61
1	1233	720.302255873397	60
1	1234	720.622175500571	59
1	1236	721.457098674192	59
1	1238	721.963852591954	60
1	1240	722.244288297103	61
1	1241	723.085998135518	61
1	1243	723.147675661717	61
1	1245	724.606532078747	62
1	1246	725.392662826111	62
1	1248	726.507878041262	62
1	1249	727.071364774652	62
1	1250	727.400677532954	61
1	1251	727.511064815324	60
1	1252	727.935549032726	59
1	1253	728.018214944448	58
1	1255	728.025101896735	58
1	1259	731.894895536558	59
1	1262	733.990429302408	60
1	1263	734.914843307389	60
1	1264	734.97765470421	59
1	1266	735.909300661542	59
1	1267	736.353266219087	59
1	1269	737.284577566732	59
1	1270	738.122118709727	59
1	1272	739.318747199487	59
1	1274	739.345251920229	60
1	1275	739.719228958347	60
1	1276	739.857480918683	59
1	1277	740.06058290898	58
1	1278	741.058578022796	57
1	1280	742.168059591635	57
1	1281	742.179782795019	57
1	1282	742.394414959923	56
1	1283	743.956210543414	55
1	1285	746.05891814443	55
1	1287	746.112965868112	56
1	1289	746.462722788924	57
1	1290	746.682128153669	57
1	1291	746.703425846274	56
1	1292	747.082318881019	55
1	1294	747.163009179917	55
1	1295	747.925213426133	55
1	1296	748.728665224335	54
1	1297	749.165582432284	53
1	1298	749.931135537066	52
1	1299	751.355309644954	51
1	1300	751.638225694995	50
1	1301	751.790145934127	49
1	1303	752.564849419909	49
1	1304	753.074775259736	49
1	1306	753.866774639792	49
1	1307	754.122691282999	49
1	1313	757.638084276517	49
1	1319	759.804276185779	49
1	1320	759.878395991889	48
1	1321	761.288139227651	47
1	1322	761.844864831088	46
1	1323	761.98535147201	45
1	1324	762.151445466716	44
1	1326	763.419328658834	44
1	1328	763.884739352572	45
1	1329	763.959158928791	45
1	1330	764.552468201351	44
1	1331	764.649235459785	43
1	1333	765.474578661549	43
1	1334	767.403794278263	43
1	1335	767.544337050325	42
1	1336	767.733710333882	41
1	1338	767.810743920013	41
1	1340	768.07497556451	42
1	1342	768.320631051621	43
1	1343	768.411072891615	43
1	1345	768.983057299735	43
1	1347	769.332320421302	44
1	1349	769.387732854348	45
1	1350	769.805994413668	45
1	1351	769.954217608232	44
1	1352	770.162859564486	43
1	1353	770.887038326266	42
1	1355	771.09014025315	42
1	1357	771.352571910731	43
1	1358	771.499013208089	43
1	1359	772.332521751269	42
1	1360	772.704446796143	41
1	1361	773.797925239168	40
1	1362	774.678164549095	39
1	1364	775.966521776616	39
1	1369	778.548857820926	40
1	1370	780.356896692132	40
1	1371	780.475387568706	39
1	1372	781.083559867195	38
1	1373	781.172075172966	37
1	1374	781.200725201943	36
1	1375	782.878780020407	35
1	1376	783.275455714418	34
1	1377	783.312909698477	33
1	1378	783.492192131421	32
1	1380	784.114278259103	32
1	1381	784.605504937298	32
1	1382	785.067502760891	31
1	1386	785.599644021675	31
1	1391	791.258171513176	32
1	1397	793.912491309998	33
1	1399	794.722062515762	34
1	1401	795.074048949547	35
1	1403	796.650387804496	36
1	1406	800.394220865317	37
1	1411	803.711262577844	38
1	1414	805.159316641449	39
1	1416	806.26865119868	39
1	1417	806.59148880845	38
1	1418	806.622668849579	37
1	1419	807.800317781877	36
1	1420	808.168907410419	35
1	1421	808.675035561211	34
1	1422	808.698871265119	33
1	1423	809.067431131426	32
1	1424	810.289716849577	31
1	1425	810.339279667197	30
1	1426	811.370049066049	29
1	1427	811.894842144881	28
1	1428	812.781541907642	27
1	1430	813.730667903642	27
1	1431	814.436564570429	27
1	1432	814.518706930854	26
1	1433	814.758890657034	25
1	1434	814.759410049632	24
1	1435	814.81872672945	23
1	1436	815.923956692011	22
1	1438	816.446491188288	22
1	1439	817.12436333781	22
1	1440	817.521077334296	21
1	1442	819.571037708212	21
1	1443	820.068702447892	21
1	1445	820.55923101888	21
1	1446	820.922476168711	21
1	1451	823.502794364416	21
1	1453	824.468732741871	22
1	1454	824.489800206348	22
1	1456	824.836167835668	22
1	1458	824.895776837117	23
1	1459	824.974111807695	23
1	1460	826.579128290464	22
1	1462	827.114044701829	22
1	1464	827.145416593343	23
1	1466	827.605763581418	24
1	1467	827.940166156909	24
1	1468	830.112665651825	23
1	1470	830.540943629084	23
1	1475	832.95744683633	24
1	1476	833.6299930038	24
1	1477	834.149810060092	23
1	1479	834.290029832091	23
1	1480	835.832693900719	23
1	1482	836.571468299963	23
1	1483	836.590042153522	23
1	1485	836.620137037296	23
1	1486	837.02015879435	23
1	1488	837.1487111889	23
1	1489	838.781430696615	23
1	1490	839.568301362189	22
1	1491	840.319688785315	21
1	1492	841.132948186094	20
1	1494	841.783062928874	20
1	1496	841.907490933475	21
1	1497	842.556583858841	21
1	1498	843.314592682826	20
1	1499	843.772807538344	19
1	1500	844.672182751461	18
1	1502	845.206170391062	18
1	1504	845.45821980323	19
1	1506	845.614616975377	20
1	1507	846.738847606567	20
1	1508	846.830680266804	19
1	1509	848.341147132902	18
1	1510	848.806503514965	17
1	1511	849.479845871387	16
1	1512	850.371747042022	15
1	1513	851.111786657817	14
1	1514	851.363934433991	13
1	1515	851.910559904638	12
1	1516	852.22813605384	11
1	1517	852.846975094726	10
1	1518	853.583764116541	9
1	1519	853.734918078176	8
1	1521	855.758146932743	8
1	1522	855.962657975345	8
1	1523	856.112051728495	7
1	1525	856.582693269258	7
1	1527	857.247277680606	8
1	1529	859.813148874913	9
1	1531	860.900700561309	10
1	1532	862.078642475493	10
1	1533	862.307288286794	9
1	1535	863.651941407843	9
1	1537	864.024180040938	10
1	1539	865.492218871764	11
1	1541	865.769707229448	12
1	1542	866.267894029528	12
1	1543	866.386372896887	11
1	1544	866.723671624951	10
1	1548	869.573032993766	10
1	1550	871.904225889429	10
1	1551	873.387787306753	9
1	1553	874.275422960665	9
1	1555	874.332530384616	10
1	1556	874.515113710936	10
1	1557	876.051189492572	9
1	1558	878.021341212453	8
1	1559	878.612425870618	7
1	1560	878.639420678627	6
1	1566	879.304262536579	6
1	1569	881.308180702025	7
1	1571	882.897651677413	8
1	1573	883.882144290612	9
1	1575	885.67836811834	10
1	1577	885.857424258186	11
1	1579	887.06908581543	12
1	1581	889.13120632858	13
1	1583	892.056107710524	13
1	1584	892.336676676846	12
1	1585	894.516783512948	11
1	1587	896.09091658838	11
1	1588	896.22528766166	11
1	1589	896.77475645116	10
1	1590	897.029787688707	9
1	1591	898.227525563554	8
1	1592	898.611321314439	7
1	1594	898.746573586247	7
1	1595	899.617644155556	7
1	1596	899.631215701968	6
1	1598	900.126063221117	6
1	1599	901.055404633494	6
1	1603	901.563374277068	6
1	1605	901.989882431768	6
1	1606	902.806708201327	5
1	1611	905.372423631456	5
1	1613	905.920213685036	6
1	1615	906.004389126489	7
1	1617	906.463444978014	8
1	1618	907.026198309744	8
1	1619	907.587113418023	7
1	1620	908.677648481987	6
1	1621	909.253236333656	5
1	1622	910.676613403631	4
1	1623	910.834040483099	3
1	1624	912.089449663096	2
1	1626	912.943570524808	2
1	1627	912.993346432995	2
1	1629	913.383812788316	2
1	1634	916.11260088297	3
1	1639	918.972891752901	4
1	1641	919.420376844908	5
1	1642	919.546248184088	5
1	1643	919.699922398667	4
1	1644	921.318857389351	3
1	1645	922.544023972931	2
1	1651	924.450942668557	2
1	1653	926.58858278903	3
1	1655	927.380206512299	4
1	1657	928.445173090114	5
1	1659	928.709696916275	6
1	1662	931.34740026868	6
1	1663	933.069894812997	5
1	1664	933.207685090813	4
1	1665	934.086258562166	3
1	1666	934.255792344944	2
1	1668	935.409455906188	2
1	1669	936.490949866133	2
1	1671	937.24544099746	2
1	1673	937.759966421243	3
1	1674	938.029113299579	3
1	1675	938.03205832018	2
1	1676	938.050189914517	1
1	1681	939.26870851859	1
1	1683	942.836629132496	2
1	1684	943.46275463667	2
1	1686	943.891654205958	2
1	1688	943.941019864252	3
1	1690	943.979855626732	4
1	1691	943.983112669251	4
1	1692	944.072175450259	3
1	1694	944.445860748429	3
1	1695	944.513041029454	3
1	1697	944.566592826502	3
1	1698	944.799622550727	3
1	1699	947.237343670465	2
1	1701	947.340993104019	2
1	1702	948.078696879904	2
1	1704	948.184267348193	2
1	1705	948.484510452885	2
1	1706	948.95730875726	1
1	1707	949.057849063049	0
1	1709	951.775387841662	0
1	1710	953.680765718673	0
1	1712	956.660391766933	0
1	1713	956.668102892921	0
1	1715	962.15318550756	0
1	1716	963.160123256233	0
1	1718	963.751173248964	0
1	1720	963.923141266314	1
1	1722	964.197482603347	2
1	1724	964.478209817252	3
1	1725	964.954916622528	3
1	1726	966.067643453735	2
1	1727	967.204075926479	1
1	1728	968.444428366504	0
1	1730	970.714948003083	0
1	1731	970.78186987729	0
1	1733	976.233277812872	0
1	1735	976.322549715751	1
1	1737	977.364449468176	2
1	1738	978.10397364642	2
1	1740	979.032137302006	2
1	1741	980.901512512621	2
1	1743	981.742112318774	2
1	1745	982.506524166483	3
1	1746	982.54627086356	3
1	1747	982.638652373565	2
1	1748	982.796093284157	1
1	1749	983.971100862888	0
1	1756	989.207377943569	0
1	1758	989.896875101465	1
1	1760	993.727205051605	2
1	1764	994.704896284095	3
1	1766	995.534784739013	4
1	1768	996.845639331854	5
1	1770	1000.22260442459	6
1	1772	1000.901406545678	7
1	1774	1001.241493636582	8
1	1776	1001.388951081046	9
1	1781	1004.14995554961	10
1	1784	1007.372732590022	11
1	1786	1008.654249588987	11
1	1788	1010.810534798382	11
1	1790	1011.133685368628	12
1	1791	1011.693171218168	12
1	1792	1012.226155226634	11
1	1794	1012.272626629842	11
1	1796	1015.07554509593	12
1	1797	1016.231649893622	12
1	1799	1016.326021675456	12
1	1801	1017.245406735928	13
1	1802	1017.360039636572	13
1	1803	1017.532261636895	12
1	1804	1019.366200318478	11
1	1806	1019.719821097296	11
1	1807	1019.760665109755	11
1	1808	1020.101530326066	10
1	1809	1020.785671140601	9
1	1810	1021.141722095962	8
1	1812	1021.528985483614	8
1	1813	1021.652239619176	8
1	1814	1022.642703202009	7
1	1815	1022.79565732117	6
1	1817	1023.797497184892	6
1	1819	1024.329291190995	7
1	1820	1024.339265929328	7
1	1821	1025.233710381542	6
1	1822	1025.392845302624	5
1	1823	1025.792581570917	4
1	1824	1027.322173163036	3
1	1826	1028.521608559022	3
1	1827	1029.662121054542	3
1	1828	1030.040284858853	2
1	1829	1031.756994473786	1
1	1830	1031.822704757218	0
1	1832	1032.826355629197	0
1	1833	1032.893136999832	0
1	1838	1039.55261110421	0
1	1840	1041.483314707216	1
1	1841	1041.514803994389	1
1	1843	1042.224908909791	1
1	1844	1042.951634869892	1
1	1845	1043.30616910832	0
1	1851	1046.630991825122	0
1	1853	1047.450782261108	1
1	1855	1049.148947601383	2
1	1857	1049.739552503975	3
1	1859	1050.836833814764	4
1	1861	1050.96151943336	5
1	1863	1051.324566915175	6
1	1870	1054.468527242893	7
1	1872	1054.940136736561	8
1	1876	1061.098077600024	9
1	1878	1061.325370072008	10
1	1880	1063.075752346914	11
1	1887	1066.894846648859	12
1	1889	1067.974004938833	13
1	1891	1068.682052603662	14
1	1893	1068.754574150407	15
1	1895	1069.467886323535	16
1	1899	1070.085575813839	17
1	1902	1070.570357447533	18
1	1904	1072.823396098358	19
1	1906	1074.915227452355	20
1	1908	1076.107006634056	21
1	1910	1076.703940911387	22
1	1913	1080.020988637261	22
1	1914	1080.180082912418	21
1	1915	1080.798046385203	20
1	1916	1080.809204331769	19
1	1918	1080.964282497178	19
1	1919	1081.230268477781	19
1	1920	1081.776986058922	18
1	1921	1082.050730210255	17
1	1926	1084.468953302641	17
1	1928	1084.868749965757	18
1	1929	1086.406178117231	18
1	1931	1086.547277300908	18
1	1932	1086.658157961007	18
1	1934	1086.684862758226	18
1	1935	1087.53446255831	18
1	1936	1087.541632190576	17
1	1937	1088.61329863691	16
1	1939	1088.627764798433	16
1	1940	1089.03272067247	16
1	1941	1091.558271693483	15
1	1945	1092.940980239593	14
1	1947	1093.041141534475	14
1	1948	1093.423811459334	14
1	1949	1094.657534869077	13
1	1951	1095.584365702801	13
1	1952	1097.631468274828	13
1	1953	1097.790621032068	12
1	1954	1098.824558343027	11
1	1955	1099.453189235054	10
1	1959	1103.311258511211	9
1	1960	1104.180293268308	8
1	1962	1104.751633346375	8
1	1964	1104.932521815931	9
1	1965	1104.998780051419	9
1	1967	1106.219845817064	9
1	1968	1106.694114385849	9
1	1969	1107.274657614816	8
1	1970	1108.164820054369	7
1	1971	1108.47843540904	6
1	1973	1108.598993241431	6
1	1974	1108.622019260925	6
1	1976	1109.934455092703	6
1	1977	1110.996286070331	6
1	1979	1111.920914624344	6
1	1983	1113.3880347733	7
1	1985	1114.292843683278	8
1	1987	1115.866334970472	9
1	1990	1117.420168605261	10
1	1991	1118.113331219017	10
1	1992	1118.327763985479	9
1	1998	1119.96254110877	9
1	2000	1120.434166887255	10
1	2003	1124.871456849597	11
1	2005	1125.556945915635	12
1	2007	1125.629959642931	13
1	2009	1129.220947468857	14
1	2011	1130.354549954212	15
1	2014	1131.960852720501	16
1	2015	1132.123070499075	16
1	2017	1132.179624289447	16
1	2018	1132.501654164356	16
1	2020	1133.372935786803	16
1	2021	1134.512182475734	16
1	2023	1134.561660833088	16
1	2024	1135.424876184325	16
1	2025	1135.468959196527	15
1	2026	1137.434510083554	14
1	2027	1138.023972853749	13
1	2029	1138.258620043172	13
1	2031	1139.035027463285	14
1	2032	1139.928606908066	14
1	2034	1140.363110103193	14
1	2035	1141.031803989027	14
1	2037	1142.471903785642	14
1	2039	1143.460464271084	15
1	2041	1143.689364797717	16
1	2043	1143.87582046355	17
1	2047	1144.307839901727	18
1	2049	1145.983425228486	19
1	2052	1146.640857164352	20
1	2056	1146.943885001755	21
1	2058	1147.669960654375	21
1	2060	1147.786135181434	21
1	2061	1148.340870771521	21
1	2063	1148.513789699959	21
1	2064	1148.660011575369	21
1	2065	1148.698535386661	20
1	2067	1149.895862653348	20
1	2068	1150.395743989988	20
1	2069	1150.875160345957	19
1	2070	1152.515209051822	18
1	2071	1153.072764026691	17
1	2073	1154.007332153623	17
1	2074	1154.028009883314	17
1	2075	1154.909441665951	16
1	2076	1155.26396685871	15
1	2077	1155.501111625896	14
1	2079	1155.711034927857	14
1	2081	1156.435661136252	15
1	2082	1156.910585432164	15
1	2083	1157.219688083683	14
1	2084	1157.247652295024	13
1	2085	1157.261356395535	12
1	2087	1157.645811455467	12
1	2088	1157.671878498034	12
1	2090	1158.254757778801	12
1	2091	1160.748584364422	12
1	2092	1161.404900632614	11
1	2094	1161.953785957724	11
1	2095	1161.966283322857	11
1	2097	1162.2849611805	11
1	2098	1162.877769525909	11
1	2099	1163.049260275549	10
1	2101	1163.347448259038	10
1	2102	1163.379867337606	10
1	2104	1166.88940474399	10
1	2105	1167.543939675922	10
1	2106	1167.874755828885	9
1	2108	1168.576298646567	9
1	2109	1168.834163329165	9
1	2113	1170.951166878812	9
1	2115	1171.53635074561	10
1	2118	1173.483690956017	11
1	2122	1174.066593746467	12
1	2124	1175.777057245341	13
1	2128	1180.271332995297	14
1	2132	1184.291178175762	15
1	2133	1184.865006243944	15
1	2134	1185.239978557035	14
1	2136	1185.781594037654	14
1	2138	1185.879038846363	15
1	2139	1187.344380686896	15
1	2140	1187.472323731749	14
1	2141	1187.527009854113	13
1	2142	1188.237866210453	12
1	2143	1189.371611967431	11
1	2144	1189.545108597269	10
1	2145	1189.627981351793	9
1	2146	1189.725926535391	8
1	2150	1190.961413629815	8
1	2152	1190.962012628374	9
1	2156	1194.358561881407	10
1	2160	1195.429472802487	11
1	2162	1198.097676301788	12
1	2164	1204.549973537999	13
1	2172	1211.261982543981	14
1	2173	1211.644271275779	14
1	2174	1211.718815720168	13
1	2175	1211.893950481328	12
1	2176	1211.990063199759	11
1	2177	1212.999932168243	10
1	2178	1213.014479178013	9
1	2179	1213.154942777432	8
1	2181	1214.468672967513	8
1	2182	1214.598215434716	8
1	2186	1215.839307273233	8
1	2188	1217.937183790762	9
1	2193	1220.570759437107	9
1	2194	1220.728097042268	8
1	2196	1220.904890915169	8
1	2197	1221.33797096232	8
1	2198	1221.811638893112	7
1	2200	1222.73007296828	7
1	2202	1222.939133799941	8
1	2204	1223.480701039928	9
1	2205	1224.45200627554	9
1	2206	1226.703312402065	8
1	2207	1227.832131215312	7
1	2208	1228.162964782012	6
1	2210	1229.396515018691	6
1	2211	1230.684597576481	6
1	2212	1233.455399060926	5
1	2213	1235.00703019339	4
1	2215	1235.218283872707	4
1	2216	1235.563216145296	4
1	2218	1235.87021201836	4
1	2224	1245.04666505859	5
1	2226	1247.060873704525	6
1	2228	1247.633917397719	7
1	2230	1250.384475306955	8
1	2232	1251.216351920274	9
1	2234	1253.361069451091	10
1	2240	1255.352832049763	11
1	2242	1257.125672770418	12
1	2244	1257.327775275582	13
1	2247	1262.79205478652	14
1	2249	1263.258451140584	15
1	2251	1263.265220857583	16
1	2256	1267.776364725044	17
1	2258	1267.838836691524	18
1	2260	1268.339422273009	19
1	2265	1273.929435725619	20
1	2270	1275.751252550472	21
1	2273	1277.362468498591	22
1	2277	1279.572427609202	23
1	2279	1279.796940130652	24
1	2284	1281.690009012899	25
1	2285	1283.346853209924	25
1	2286	1283.507147901924	24
1	2288	1283.54567231749	24
1	2290	1283.549557947774	25
1	2291	1284.771321120917	25
1	2292	1285.110635734413	24
1	2294	1285.813539805008	24
1	2296	1286.085970318965	25
1	2298	1287.930848139433	26
1	2299	1292.106108705542	26
1	2300	1292.204210920519	25
1	2302	1292.624369561142	25
1	2304	1293.323566123892	26
1	2305	1293.766194553006	26
1	2307	1293.921021422766	26
1	2311	1298.982694472301	27
1	2313	1299.975998821278	28
1	2316	1302.388846284327	29
1	2317	1302.417067085947	29
1	2321	1302.904236502467	29
1	2323	1303.064310756177	30
1	2326	1306.481138739863	31
1	2328	1306.504099379183	32
1	2329	1307.047579127927	32
1	2330	1307.561319533657	31
1	2331	1308.17448870561	30
1	2332	1308.956653749209	29
1	2333	1309.213258763223	28
1	2334	1309.482230546872	27
1	2335	1309.695291024977	26
1	2337	1310.096760377429	26
1	2339	1311.722743786409	27
1	2345	1312.729207922608	28
1	2347	1314.758040162038	29
1	2349	1315.615474418983	30
1	2351	1316.458359591757	31
1	2355	1318.10907420334	32
1	2357	1318.250453829462	33
1	2358	1321.128598672855	33
1	2359	1321.387854857067	32
1	2360	1321.553740641529	31
1	2361	1321.740525559928	30
1	2362	1322.520671331516	29
1	2363	1323.422557076886	28
1	2364	1323.682703876671	27
1	2365	1324.172783010188	26
1	2366	1325.093604577271	25
1	2367	1328.922606279356	24
1	2371	1330.144788488051	24
1	2373	1333.41360055562	25
1	2375	1334.592724981096	26
1	2377	1334.673103418592	27
1	2379	1335.949917072742	28
1	2381	1336.640826557638	29
1	2383	1337.281765779455	30
1	2385	1338.587137559221	31
1	2387	1339.078388249857	32
1	2389	1340.230195124003	33
1	2394	1342.963204507202	34
1	2396	1343.103211152314	35
1	2398	1343.655487150992	36
1	2400	1345.179549111455	37
1	2402	1345.425177443038	38
1	2404	1348.757307499232	39
1	2406	1348.958698930024	40
1	2408	1348.968934177661	41
1	2411	1349.562875875645	42
1	2415	1350.56598053208	43
1	2417	1350.910551925783	43
1	2421	1353.445513732317	42
1	2422	1353.767516994154	41
1	2423	1353.809726194987	40
1	2425	1356.092022854033	40
1	2426	1356.4564031139	40
1	2427	1356.477211087739	39
1	2429	1357.111236190014	39
1	2431	1357.401760041506	40
1	2432	1357.620878951278	40
1	2433	1358.332045443697	39
1	2434	1358.711564632053	38
1	2436	1358.808142833142	38
1	2437	1359.117355356299	38
1	2438	1359.40234106156	37
1	2439	1359.622342380374	36
1	2441	1359.895132776511	36
1	2442	1360.074742300991	36
1	2443	1360.221143587971	35
1	2444	1360.257382876638	34
1	2445	1361.069191717666	33
1	2446	1361.532429382792	32
1	2448	1361.785428029714	32
1	2450	1362.358863054741	33
1	2454	1365.500930066551	34
1	2456	1366.128505911873	35
1	2458	1369.337293801217	36
1	2460	1372.490777751786	37
1	2462	1373.45502673719	37
1	2466	1374.004686803199	37
1	2468	1375.042188396644	38
1	2470	1377.880031990166	39
1	2472	1379.336747493579	39
1	2473	1380.294424007693	38
1	2475	1382.982350926903	38
1	2476	1384.014684901448	38
1	2477	1384.081736562998	37
1	2478	1384.747234741978	36
1	2479	1384.81875382959	35
1	2481	1385.43101501949	35
1	2482	1385.513828657085	35
1	2483	1385.777849500007	34
1	2484	1385.882620840421	33
1	2486	1386.3417735102	33
1	2487	1386.35115107643	33
1	2488	1386.35882350304	32
1	2489	1387.721350628164	31
1	2490	1390.524792419058	30
1	2492	1391.855737442111	30
1	2493	1393.212620431487	30
1	2494	1393.482520435758	29
1	2496	1394.022804927744	29
1	2497	1395.594878535589	29
1	2499	1396.498278704667	29
1	2500	1397.642056778477	29
1	2501	1399.128254553045	28
1	2503	1399.741521283852	28
1	2504	1399.986203627281	28
1	2505	1400.128844658634	27
1	2509	1402.735004518476	26
1	2511	1403.980799340322	26
1	2513	1405.055064267401	27
1	2514	1405.098442885672	27
1	2515	1405.371653614264	26
1	2517	1405.576226487822	26
1	2518	1405.60882361315	26
1	2519	1405.850951486949	25
1	2520	1406.787572751819	24
1	2521	1410.1612823724	23
1	2522	1410.207342956281	22
1	2523	1410.252249167562	21
1	2524	1410.757521472928	20
1	2526	1411.135656392586	20
1	2530	1412.818117230552	21
1	2533	1417.529893675197	22
1	2534	1418.20969888607	22
1	2535	1418.306474340072	21
1	2536	1418.486153129204	20
1	2538	1418.488171290189	20
1	2539	1418.798845566732	20
1	2540	1419.495150919514	19
1	2542	1420.08678457541	19
1	2543	1420.095557893108	19
1	2544	1420.537040857314	18
1	2546	1421.039680082699	18
1	2547	1421.168681354478	18
1	2548	1421.474773151651	17
1	2549	1422.212638759414	16
1	2550	1422.343018596863	15
1	2552	1423.765859584113	15
1	2553	1424.548611687739	15
1	2555	1425.140276374988	15
1	2556	1425.566369753682	15
1	2557	1426.640034920424	14
1	2558	1426.666365439559	13
1	2560	1427.134091145509	13
1	2561	1428.327423133547	13
1	2562	1428.487862509834	12
1	2563	1428.595781162567	11
1	2564	1429.039151565504	10
1	2566	1430.487394971704	10
1	2567	1430.714302240353	10
1	2569	1433.015347955485	10
1	2571	1434.61003048888	11
1	2573	1434.77811589205	12
1	2574	1435.294316995338	12
1	2576	1435.32078965644	12
1	2577	1435.604333006019	12
1	2578	1436.29614890094	11
1	2579	1436.724001214045	10
1	2580	1436.821847992547	9
1	2581	1437.202186570999	8
1	2582	1438.241939902119	7
1	2583	1438.70569212798	6
1	2584	1439.155606462163	5
1	2585	1439.266991079922	4
1	2587	1441.608135600399	4
1	2589	1442.073891321448	5
1	2590	1442.974240062771	5
1	2592	1443.501738010514	5
1	2594	1444.42958317986	6
1	2595	1444.942216883696	6
1	2596	1445.381056017988	5
1	2598	1445.413318965599	5
1	2599	1445.920957459674	5
1	2600	1446.227646445159	4
1	2601	1446.230960220268	3
1	2605	1448.876541687859	3
1	2607	1450.75649895118	3
1	2608	1450.829033610562	2
1	2610	1451.071617816702	2
1	2611	1451.243864758719	2
1	2615	1452.94728557353	2
1	2617	1454.953268043235	3
1	2619	1456.092357975965	4
1	2621	1458.419027762648	5
1	2623	1461.880743999212	5
1	2625	1462.587096471994	5
1	2626	1462.998298586592	5
1	2627	1463.151168417615	4
1	2629	1464.302471334699	4
1	2633	1466.781684390585	5
1	2635	1467.259097781204	6
1	2637	1467.631821187354	7
1	2644	1479.243510927378	8
1	2646	1482.698444090948	9
1	2654	1486.666478298805	10
1	2656	1489.027948920021	11
1	2659	1490.405744552078	12
1	2661	1490.505610867732	13
1	2665	1491.503265481807	14
1	2670	1496.329504825194	15
1	2673	1501.360677523083	16
1	2675	1501.849462333143	17
1	2679	1503.073275635818	18
1	2683	1507.902953503342	19
1	2688	1510.504473548921	20
1	2690	1510.553024722511	21
1	2692	1510.672327724694	22
1	2694	1511.674417178027	23
1	2696	1514.007892605306	24
1	2698	1514.838940996074	25
1	2700	1516.125353411547	26
1	2704	1516.411333435492	27
1	2706	1517.091433528291	28
1	2708	1518.517749254977	29
1	2711	1518.976709517177	30
1	2712	1519.057688951494	30
1	2713	1519.392105741646	29
1	2714	1520.351227335859	28
1	2716	1521.611043624801	28
1	2717	1523.015257838463	28
1	2718	1523.176572360113	27
1	2720	1523.44703783178	27
1	2721	1524.208683714189	27
1	2723	1524.658984921529	27
1	2724	1524.774262040197	27
1	2725	1525.348123048259	26
1	2726	1526.736161236991	25
1	2727	1527.066627888347	24
1	2728	1528.127474806703	23
1	2729	1528.762564358751	22
1	2733	1529.502848468104	22
1	2736	1533.484890250459	23
1	2738	1535.554696447648	24
1	2740	1536.440621946944	25
1	2741	1537.597941281251	25
1	2743	1538.461928637499	25
1	2744	1540.125918328961	25
1	2746	1540.256248405112	25
1	2748	1540.365131577108	26
1	2749	1540.525807630633	26
1	2751	1541.68894293694	26
1	2752	1542.149157325216	26
1	2753	1542.502782257708	25
1	2754	1542.555221933294	24
1	2755	1544.014750720047	23
1	2757	1544.324685041177	23
1	2758	1544.396001960985	23
1	2759	1544.935608973661	22
1	2760	1547.406630037481	21
1	2764	1549.397443245919	20
1	2765	1549.467124683769	19
1	2766	1549.77191330099	18
1	2768	1550.005805292874	18
1	2769	1550.551686126302	18
1	2771	1550.640596346315	18
1	2772	1551.136797431517	18
1	2774	1551.773895443735	18
1	2775	1551.914469080311	18
1	2776	1552.071633050582	17
1	2778	1552.913289656522	17
1	2779	1553.269656891504	17
1	2780	1553.731617296517	16
1	2782	1554.19344930823	16
1	2783	1554.376773055725	16
1	2784	1555.029964548686	15
1	2785	1556.145012336984	14
1	2787	1557.696912910248	14
1	2788	1559.880969184931	14
1	2789	1561.661202201813	13
1	2791	1561.79165407463	13
1	2792	1561.995296152136	13
1	2793	1562.199241833006	12
1	2794	1562.729494273159	11
1	2796	1564.091747427958	11
1	2797	1564.211164855603	11
1	2798	1564.255356766628	10
1	2800	1564.658980614875	10
1	2801	1564.911409507029	10
1	2802	1566.675443709884	9
1	2804	1567.076845313705	9
1	2805	1567.078268048181	9
1	2807	1567.719554757299	9
1	2808	1568.166772370858	9
1	2810	1569.144616071931	9
1	2811	1571.238038636769	9
1	2812	1571.463009053269	8
1	2813	1571.736143711089	7
1	2814	1575.158459329016	6
1	2815	1575.262605777565	5
1	2816	1575.551715684875	4
1	2817	1575.609604539084	3
1	2821	1577.598337693505	2
1	2823	1577.770543984265	2
1	2825	1580.259315833294	3
1	2827	1581.768993521973	4
1	2828	1581.927432968094	4
1	2829	1582.588914818664	3
1	2830	1582.760414721454	2
1	2831	1584.480243485605	1
1	2832	1584.901916866169	0
1	2834	1585.43212035013	0
1	2836	1586.560368519467	1
1	2838	1586.664695634868	2
1	2839	1587.0424968826	2
1	2840	1587.483551937287	1
1	2841	1587.914500524816	0
1	2843	1588.123035378438	0
1	2844	1589.799982110093	0
1	2846	1591.305173546991	0
1	2847	1592.458945219835	0
1	2849	1593.699837911513	0
1	2851	1593.990211630906	1
1	2852	1594.068855236774	1
1	2853	1594.735425191593	0
1	2855	1595.522295502596	0
1	2856	1595.569743328401	0
1	2858	1595.979148823408	0
1	2859	1596.290721942621	0
1	2861	1598.676759319634	0
1	2862	1599.12650536233	0
1	2864	1599.749332500275	0
1	2865	1600.396188496932	0
1	2872	1606.771226774356	0
1	2874	1607.182016935995	1
1	2877	1608.012879685183	2
1	2879	1608.071539396602	3
1	2880	1608.345434493069	3
1	2881	1608.626030535055	2
1	2883	1609.381192347078	2
1	2884	1611.992521944712	2
1	2886	1612.04690649279	2
1	2887	1612.219197911033	2
1	2888	1612.376929028814	1
1	2889	1612.808476136043	0
1	2891	1616.568164263083	0
1	2892	1616.808175688318	0
1	2897	1620.077107868914	0
1	2899	1620.500409463086	1
1	2900	1620.847462280906	1
1	2901	1621.624261791985	0
1	2906	1626.307996572645	0
1	2908	1626.505697037656	1
1	2909	1626.715180367364	1
1	2910	1626.863860499683	0
1	2912	1628.107137426378	0
1	2913	1629.010830694195	0
1	2915	1629.04499185205	0
1	2916	1629.064761743446	0
1	2920	1630.239580225124	0
1	2922	1631.694921745395	1
1	2926	1636.605521658913	2
1	2930	1640.765917886699	3
1	2932	1642.841253447157	4
1	2934	1643.513335729598	5
1	2937	1645.680699677299	6
1	2941	1647.36832135072	7
1	2943	1649.455623811647	8
1	2947	1652.750829826372	9
1	2950	1654.213740940319	10
1	2952	1655.34974810522	11
1	2960	1662.002388949018	12
1	2962	1662.507050893379	13
1	2964	1662.56694412216	14
1	2966	1663.488798455853	15
1	2968	1664.604374030487	16
1	2972	1669.52108420959	17
1	2974	1670.736769922927	17
1	2975	1671.152413671987	16
1	2976	1671.920569017673	15
1	2978	1672.77654600744	15
1	2979	1673.136911518165	15
1	2980	1674.525227449581	14
1	2982	1675.509932989346	14
1	2983	1675.55952453727	14
1	2985	1675.901715432313	14
1	2986	1676.984113730107	14
1	2988	1677.147343015497	14
1	2989	1677.320019993856	14
1	2990	1677.714496590455	13
1	2991	1677.732680927492	12
1	2992	1678.548330389846	11
1	2993	1678.961846758457	10
1	2994	1679.63400099078	9
1	2995	1681.147685367298	8
1	2997	1681.500546761769	8
1	2998	1681.789069861963	8
1	3000	1681.932682338415	8
1	3001	1682.756777210584	8
1	3003	1684.349561570267	8
1	3005	1684.481878781786	9
1	3006	1684.924535109678	9
1	3007	1685.980846683991	8
1	3008	1686.354160086816	7
1	3009	1686.472351086258	6
1	3010	1688.466682234658	5
1	3011	1693.084849231193	4
1	3013	1693.12391273754	4
1	3015	1693.418682239011	5
1	3016	1693.780211253474	5
1	3017	1694.673490900949	4
1	3018	1695.546436866055	3
1	3020	1696.638204890967	3
1	3021	1698.117664119923	3
1	3023	1698.755713281396	3
1	3024	1699.150928523245	3
1	3025	1699.17701285592	2
1	3029	1700.917401027837	2
1	3031	1701.563275615567	3
1	3033	1702.265840678411	4
1	3035	1703.024310579384	5
1	3037	1703.057203550126	6
1	3039	1703.662329673567	7
1	3041	1703.911438006993	8
1	3043	1704.826912673892	9
1	3045	1708.602674849129	10
1	3047	1708.644678770203	11
1	3049	1708.673156136737	12
1	3051	1710.552836064809	13
1	3053	1713.558734250224	14
1	3055	1717.319115427006	15
1	3057	1718.558295448464	16
1	3060	1721.200016320034	17
1	3061	1722.117254684142	17
1	3062	1723.500401670934	16
1	3063	1724.44032719632	15
1	3069	1727.445667440049	15
1	3071	1730.245124066524	16
1	3073	1730.286706923473	17
1	3075	1731.479862164675	18
1	3077	1731.89095529695	19
1	3080	1735.04533271734	20
1	3082	1737.200952018067	21
1	3086	1738.917082655518	22
1	3088	1739.363825609722	23
1	3091	1741.8564264426	24
1	3093	1746.658998003562	25
1	3095	1746.705812010556	26
1	3098	1750.540165122035	27
1	3099	1750.765829055327	27
1	3100	1750.829397583357	26
1	3101	1751.287207669824	25
1	3102	1751.82469947206	24
1	3103	1753.293809233887	23
1	3104	1753.775471234627	22
1	3105	1753.870170875336	21
1	3107	1753.985576300846	21
1	3108	1755.208251320903	21
1	3112	1758.982747277005	21
1	3115	1760.354950518812	22
1	3117	1762.414316680199	23
1	3119	1762.470877200784	24
1	3121	1762.581299804679	25
1	3122	1762.781667701781	25
1	3123	1763.284311950962	24
1	3130	1766.609065241088	24
1	3134	1768.251401541747	25
1	3139	1772.181618597248	26
1	3143	1774.137012414929	27
1	3145	1774.921586626059	28
1	3147	1775.391638615515	29
1	3151	1780.537300456208	30
1	3153	1781.249317411968	31
1	3155	1782.893080976087	32
1	3160	1787.007393224564	33
1	3162	1787.132026975641	34
1	3164	1787.910744325246	35
1	3166	1791.318571858729	36
1	3168	1792.513443675563	37
1	3170	1792.557954536313	38
1	3172	1795.323470428267	39
1	3179	1803.492327002717	40
1	3181	1804.105956252998	41
1	3183	1807.320759595686	42
1	3185	1808.254835084201	43
1	3187	1808.453044997196	44
1	3189	1811.559691497395	45
1	3194	1813.571631021782	46
1	3196	1814.04312470696	47
1	3202	1817.366258864815	48
1	3204	1821.155018498792	49
1	3206	1823.218597601931	50
1	3210	1825.400875705838	51
1	3214	1828.998062083797	52
1	3216	1830.656930053804	53
1	3218	1831.810457411606	54
1	3221	1833.763739334489	55
1	3227	1842.478728051183	56
1	3230	1843.858526300541	57
1	3232	1843.981507156088	58
1	3233	1844.148764352951	58
1	3235	1844.484281988887	58
1	3237	1844.669868664877	59
1	3239	1845.406181260874	60
1	3240	1845.628684124666	60
1	3242	1846.610199817816	60
1	3244	1847.104755338529	61
1	3246	1847.152097570652	62
1	3248	1847.191236782299	63
1	3249	1847.782803889594	63
1	3250	1848.670018339778	62
1	3251	1848.919923811569	61
1	3252	1850.294288432967	60
1	3253	1850.832524514621	59
1	3258	1852.998116837115	59
1	3259	1853.231633699476	59
1	3261	1853.972732394757	59
1	3262	1854.165333319947	59
1	3263	1854.842157154483	58
1	3264	1855.968124532888	57
1	3265	1857.414019369252	56
1	3266	1860.1044989572	55
1	3267	1860.402560035672	54
1	3268	1860.527831886907	53
1	3269	1860.779986593827	52
1	3270	1861.317898356395	51
1	3271	1861.32425047848	50
1	3273	1861.705228675416	50
1	3274	1861.870416218547	50
1	3275	1864.121446472301	49
1	3276	1864.424290453947	48
1	3281	1867.234155311347	48
1	3283	1867.691453296627	49
1	3284	1869.72597438942	49
1	3285	1870.43014659185	48
1	3286	1870.485500956257	47
1	3287	1870.522915695279	46
1	3288	1870.566706756302	45
1	3289	1870.922949633378	44
1	3290	1871.492124696947	43
1	3292	1871.663697724981	43
1	3293	1872.163098382358	43
1	3297	1872.851657792359	43
1	3299	1873.488815875582	44
1	3303	1874.768137572245	45
1	3308	1878.401184929036	46
1	3312	1882.661731771088	47
1	3315	1886.803771159336	48
1	3318	1888.658560828617	49
1	3320	1889.075275625128	50
1	3322	1893.583626225638	51
1	3325	1898.482458014839	52
1	3327	1898.687296931574	53
1	3329	1898.809487318617	54
1	3330	1899.747636647433	54
1	3331	1899.912519494095	53
1	3332	1900.31680945746	52
1	3333	1900.630879875287	51
1	3334	1900.86096701804	50
1	3335	1901.404387841433	49
1	3337	1901.45877461769	49
1	3338	1901.94940463497	49
1	3339	1902.195833167968	48
1	3341	1902.292352429364	48
1	3345	1904.214674297858	48
1	3346	1904.812212562597	47
1	3348	1905.263372583412	47
1	3349	1905.421361627224	47
1	3350	1905.538030095221	46
1	3351	1905.707598556387	45
1	3352	1906.11081224898	44
1	3354	1906.271634857321	44
1	3356	1906.3191673145	45
1	3357	1907.156921896591	45
1	3358	1908.003653415433	44
1	3362	1909.36639735585	44
1	3364	1910.64798744889	44
1	3365	1910.949605076622	43
1	3366	1911.739740345174	42
1	3367	1911.992386981514	41
1	3368	1912.10175661055	40
1	3370	1912.871345651095	40
1	3372	1913.093676678914	41
1	3374	1913.103709968756	42
1	3375	1914.675203758376	42
1	3376	1914.69583794883	41
1	3377	1915.472616494128	40
1	3379	1916.083479230587	40
1	3383	1916.710073376418	41
1	3385	1917.163650017921	42
1	3387	1917.957573639057	43
1	3389	1921.857017767733	43
1	3391	1921.879638001512	43
1	3392	1921.950878214288	43
1	3393	1922.663618137018	42
1	3395	1923.611234113077	42
1	3396	1925.42508422356	42
1	3398	1925.512016382958	42
1	3399	1925.933129294051	42
1	3400	1926.752299910364	41
1	3401	1927.077729111088	40
1	3403	1928.721912176541	40
1	3404	1928.967410530908	40
1	3406	1929.748993996865	40
1	3407	1930.219916995542	40
1	3408	1932.154914861642	39
1	3409	1932.229089284221	38
1	3411	1932.432815248946	38
1	3412	1934.248248287687	38
1	3413	1934.260918590742	37
1	3414	1934.697963933059	36
1	3415	1935.170633022142	35
1	3416	1936.188640107045	34
1	3418	1936.513879962847	34
1	3419	1936.575815075296	34
1	3420	1936.902800906658	33
1	3422	1937.867222815379	33
1	3423	1939.657568945631	33
1	3424	1940.291495673819	32
1	3425	1941.788659788414	31
1	3427	1942.670182073581	31
1	3428	1942.701588778762	31
1	3429	1943.487576567267	30
1	3430	1943.669962851305	29
1	3431	1945.662220902838	28
1	3432	1945.700868714012	27
1	3433	1946.085453491259	26
1	3434	1946.235664512384	25
1	3435	1947.656053690912	24
1	3436	1947.756809012657	23
1	3441	1948.508856829588	23
1	3442	1949.351029857198	23
1	3443	1949.714098420546	22
1	3444	1949.77788317989	21
1	3445	1950.159537553743	20
1	3446	1950.338667956762	19
1	3448	1950.36831548221	19
1	3449	1950.924303269582	19
1	3450	1951.511503758757	18
1	3451	1952.957656624511	17
1	3452	1953.073834488397	16
1	3454	1953.3063125116	16
1	3455	1953.863879058498	16
1	3457	1954.764448581476	16
1	3458	1955.619121170207	16
1	3462	1956.648757734946	16
1	3464	1957.131347631776	16
1	3465	1957.864975943696	15
1	3466	1959.788532410884	14
1	3468	1960.139772974065	14
1	3469	1960.911707739289	14
1	3470	1961.298815598678	13
1	3472	1961.386125415023	13
1	3473	1961.743817398995	13
1	3474	1963.063764356327	12
1	3476	1963.173485488922	12
1	3477	1963.590516196738	12
1	3478	1963.724427287413	11
1	3480	1963.820831276432	11
1	3481	1963.990566755085	11
1	3482	1966.67241648775	10
1	3483	1967.194744728873	9
1	3485	1968.359015486634	9
1	3486	1968.389893001576	9
1	3487	1968.554818639549	8
1	3488	1968.721120050068	7
1	3492	1970.372205350632	7
1	3494	1971.898210551674	7
1	3495	1972.256629754047	6
1	3496	1973.218894708138	5
1	3498	1973.482062148245	5
1	3499	1973.599497384681	5
1	3501	1974.618158799465	5
1	3502	1974.958877556821	5
1	3503	1976.427674212687	4
1	3504	1976.979008720641	3
1	3506	1978.021070777053	3
1	3507	1978.76191977397	3
1	3513	1982.492060405733	3
[...]
8	3099	1750.765829055327	48.499988376916
8	3100	1750.829397583357	47.805087003973
8	3101	1751.287207669824	48.230004119698
8	3102	1751.82469947206	48.162369798493
8	3103	1753.293809233887	49.382371226894
8	3104	1753.775471234627	48.948558560735
8	3105	1753.870170875336	45.267496026207
8	3108	1755.208251320903	46.5635725507
8	3122	1762.781667701781	52.228831636972
8	3123	1763.284311950962	49.725577700738
8	3233	1844.148764352951	125.59046890449
8	3240	1845.628684124666	124.42866780463
8	3249	1847.782803889594	122.36468779394
8	3250	1848.670018339778	121.22435089973
8	3251	1848.919923811569	118.67479974504
8	3252	1850.294288432967	120.00758150949
8	3253	1850.832524514621	119.35266234995
8	3259	1853.231633699476	118.18630098214
8	3262	1854.165333319947	116.96438130188
8	3263	1854.842157154483	115.92507449897
8	3264	1855.968124532888	116.60429892317
8	3265	1857.414019369252	115.55759292665
8	3266	1860.1044989572	113.44550095364
8	3267	1860.402560035672	113.69674802512
8	3268	1860.527831886907	109.98766676487
8	3269	1860.779986593827	106.79441029298
8	3270	1861.317898356395	106.06110504599
8	3271	1861.32425047848	102.34150320147
8	3274	1861.870416218547	101.51546569974
8	3275	1864.121446472301	101.7071297921
8	3276	1864.424290453947	101.95341325316
8	3284	1869.72597438942	105.91760619975
8	3285	1870.43014659185	103.82108135076
8	3286	1870.485500956257	102.23409941451
8	3287	1870.522915695279	98.341297098031
8	3288	1870.566706756302	96.429694341373
8	3289	1870.922949633378	96.001363007319
8	3290	1871.492124696947	96.100486081432
8	3293	1872.163098382358	91.62579792615
8	3330	1899.747636647433	116.85455567135
8	3331	1899.912519494095	112.90512626953
8	3332	1900.31680945746	113.18478248182
8	3333	1900.630879875287	112.72013555004
8	3334	1900.86096701804	109.54239515931
8	3335	1901.404387841433	108.89094416587
8	3338	1901.94940463497	109.39145009866
8	3339	1902.195833167968	106.8723627397
8	3345	1904.214674297858	100.10871804486
8	3346	1904.812212562597	97.491452966911
8	3349	1905.421361627224	97.166526543023
8	3350	1905.538030095221	97.084985098025
8	3351	1905.707598556387	94.147907058992
8	3352	1906.11081224898	92.539181227198
8	3357	1907.156921896591	93.113797189631
8	3358	1908.003653415433	90.637394550618
8	3364	1910.64798744889	87.429389846959
8	3365	1910.949605076622	85.548729370784
8	3366	1911.739740345174	82.741678261377
8	3367	1911.992386981514	81.33545692771
8	3368	1912.10175661055	80.291299198944
8	3375	1914.675203758376	80.911464423887
8	3376	1914.69583794883	72.217109897647
8	3377	1915.472616494128	71.614090193587
8	3389	1921.857017767733	77.372735778846
8	3392	1921.950878214288	77.281009549411
8	3393	1922.663618137018	77.257436876144
8	3396	1925.42508422356	78.814884405744
8	3399	1925.933129294051	78.828373955522
8	3400	1926.752299910364	79.600202339712
8	3401	1927.077729111088	79.886492328789
8	3404	1928.967410530908	78.045441778455
8	3407	1930.219916995542	77.221800158427
8	3408	1932.154914861642	78.182182466885
8	3409	1932.229089284221	70.523860608805
8	3412	1934.248248287687	69.68752647656
8	3413	1934.260918590742	67.026763279395
8	3414	1934.697963933059	67.006510636432
8	3415	1935.170633022142	63.506935297161
8	3416	1936.188640107045	63.767658498866
8	3419	1936.575815075296	63.724157282937
8	3420	1936.902800906658	63.413985031076
8	3423	1939.657568945631	64.889431373386
8	3424	1940.291495673819	61.890310744783
8	3425	1941.788659788414	59.126928017326
8	3428	1942.701588778762	55.897817619426
8	3429	1943.487576567267	54.82901573865
8	3430	1943.669962851305	54.594687226177
8	3431	1945.662220902838	52.0785946772
8	3432	1945.700868714012	47.218410699173
8	3433	1946.085453491259	47.398156559685
8	3434	1946.235664512384	47.426177193767
8	3435	1947.656053690912	46.197279073222
8	3436	1947.756809012657	45.464456583293
8	3442	1949.351029857198	44.087657273786
8	3443	1949.714098420546	43.442463563225
8	3444	1949.77788317989	43.45871586539
8	3445	1950.159537553743	42.086941789703
8	3446	1950.338667956762	40.972270600912
8	3449	1950.924303269582	38.052957618487
8	3450	1951.511503758757	38.417827079843
8	3451	1952.957656624511	39.853946655755
8	3452	1953.073834488397	36.99035525781
8	3455	1953.863879058498	37.350559598947
8	3458	1955.619121170207	38.909047793789
8	3464	1957.131347631776	39.173773992719
8	3465	1957.864975943696	35.985337942184
8	3466	1959.788532410884	36.177298297807
8	3469	1960.911707739289	35.399691356331
8	3470	1961.298815598678	32.576903422137
8	3473	1961.743817398995	31.99482340213
8	3474	1963.063764356327	30.630949107381
8	3477	1963.590516196738	27.076636233891
8	3478	1963.724427287413	25.857204472034
8	3481	1963.990566755085	21.320384681504
8	3482	1966.67241648775	18.888157318809
8	3483	1967.194744728873	18.685887899285
8	3486	1968.389893001576	18.021577519366
8	3487	1968.554818639549	15.248506127949
8	3488	1968.721120050068	13.956671468592
8	3494	1971.898210551674	15.249452816728
8	3495	1972.256629754047	12.116856779982
8	3496	1973.218894708138	11.832769293115
8	3499	1973.599497384681	10.426011895759
8	3502	1974.958877556821	11.138046280389
8	3503	1976.427674212687	8.068658726053
8	3504	1976.979008720641	8.119483351512
8	3507	1978.76191977397	8.389714423338
8	3532	1996.085819358839	21.467660559374
8	3533	1997.00969415272	18.988623375667
8	3534	1997.239693176211	17.942182279332
8	3535	1997.943669673119	15.451609267386
8	3536	1998.032463748824	14.940182226958
8	3537	1999.421949821607	15.800862036436
9	16	5.658648726195	0
9	38	20.580476129024	0
9	59	33.177044656504	0
9	106	49.817015947348	0
9	140	72.33151893721	0
9	159	81.5980579319	0
9	166	86.260255204216	1.331790912065
9	177	95.136767671172	8.023916717221
9	182	96.841341023658	0
9	189	99.290479862719	1.471161435946
9	198	102.414184311096	4.263764704849
9	199	103.338988111669	1.042161244532
9	208	110.180818796898	1.559066162343
9	223	130.253918027867	15.620538866561
9	224	130.785229600426	5.333328456703
9	261	153.506334582138	11.679957185327
9	264	160.814192161888	12.84635616316
9	275	164.109132196546	7.920780845068
9	292	173.916062026643	0
9	311	181.745351110007	0
9	319	189.765627665361	0
9	340	198.425831204587	7.311050867534
9	349	204.878625498818	0
9	355	209.231377184208	0
9	367	213.066716830369	0
9	371	214.311349550641	0
9	385	226.472241030082	0
9	409	233.786470420283	0
9	431	242.931579408735	0
9	501	278.372506452647	0
9	505	283.174449369936	0
9	533	294.72360718062	0
9	543	297.656009228123	0
9	588	317.102794147654	0
9	650	348.923142012069	0
9	670	360.474242032356	0
9	697	374.057700014385	0
9	702	375.920243189224	0.25478267082
9	710	378.748324340904	0
9	731	389.889078617998	0
9	745	396.819817760342	0
9	787	417.51436007805	0
9	795	420.481578286643	0
9	812	429.333094986096	0
9	877	478.232544779587	0
9	884	490.211273063068	7.789788351809
9	901	500.015834363923	0
9	920	506.880008936035	0
9	933	513.85964762075	2.701175244428
9	942	521.081854013637	7.047004581925
9	957	530.616851133424	12.705802633911
9	968	536.951249701641	18.850607684706
9	973	539.57822919643	15.66844320228
9	976	541.974635379748	17.621955708438
9	981	547.460594394656	1.379102275723
9	1014	571.308199042736	21.417998440441
9	1035	586.974709956401	21.847283927721
9	1040	589.249505135691	23.910581117087
9	1043	590.1920749064	16.818871416468
9	1046	595.028839731041	21.631869632915
9	1053	596.798585630882	20.89414253715
9	1070	613.22652079939	24.509624242558
9	1073	613.957162164937	25.144251286642
9	1086	624.850937061302	3.241691053472
9	1117	648.852439261	0
9	1121	653.449735132407	0
9	1139	660.815049904557	0
9	1149	668.371969927132	0
9	1158	672.654496874417	0
9	1171	680.351891510275	0
9	1179	685.3827983395	0
9	1205	701.092574836447	0
9	1257	730.513547407364	0
9	1309	754.74161321813	0
9	1314	757.667702213545	1.002525222691
9	1317	757.987678657261	0.211482403171
9	1366	776.410923153046	0
9	1384	785.189797990325	0
9	1389	789.961113616953	0.893650270996
9	1404	797.49204150739	5.257844101376
9	1409	801.809501817061	8.321656582976
9	1412	804.736438294837	3.805229350242
9	1448	821.18489050709	0
9	1472	831.885294127403	0
9	1546	866.988901981916	0
9	1562	878.912330677862	0
9	1567	880.670189736482	1.449013950761
9	1601	901.238907985687	0
9	1608	904.165403442867	0
9	1631	913.386495992099	0
9	1636	917.589122547015	0
9	1647	923.823885379665	0
9	1660	930.273410724464	6.036898935607
9	1678	938.062736298183	0
9	1751	984.720188784619	0
9	1754	988.19996879976	0
9	1777	1002.388384035956	8.415523741131
9	1782	1004.59933532835	1.470507841941
9	1835	1037.290169120187	0
9	1847	1044.164060841119	0
9	1868	1054.403180909491	8.562285808566
9	1881	1064.586135275928	11.484961327727
9	1896	1069.623626533301	15.356768842422
9	1897	1069.746804020499	14.001916934351
9	1900	1070.258128961872	5.367432940147
9	1911	1078.192305470199	12.824550350549
9	1923	1082.416214030946	0
9	1943	1091.596740211196	0
9	1957	1100.06166359301	0
9	1981	1112.169236522232	0
9	1994	1118.349514045981	0
9	2001	1122.042731261676	3.499637525124
9	2045	1144.052200056189	0
9	2054	1146.763927253091	0
9	2111	1168.980846377154	0
9	2120	1173.989328509376	0
9	2129	1180.375081463164	3.260247841817
9	2148	1190.03432366514	0
9	2165	1205.1478604544	11.079263324514
9	2168	1207.40865207823	12.84687172432
9	2169	1209.94518124834	3.881777724536
9	2184	1215.566201275499	0
9	2191	1218.999560840204	0
9	2220	1236.166247987222	0
9	2245	1258.965916516185	21.334061144196
9	2254	1267.367950141433	13.854935177237
9	2263	1273.400924376154	19.334657252945
9	2268	1274.541673230313	8.489058693679
9	2271	1276.781324413158	7.386992687059
9	2280	1279.995752021249	5.577070485
9	2281	1280.191032882658	2.366837347419
9	2309	1296.268287897785	0
9	2319	1302.522772868319	0
9	2341	1312.276959521084	0
9	2352	1317.560413186711	5.202659968133
9	2369	1329.105894086193	0
9	2392	1341.247433022672	0
9	2413	1350.130193768683	0
9	2419	1352.064096091794	0
9	2452	1364.578563570616	0
9	2464	1373.668154076144	0
9	2507	1401.567461613058	0
9	2528	1412.58871298882	0
9	2603	1447.241242301359	0
9	2613	1451.569932625209	0
9	2631	1465.433718895323	0
9	2640	1473.476426561915	0
9	2649	1483.958135281806	5.450519902596
9	2650	1483.979188599535	0.492321904823
9	2657	1489.369094224634	3.312389050938
9	2666	1493.132046352631	2.414043625398
9	2671	1497.180958992178	2.177965749039
9	2684	1508.331817856195	5.374913773325
9	2701	1516.166884716988	9.433398999355
9	2702	1516.196953969636	6.308425469708
9	2731	1528.961272325606	0
9	2762	1548.378056693302	0
9	2819	1575.64929757238	0
9	2867	1602.4727841103	0
9	2870	1606.213337180245	0
9	2894	1618.240003551736	0
9	2903	1622.403775616582	0
9	2918	1629.145109713147	0
9	2935	1644.204475783741	8.11069116832
9	2948	1653.860709195651	13.696586575845
9	2955	1655.814794270038	9.720037213748
9	2956	1659.287046406932	6.706330009034
9	2969	1666.761620890654	11.06145450296
9	2970	1668.14230416931	8.073119251516
9	3027	1699.97635023704	0
9	3065	1725.418116095649	0
9	3078	1733.014204706618	6.273710968437
9	3089	1741.776129877794	3.575536156722
9	3110	1755.2567933104	0
9	3125	1763.808368189668	0
9	3128	1765.328843448235	0.458328378321
9	3137	1770.690479431501	3.062862788873
9	3158	1785.865932695648	15.234942750228
9	3175	1800.770840161941	27.421879103197
9	3192	1812.761100329259	32.238078584292
9	3197	1815.788892979003	30.366860453463
9	3198	1815.806815781931	16.198905352218
9	3211	1826.141876884587	23.58096487127
9	3212	1826.629798455654	14.881894900673
9	3219	1831.857722239119	14.99091023061
9	3224	1837.174282370707	13.444701742123
9	3225	1841.432960479487	4.890274059679
9	3255	1850.921968752453	0
9	3278	1864.560721811127	0
9	3295	1872.420981608179	0
9	3304	1877.120331857783	3.063748774128
9	3313	1885.101613420017	7.148273596101
9	3316	1886.946119706071	7.390537945457
9	3343	1902.420196932681	0
9	3360	1908.07259576404	0
9	3381	1916.513319459551	0
9	3438	1947.784259168941	0
9	3460	1955.952074691395	0
9	3490	1968.859525369129	0
9	3509	1979.297510896879	0
9	3528	1994.877688026608	13.292443089043
10	17	5.717563215729	0.058914489534
10	39	21.162149200717	0.581673071693
10	66	34.907162608341	1.730117951837
10	133	70.260945553775	20.443929606427
10	141	72.378220391125	0.046701453915
10	166	86.260255204216	4.662197272316
10	177	95.136767671172	10.208303379021
10	180	96.630145284071	9.51729433012
10	189	99.290479862719	2.449138839061
10	198	102.414184311096	4.594865884323
10	199	103.338988111669	5.188568505422
10	208	110.180818796898	7.883991929761
10	223	130.253918027867	21.632165393312
10	224	130.785229600426	16.15185043912
10	261	153.506334582138	28.054433438415
10	264	160.814192161888	18.987814765077
10	275	164.109132196546	16.141296197818
10	276	164.397895406464	8.209544054986
10	301	178.690884952339	4.774822925696
10	312	183.810571840103	2.065220730096
10	340	198.425831204587	8.660203539226
10	345	199.568357958884	8.453577621831
10	350	205.82473949937	0.946114000552
10	356	209.476767127444	0.245389943236
10	368	213.57345791106	0.506741080691
10	372	221.836322047506	7.524972496865
10	386	226.756910794656	0.284669764574
10	416	236.679449072572	2.892978652289
10	432	243.200712397239	0.269132988504
10	502	279.55634721326	1.183840760613
10	506	283.42405640867	0.249607038734
10	538	295.890645039553	1.167037858933
10	544	298.318645469283	0.66263624116
10	595	324.112065140812	7.009270993158
10	653	349.218648898772	0.295506886703
10	671	360.835469959607	0.361227927251
10	702	375.920243189224	1.862543174839
10	705	376.558006485056	0.892545966652
10	715	382.596280066825	3.847955725921
10	742	395.445900017733	5.556821399735
10	754	401.437872416967	4.618054656625
10	792	419.134651123098	1.620291045048
10	796	421.360656520371	0.879078233728
10	815	434.638043819034	5.304948832938
10	884	490.211273063068	11.978728283481
10	887	492.133270109092	9.711785397833
10	906	502.225690862262	2.209856498339
10	933	513.85964762075	6.979638684715
10	942	521.081854013637	9.923381637315
10	957	530.616851133424	16.582001701712
10	968	536.951249701641	19.040201202128
10	973	539.57822919643	21.477587179495
10	976	541.974635379748	18.064849385598
10	981	547.460594394656	23.107914723346
10	1014	571.308199042736	25.226706923803
10	1035	586.974709956401	37.084509354106
10	1040	589.249505135691	24.122079107011
10	1043	590.1920749064	24.853150887796
10	1046	595.028839731041	21.655636241109
10	1053	596.798585630882	23.401615532756
10	1070	613.22652079939	37.322077705658
10	1073	613.957162164937	25.240265608105
10	1086	624.850937061302	36.038026183007
10	1101	639.607951541564	17.998705533734
10	1118	652.114568569735	3.262129308735
10	1122	654.273630856793	0.823895724386
10	1146	666.615596068413	5.800546163856
10	1150	670.340235928922	1.96826600179
10	1165	678.353138162108	5.698641287691
10	1174	682.661448434974	2.309556924699
10	1182	688.43361857082	3.05082023132
10	1214	710.325082559266	9.232507722819
10	1260	731.964238195748	1.450690788384
10	1314	757.667702213545	2.926088995415
10	1317	757.987678657261	1.322501666407
10	1318	759.236660434326	1.460464180236
10	1367	777.644710196076	1.23378704303
10	1389	789.961113616953	4.771315626628
10	1404	797.49204150739	8.424578161433
10	1409	801.809501817061	9.575304411047
10	1412	804.736438294837	11.248593060752
10	1415	805.230166676016	4.298957731421
10	1449	823.03855085125	1.85366034416
10	1473	832.690146037958	0.804851910555
10	1549	871.221404195759	4.232502213843
10	1567	880.670189736482	1.75785905862
10	1582	890.001827121005	10.780651335284
10	1604	901.723061078221	0.484153092534
10	1609	905.178418019197	1.01301457633
10	1632	913.739219657463	0.352723665364
10	1637	918.769608376719	1.180485829704
10	1660	930.273410724464	6.449525344799
10	1661	930.433383727908	6.196871939051
10	1679	938.585906515893	0.52317021771
10	1752	987.377864172537	2.657675387918
10	1777	1002.388384035956	14.188415236196
10	1782	1004.59933532835	10.626475033525
10	1785	1008.283648489998	5.154821003589
10	1836	1038.240331335657	0.95016221547
10	1868	1054.403180909491	10.239120068372
10	1881	1064.586135275928	18.745240175003
10	1896	1069.623626533301	16.5224525851
10	1897	1069.746804020499	15.47994632962
10	1900	1070.258128961872	14.513241875724
10	1911	1078.192305470199	13.301609448474
10	1912	1079.652124575206	14.284369455556
10	1924	1084.084812340106	1.66859830916
10	1944	1092.365361331857	0.768621120661
10	1958	1102.331979592148	2.270315999138
10	1988	1117.3893126653	5.220076143068
10	2001	1122.042731261676	3.693217215695
10	2012	1131.827341516943	13.284247780391
10	2050	1145.995385117467	1.943185061278
10	2057	1147.085403583939	0.321476330848
10	2116	1173.103478503511	4.122632126357
10	2129	1180.375081463164	6.385752953788
10	2130	1183.694275136614	6.579441515267
10	2165	1205.1478604544	15.11353678926
10	2168	1207.40865207823	13.340054948344
10	2169	1209.94518124834	15.38340089443
10	2170	1211.254044118709	5.190640594905
10	2189	1218.774488676285	3.208287400786
10	2192	1219.478171789082	0.478610948878
10	2245	1258.965916516185	22.799668528963
10	2254	1267.367950141433	29.736094769444
10	2263	1273.400924376154	19.887909411958
10	2268	1274.541673230313	20.475406107104
10	2271	1276.781324413158	10.728709876524
10	2280	1279.995752021249	10.60142029515
10	2281	1280.191032882658	5.772351346409
10	2282	1280.917196541499	3.09300100626
10	2314	1301.229911997556	4.961624099771
10	2324	1305.474094418794	2.951321550475
10	2352	1317.560413186711	5.283453665627
10	2353	1318.029160409217	5.671407190639
10	2390	1340.472113234768	11.366219148575
10	2409	1349.330554190543	8.083121167871
10	2416	1350.727867555272	0.597673786589
10	2420	1352.209754305983	0.145658214189
10	2461	1372.967686150008	8.389122579392
10	2471	1378.828829582544	5.1606755064
10	2508	1401.79212430552	0.224662692462
10	2531	1415.076086788789	2.487373799969
10	2606	1450.439926575532	3.198684274173
10	2622	1461.649177737708	10.079245112499
10	2638	1472.86190485959	7.428185964267
10	2649	1483.958135281806	10.481708719891
10	2650	1483.979188599535	5.471573220325
10	2657	1489.369094224634	5.882227529922
10	2666	1493.132046352631	7.075341178935
10	2671	1497.180958992178	6.462956264945
10	2684	1508.331817856195	13.328824613056
10	2701	1516.166884716988	13.209980634118
10	2702	1516.196953969636	9.463468252003
10	2709	1518.960619932201	9.072091432273
10	2734	1533.369977835731	4.408705510125
10	2763	1548.482423330915	0.104366637613
10	2820	1577.570609864596	1.921312292216
10	2868	1602.576265006468	0.103480896168
10	2875	1607.756458985649	1.543121805404
10	2895	1618.711708227153	0.471704675417
10	2904	1622.524776983955	0.121001367373
10	2935	1644.204475783741	15.059366070594
10	2948	1653.860709195651	17.76692458023
10	2955	1655.814794270038	15.650671650232
10	2956	1659.287046406932	13.192289350642
10	2969	1666.761620890654	14.180904492756
10	2970	1668.14230416931	12.442137781616
10	2973	1670.31287544424	10.243690526446
10	3058	1718.797240843839	18.820890606799
10	3078	1733.014204706618	7.596088610969
10	3089	1741.776129877794	15.035636139613
10	3096	1750.455988625392	12.25539490432
10	3113	1760.143629948929	4.886836638529
10	3128	1765.328843448235	1.520475258567
10	3137	1770.690479431501	5.819964361587
10	3158	1785.865932695648	18.23831605302
10	3175	1800.770840161941	30.139850216521
10	3192	1812.761100329259	39.412139270515
10	3197	1815.788892979003	35.265871234036
10	3198	1815.806815781931	30.384783256391
10	3211	1826.141876884587	26.533966454874
10	3212	1826.629798455654	24.068886442337
10	3219	1831.857722239119	20.109818684138
10	3224	1837.174282370707	20.307470362198
10	3225	1841.432960479487	17.703379850903
10	3228	1843.168075439161	6.625389019353
10	3256	1851.23895394722	0.316985194767
10	3279	1866.110909697031	1.550187885904
10	3304	1877.120331857783	4.699350249604
10	3313	1885.101613420017	11.045030336362
10	3316	1886.946119706071	8.992779882155
10	3323	1897.507529404475	17.951947643861
10	3344	1903.208619102377	0.788422169696
10	3363	1910.193980667029	2.121384902989
10	3388	1921.396332177129	4.883012717578
10	3439	1948.104447960029	0.320188791088
10	3463	1956.811947871608	0.859873180213
10	3493	1971.807637764952	2.948112395823
10	3528	1994.877688026608	15.580177129729
10	3529	1995.076688837328	13.491443899763
11	3538	2000	0.487
12	3538	2000	0.1005

