version 2
run Continuity_test_mean_response_time-201-20221215-22:13:52-14379
attr configname Continuity_test_mean_response_time
attr datetime 20221215-22:13:52
attr experiment Continuity_test_mean_response_time
attr inifile omnetpp.ini
attr iterationvars $0=5.2
attr iterationvarsf 5.2-
attr measurement $0=5.2
attr network Network
attr processid 14379
attr repetition 1
attr replication #1
attr resultdir results
attr runnumber 201
attr seedset 1
param *.minion.arrival_mean 2
param *.minion.service_mean 1
param *.boss.arrival_mean 10
param *.boss.service_mean 5.2
param *.player.recover_rate_x 100
param **.minion.arrival_distribution 0
param **.minion.service_distribution 0
param **.boss.arrival_distribution 0
param **.boss.service_distribution 0

scalar Network.player boss_throughput:mean 0.0975
attr source signal_boss_throughput
scalar Network.player boss_throughput:last 0.0975
attr source signal_boss_throughput
scalar Network.player boss_defeated_stat:count 196
attr source signal_boss_defeated
scalar Network.player boss_defeated_stat:mean 97.5
attr source signal_boss_defeated
scalar Network.player boss_waiting_time_stat:mean 2.9055599960394
attr source signal_boss_waiting_time
scalar Network.player boss_response_time_stat:mean 7.8907011163281
attr source signal_boss_response_time
scalar Network.player minion_throughput:mean 0.455
attr source signal_minion_throughput
scalar Network.player minion_throughput:last 0.455
attr source signal_minion_throughput
scalar Network.player minion_recovered_stat:count 120
attr source signal_minion_recovered
scalar Network.player minion_recovered_stat:mean 59.5
attr source signal_minion_recovered
scalar Network.player minion_defeated_stat:count 911
attr source signal_minion_defeated
scalar Network.player minion_defeated_stat:mean 455
attr source signal_minion_defeated
scalar Network.player minion_waiting_time_stat:mean 62.416689299635
attr source signal_minion_waiting_time
scalar Network.player minion_response_time_stat:mean 63.929391238994
attr source signal_minion_response_time

