file 213349 1671138810                                          
version 2
run Continuity_test_mean_response_time-95-20221215-22:13:30-13847
attr configname Continuity_test_mean_response_time
attr datetime 20221215-22:13:30
attr experiment Continuity_test_mean_response_time
attr inifile omnetpp.ini
attr iterationvars $0=5
attr iterationvarsf 5-
attr measurement $0=5
attr network Network
attr processid 13847
attr repetition 95
attr replication #95
attr resultdir results
attr runnumber 95
attr seedset 95
param *.minion.arrival_mean 2
param *.minion.service_mean 1
param *.boss.arrival_mean 10
param *.boss.service_mean 5
param *.player.recover_rate_x 100
param **.minion.arrival_distribution 0
param **.minion.service_distribution 0
param **.boss.arrival_distribution 0
param **.boss.service_distribution 0

vector 0 Network.player minion_jobs_number_stat:vector ETV
attr source signal_minion_jobs_number
vector 1 Network.player minion_jobs_queue_number_stat:vector ETV
attr source signal_minion_jobs_queue_number
vector 2 Network.player minion_recovered_stat:vector ETV
attr source signal_minion_recovered
vector 3 Network.player minion_defeated_stat:vector ETV
attr source signal_minion_defeated
vector 4 Network.player boss_jobs_number_stat:vector ETV
attr source signal_boss_jobs_number
vector 5 Network.player boss_jobs_queue_number_stat:vector ETV
attr source signal_boss_jobs_queue_number
vector 6 Network.player boss_defeated_stat:vector ETV
attr source signal_boss_defeated
vector 7 Network.player minion_waiting_time_stat:vector ETV
attr source signal_minion_waiting_time
vector 8 Network.player minion_response_time_stat:vector ETV
attr source signal_minion_response_time
vector 9 Network.player boss_waiting_time_stat:vector ETV
attr source signal_boss_waiting_time
vector 10 Network.player boss_response_time_stat:vector ETV
attr source signal_boss_response_time
vector 11 Network.player minion_throughput:vector ETV
attr source signal_minion_throughput
vector 12 Network.player boss_throughput:vector ETV
attr source signal_boss_throughput
0	1993 26892 0 3435 0 1998.881965908047 981 0 168 90752 10159116
1	28885 50145 0 3435 0 1998.881965908047 1825 0 167 170364 19127924
2	79030 2361 0 3422 0 1989.433382432093 88 0 87 3828 223300
3	81391 23629 0 3420 0 1986.486535547593 845 0 844 356590 200760170
4	105020 5484 0 3431 0 1995.753198167983 212 0 9 496 1896
5	110504 10902 0 3431 0 1995.753198167983 421 0 8 569 2229
6	121406 5736 0 3425 0 1993.765796651115 210 0 209 21945 3064985
7	127142 36998 2 3420 0.458684221096 1986.486535547593 931 0 307.66420853191 165145.66034472 34888853.033406
8	164140 33724 3 3420 1.33888956012 1986.486535547593 844 0.036264874522 308.75043509705 151665.52921462 32334592.321851
9	197864 7027 17 3425 14.023392071565 1993.765796651115 210 0 66.399851190293 1311.5371253428 35724.155541073
10	204891 8418 20 3425 16.921735447985 1993.765796651115 209 0.017279818826 68.470063913009 2407.3013066438 58036.658869647
11	213309 19 3436 3436 2000 2000 1 0.422 0.422 0.422 0.178084
12	213328 20 3436 3436 2000 2000 1 0.1045 0.1045 0.1045 0.01092025

