version 2
run Continuity_test_mean_response_time-119-20221216-15:31:05-5757
attr configname Continuity_test_mean_response_time
attr datetime 20221216-15:31:05
attr experiment Continuity_test_mean_response_time
attr inifile omnetpp.ini
attr iterationvars $0=5.2
attr iterationvarsf 5.2-
attr measurement $0=5.2
attr network Network
attr processid 5757
attr repetition 19
attr replication #19
attr resultdir results
attr runnumber 119
attr seedset 19
param *.minion.arrival_mean 2
param *.minion.service_mean 1
param *.boss.arrival_mean 10
param *.boss.service_mean 5.2
param *.player.recover_rate_x 100
param **.minion.arrival_distribution 0
param **.minion.service_distribution 0
param **.boss.arrival_distribution 0
param **.boss.service_distribution 0

scalar Network.player boss_throughput:mean 0.094
attr source signal_boss_throughput
scalar Network.player boss_throughput:last 0.094
attr source signal_boss_throughput
scalar Network.player boss_defeated_stat:count 189
attr source signal_boss_defeated
scalar Network.player boss_defeated_stat:mean 94
attr source signal_boss_defeated
scalar Network.player boss_waiting_time_stat:mean 3.6622096799307
attr source signal_boss_waiting_time
scalar Network.player boss_response_time_stat:mean 9.1150701813201
attr source signal_boss_response_time
scalar Network.player minion_throughput:mean 0.4185
attr source signal_minion_throughput
scalar Network.player minion_throughput:last 0.4185
attr source signal_minion_throughput
scalar Network.player minion_recovered_stat:count 103
attr source signal_minion_recovered
scalar Network.player minion_recovered_stat:mean 51
attr source signal_minion_recovered
scalar Network.player minion_defeated_stat:count 838
attr source signal_minion_defeated
scalar Network.player minion_defeated_stat:mean 418.5
attr source signal_minion_defeated
scalar Network.player minion_waiting_time_stat:mean 129.67803628038
attr source signal_minion_waiting_time
scalar Network.player minion_response_time_stat:mean 131.03173629347
attr source signal_minion_response_time

