version 2
run Continuity_test_mean_response_time-39-20221216-15:30:48-5351
attr configname Continuity_test_mean_response_time
attr datetime 20221216-15:30:48
attr experiment Continuity_test_mean_response_time
attr inifile omnetpp.ini
attr iterationvars $0=5
attr iterationvarsf 5-
attr measurement $0=5
attr network Network
attr processid 5351
attr repetition 39
attr replication #39
attr resultdir results
attr runnumber 39
attr seedset 39
param *.minion.arrival_mean 2
param *.minion.service_mean 1
param *.boss.arrival_mean 10
param *.boss.service_mean 5
param *.player.recover_rate_x 100
param **.minion.arrival_distribution 0
param **.minion.service_distribution 0
param **.boss.arrival_distribution 0
param **.boss.service_distribution 0

vector 0 Network.player minion_jobs_number_stat:vector ETV
attr source signal_minion_jobs_number
vector 1 Network.player minion_jobs_queue_number_stat:vector ETV
attr source signal_minion_jobs_queue_number
vector 2 Network.player minion_recovered_stat:vector ETV
attr source signal_minion_recovered
vector 3 Network.player minion_defeated_stat:vector ETV
attr source signal_minion_defeated
vector 4 Network.player boss_jobs_number_stat:vector ETV
attr source signal_boss_jobs_number
vector 5 Network.player boss_jobs_queue_number_stat:vector ETV
attr source signal_boss_jobs_queue_number
vector 6 Network.player boss_defeated_stat:vector ETV
attr source signal_boss_defeated
vector 7 Network.player minion_waiting_time_stat:vector ETV
attr source signal_minion_waiting_time
vector 8 Network.player boss_waiting_time_stat:vector ETV
attr source signal_boss_waiting_time
vector 9 Network.player boss_response_time_stat:vector ETV
attr source signal_boss_response_time
vector 10 Network.player minion_response_time_stat:vector ETV
attr source signal_minion_response_time
vector 11 Network.player minion_throughput:vector ETV
attr source signal_minion_throughput
vector 12 Network.player boss_throughput:vector ETV
attr source signal_boss_throughput
0	0	0	0
0	2	0.75264629425	1
0	10	5.381208567215	2
0	12	7.018630966126	3
0	14	8.105245872158	4
0	16	8.714048889743	5
0	19	8.968425506525	6
0	21	9.383626188761	7
0	24	10.976944351315	8
0	27	12.30766896559	9
0	32	14.122988721323	7
0	38	17.53375590691	4
0	41	18.416997429072	4
0	49	21.875493531906	1
0	53	24.091811307988	1
0	56	27.162417747113	1
0	59	27.767197096903	1
0	61	28.413808665414	2
0	67	29.422333027446	1
0	70	30.350122904316	2
0	74	30.494477614981	3
0	76	30.868851178583	4
0	80	31.599196542997	4
0	83	32.409059250928	4
0	86	34.010258131425	4
0	89	35.40598165762	4
0	93	41.478676750703	5
0	97	42.504236720134	5
0	99	42.72098763053	6
0	101	42.740684898706	7
0	107	50.360939657569	6
0	109	52.375223559013	7
0	111	52.710648939055	8
0	113	52.842244102313	9
0	115	53.543106620868	10
0	117	54.446877295884	11
0	121	57.555994640485	11
0	123	59.369899573306	12
0	136	65.808424240229	5
0	139	66.179718649314	5
0	145	69.078234138308	5
0	148	71.567796193049	5
0	151	72.936866628033	5
0	153	73.592701867255	6
0	157	76.501933909872	5
0	159	77.123451528821	6
0	165	79.573493300298	3
0	168	80.308598471643	3
0	170	80.819096839514	4
0	172	80.926329690258	5
0	175	82.235984738097	5
0	177	82.540706204423	6
0	179	82.624583604952	7
0	181	83.375323345286	8
0	183	83.507431229175	9
0	187	84.762438631669	10
0	189	86.254600597013	11
0	191	88.922726655746	12
0	194	90.713515569504	13
0	197	92.050031545332	13
0	203	96.244086590606	10
0	205	98.923548038111	11
0	212	105.606681866353	7
0	214	105.672710918846	8
0	217	106.617541613439	8
0	222	113.108890665524	9
0	224	113.349654202974	10
0	228	114.256924691865	9
0	242	121.734065269054	1
0	246	123.057170914575	2
0	248	124.426062795332	3
0	250	126.314588163112	4
0	252	126.330294483812	5
0	254	126.917313013252	6
0	256	129.506976157531	7
0	262	134.219863035746	5
0	265	134.744265609856	5
0	270	135.372848841288	5
0	272	141.670616083859	6
0	274	147.069681302969	7
0	276	147.473448436132	8
0	278	147.642760620667	9
0	286	154.27654848803	5
0	295	164.498054545343	6
0	302	173.773124138639	7
0	306	174.654451801503	8
0	310	175.602188187568	9
0	313	177.262510707576	10
0	315	180.630523535363	11
0	317	182.633433785694	12
0	319	185.792490506353	13
0	321	185.815596060121	14
0	325	192.5917733641	15
0	327	192.681167277104	16
0	329	192.841695862966	17
0	331	201.597605530706	18
0	334	203.646356490263	19
0	336	203.792260857395	20
0	343	208.016271969787	21
0	345	209.990731198886	22
0	348	211.565649839496	23
0	354	215.548777475639	21
0	371	223.898608857253	7
0	373	224.078877501857	8
0	378	225.521471166081	8
0	380	225.716499680383	9
0	382	226.30548031597	10
0	385	226.723996845741	11
0	388	228.386845532433	11
0	390	228.795401040564	12
0	394	229.737545726401	13
0	396	231.435110213628	14
0	402	235.862417715628	15
0	404	237.47659165098	16
0	406	239.229201348922	17
0	409	241.331297786294	17
0	411	242.994939022365	18
0	413	243.16726715889	19
0	417	244.014241588804	20
0	420	245.141139930906	21
0	424	247.041472442713	22
0	426	247.941636031433	23
0	431	251.061660659126	22
0	434	255.696507598868	22
0	441	256.826454356662	21
0	445	260.165006530417	20
0	447	260.472637646879	21
0	449	262.162980045218	22
0	451	262.220547706207	23
0	455	264.872822823152	22
0	457	264.893228074191	23
0	459	265.987647107715	24
0	465	268.796837610493	21
0	470	273.790214503004	19
0	472	273.891559351931	20
0	478	276.590121074068	17
0	481	278.413353450164	17
0	483	279.911497674696	18
0	488	280.563611388722	16
0	496	283.511947632143	17
0	502	287.249652929796	16
0	504	288.481290117042	17
0	521	297.697585606025	4
0	525	302.327718309172	5
0	528	303.971058542696	6
0	530	304.184416635628	7
0	532	307.272541080641	8
0	535	307.992870000169	8
0	541	315.355320180502	5
0	545	319.049900033755	6
0	551	322.466940108781	4
0	553	322.549107389195	5
0	560	326.455030139703	1
0	563	331.499180229373	1
0	565	332.251397234617	2
0	568	336.069175934249	2
0	570	336.708107283653	3
0	572	336.920066013921	4
0	576	339.910732674741	3
0	578	340.612577800948	4
0	583	343.046026549598	4
0	585	344.162162624841	5
0	587	344.441399639763	6
0	589	344.76360843206	7
0	593	347.389091043429	7
0	595	347.727175409365	8
0	598	348.69891274286	8
0	603	352.100982546329	6
0	605	353.496332692786	7
0	607	353.693332364198	8
0	609	353.8217268213	9
0	612	354.918498696363	9
0	614	356.134016128722	10
0	618	359.025475630306	9
0	633	365.718794501275	6
0	639	366.633048010595	3
0	643	368.280822066809	4
0	650	373.483082305647	5
0	653	375.395727673292	6
0	660	380.997597977286	3
0	663	381.30328980097	3
0	665	381.335432199868	4
0	668	382.615149174211	4
0	674	387.943534002019	1
0	676	388.171891842473	2
0	680	392.735398698076	1
0	683	393.644339281099	1
0	685	394.115652469073	2
0	688	396.500469750562	2
0	694	404.118507275656	1
0	696	404.618484675802	2
0	699	405.330937933121	3
0	702	407.068255192887	3
0	707	411.358164274769	1
0	710	412.976989498606	1
0	713	413.333034284405	1
0	716	415.592786640797	1
0	718	415.869855419653	2
0	722	417.713642038519	1
0	725	418.623128988904	1
0	727	418.87142067057	2
0	731	426.279117298618	1
0	733	427.107544310119	2
0	737	429.71325193755	3
0	739	430.335195268304	4
0	741	431.374069977818	5
0	743	434.130956436871	6
0	745	434.510951138334	7
0	747	435.857877714222	8
0	753	447.870859355985	6
0	755	448.080583654584	7
0	762	452.579188607344	3
0	765	453.530348051039	3
0	767	454.287659671422	4
0	771	455.666627987273	3
0	773	456.00764506304	4
0	779	459.078108371655	1
0	781	459.333315329908	2
0	785	466.541773006299	1
0	788	468.352864196076	1
0	791	472.37668697384	1
0	794	473.802441179957	1
0	797	477.609658985202	1
0	799	478.727938321175	2
0	801	478.826889577386	3
0	803	479.991175071858	4
0	805	480.03475480291	5
0	809	481.490580396587	6
0	813	486.771861299878	6
0	818	490.311746576484	4
0	820	490.794332111754	5
0	827	493.824080019608	1
0	830	495.368622394217	1
0	833	497.523996579115	1
0	838	499.283502567086	1
0	840	508.425633993784	2
0	844	512.319019978195	3
0	846	512.692794965837	4
0	854	518.806109531701	5
0	856	525.76068746295	6
0	859	528.914471504791	7
0	861	530.035264975495	8
0	863	530.908936200877	9
0	865	532.593509419496	10
0	867	532.858762825604	11
0	869	532.928021252488	12
0	871	538.862621598687	13
0	873	541.419270119789	14
0	878	543.617699752385	13
0	880	544.461937110071	14
0	882	545.275629663135	15
0	884	545.900714162924	16
0	890	550.265955723096	15
0	892	551.845063725095	16
0	894	553.326205208399	17
0	896	553.799925425517	18
0	906	562.777828853615	18
0	908	562.834590110181	19
0	910	563.828149409559	20
0	912	565.64337842817	21
0	919	570.409360071419	17
0	924	573.1742249137	15
0	929	576.520784282654	13
0	939	580.193287498714	6
0	941	580.222064286424	7
0	944	581.7445680011	7
0	947	583.666127316564	7
0	952	586.04791793066	5
0	957	587.702828126476	3
0	963	590.383184362792	2
0	965	598.291848828411	3
0	967	598.473176731766	4
0	969	599.581182265764	5
0	971	600.425549358177	6
0	973	602.114672716389	7
0	977	604.26684140885	8
0	980	607.086375078989	9
0	984	609.449570249182	9
0	986	610.103170855538	10
0	992	614.193137857552	7
0	997	615.324308859061	5
0	999	615.603481915311	6
0	1001	616.403157301163	7
0	1004	617.874136867069	7
0	1007	618.012354585648	7
0	1011	620.24227315609	6
0	1014	620.830958334618	6
0	1018	622.351963318142	7
0	1020	622.876036551454	8
0	1022	623.261789785125	9
0	1024	624.633855270311	10
0	1031	625.879924923571	9
0	1033	626.285701094033	10
0	1038	627.083728510484	9
0	1040	629.547040089878	10
0	1050	634.655381861913	3
0	1053	637.05018226791	3
0	1058	638.681114420249	1
0	1060	639.097459136803	2
0	1062	639.706750655901	3
0	1066	640.260303971945	2
0	1068	642.097272067097	3
0	1072	643.745155230938	2
0	1075	645.310932369927	2
0	1078	646.240949558146	2
0	1081	646.384359126545	2
0	1085	651.14623978423	1
0	1088	652.248146971361	1
0	1093	653.900935033949	1
0	1097	657.287509382361	1
0	1099	658.13790583129	2
0	1102	658.457927256461	2
0	1106	661.117832781748	1
0	1109	665.513375711065	1
0	1112	668.814162492418	1
0	1115	676.897175892978	1
0	1118	681.22576874422	1
0	1121	682.03320898153	1
0	1123	682.224520714409	2
0	1126	683.747181016713	2
0	1129	684.721231517573	2
0	1132	685.638493960211	2
0	1136	688.639084674045	1
0	1139	691.443789844763	1
0	1141	691.73531377678	2
0	1143	693.079015605484	3
0	1147	694.478695308818	2
0	1150	696.141168406723	2
0	1156	698.606275934517	1
0	1158	703.329198351317	2
0	1162	708.378114596832	3
0	1164	708.547310053237	4
0	1167	709.274979531028	5
0	1169	710.111529813851	6
0	1171	710.511931088505	7
0	1173	710.524806052939	8
0	1175	711.478653825703	9
0	1177	712.259206036632	10
0	1179	714.862497807402	11
0	1181	716.301675055426	12
0	1186	718.961989744298	11
0	1189	720.697636819979	11
0	1196	724.220040074282	7
0	1198	724.285400587509	8
0	1200	724.652280468318	9
0	1202	725.050816073197	10
0	1204	726.709441663212	11
0	1208	727.212745063062	10
0	1211	727.728332329238	10
0	1214	728.921070099929	10
0	1223	731.838771896473	4
0	1225	732.089482776604	5
0	1227	732.279788995233	6
0	1229	732.880319290404	7
0	1232	736.487959425209	7
0	1235	736.732915120174	7
0	1238	737.82284042542	7
0	1242	741.939511491729	6
0	1248	743.990763147291	3
0	1250	744.464769254592	4
0	1259	750.393122180543	1
0	1262	752.24871243464	1
0	1265	754.158539783723	1
0	1267	754.439847423032	2
0	1269	755.305023277498	3
0	1271	755.459554033053	4
0	1276	756.358697446502	5
0	1283	759.719242160395	4
0	1286	761.91892961385	4
0	1288	762.308799442357	5
0	1291	763.044512870218	5
0	1293	763.680559174767	6
0	1299	766.201810556445	3
0	1302	766.50967353287	3
0	1306	769.164043018151	2
0	1309	770.583258629172	2
0	1311	771.609665866398	3
0	1318	774.684321163638	1
0	1320	775.311248205121	2
0	1325	780.661848934986	1
0	1327	781.503300564403	2
0	1331	782.830783235472	1
0	1333	783.037432904826	2
0	1335	783.284478535474	3
0	1340	785.828505080431	3
0	1342	789.116723568806	4
0	1345	790.74148355289	5
0	1348	792.073701820842	5
0	1350	793.488220685925	6
0	1355	796.100902473135	6
0	1357	798.244339336707	7
0	1359	799.251447762525	8
0	1361	799.447612998069	9
0	1363	802.318953800704	10
0	1366	803.658232497933	11
0	1369	805.853291361923	11
0	1371	806.306233476097	12
0	1375	810.050692978459	11
0	1381	812.814047183312	8
0	1384	812.989992757874	8
0	1387	814.723181923022	8
0	1390	815.228624485937	8
0	1392	815.506937423596	9
0	1396	819.228649441616	8
0	1400	820.508615511367	7
0	1404	825.502842653723	8
0	1407	828.744984744613	9
0	1409	829.38478555285	10
0	1414	832.690157308762	8
0	1416	832.806721418133	9
0	1418	834.368932348134	10
0	1420	834.398602326384	11
0	1422	835.28523964206	12
0	1425	836.315871892901	12
0	1429	839.000674265373	11
0	1431	839.228668805938	12
0	1433	841.359020556643	13
0	1435	841.676229168856	14
0	1438	842.463663253401	14
0	1446	845.815211767421	12
0	1450	846.28536301752	13
0	1452	846.735532759274	14
0	1456	849.129704099758	15
0	1458	851.478128130762	16
0	1462	851.742152595722	17
0	1465	861.142008872334	18
0	1468	861.519323957585	19
0	1470	862.416436949873	20
0	1472	863.877528471143	21
0	1474	866.898393823178	22
0	1476	867.212911316725	23
0	1481	871.159936685187	22
0	1487	872.738025382064	22
0	1489	873.186322880741	23
0	1491	873.33854439256	24
0	1496	875.080358522688	22
0	1500	880.548188300274	21
0	1503	882.943787433613	21
0	1506	884.069581040373	21
0	1508	884.751965390417	22
0	1510	885.328508229778	23
0	1512	886.359305946382	24
0	1518	890.541946829909	23
0	1522	894.141861840146	24
0	1524	894.275971457411	25
0	1529	899.294154438502	26
0	1531	899.529283632786	27
0	1533	901.668818966393	28
0	1539	907.742852172351	29
0	1543	908.742530790269	29
0	1551	913.123501117069	27
0	1563	919.277410283968	18
0	1565	919.604127469964	19
0	1567	920.02567664432	20
0	1569	920.151803411196	21
0	1571	920.296471060783	22
0	1579	921.868572919377	19
0	1581	923.758680940121	20
0	1583	924.729167955626	21
0	1585	925.094543155301	22
0	1587	925.495569758461	23
0	1591	927.938354951283	24
0	1593	928.238496585459	25
0	1595	928.711592129302	26
0	1599	931.601825965059	27
0	1601	931.644235952009	28
0	1603	934.375593705532	29
0	1606	934.560798665161	30
0	1608	935.037769159382	31
0	1610	935.093855082329	32
0	1614	938.59956552555	33
0	1616	941.251678902798	34
0	1619	943.612410431554	35
0	1621	944.519619517501	36
0	1627	951.044724035418	37
0	1629	953.634147283604	38
0	1631	954.470682614944	39
0	1635	958.996617659276	40
0	1639	961.235091557665	41
0	1641	961.408648440125	42
0	1643	961.836251328338	43
0	1645	962.723077691506	44
0	1647	963.035516115821	45
0	1649	963.167809895717	46
0	1651	963.390411500226	47
0	1653	963.676942038681	48
0	1655	964.082828680816	49
0	1657	966.596568208605	50
0	1659	967.4859542978	51
0	1661	967.62053346875	52
0	1664	968.966696169697	53
0	1666	969.828165900584	54
0	1668	970.027283484735	55
0	1670	971.541673802897	56
0	1674	973.51578500687	57
0	1677	979.845401845801	58
0	1679	980.230622485135	59
0	1682	982.460053038483	60
0	1686	983.245648284385	60
0	1688	984.099019157836	61
0	1691	986.393373968429	61
0	1697	988.444810654516	58
0	1700	990.565401256551	58
0	1702	991.233558566291	59
0	1704	991.268822632488	60
0	1712	998.646433789984	57
0	1714	1000.912580052848	58
0	1716	1001.635427574681	59
0	1719	1008.614656525935	60
0	1721	1008.824140125721	61
0	1728	1011.963822133828	57
0	1730	1012.483993084497	58
0	1733	1013.889283778232	58
0	1736	1014.660801862531	58
0	1739	1015.213699390051	58
0	1741	1015.82366171993	59
0	1744	1017.330933825386	59
0	1751	1021.660463943119	58
0	1755	1023.0655932534	59
0	1759	1024.463535711809	60
0	1761	1025.537275440072	61
0	1763	1026.567584997331	62
0	1765	1026.692085632855	63
0	1767	1029.699305890515	64
0	1770	1033.421816556959	65
0	1772	1033.830842428436	66
0	1774	1035.479416839658	67
0	1778	1036.800343330411	68
0	1780	1038.169034996927	69
0	1782	1038.663624287329	70
0	1787	1050.110150933541	71
0	1789	1050.547325713025	72
0	1794	1054.32398306829	73
0	1799	1057.699890483502	74
0	1803	1060.404845731302	75
0	1806	1064.193619092607	76
0	1808	1064.512370146146	77
0	1810	1066.166747117604	78
0	1812	1066.596859192082	79
0	1817	1071.256032061707	79
0	1820	1072.238827584969	79
0	1826	1074.505400358761	76
0	1830	1076.365648586305	75
0	1832	1076.645122201945	76
0	1834	1076.931728063453	77
0	1838	1077.93938569217	78
0	1842	1079.661681109551	78
0	1848	1082.006571253738	75
0	1850	1082.028252916163	76
0	1860	1086.816843034001	69
0	1862	1086.94089679847	70
0	1866	1090.165920979895	69
0	1880	1095.653834483818	61
0	1889	1104.176839237742	55
0	1898	1110.112596259385	56
0	1900	1111.958750023561	57
0	1904	1115.679297947508	58
0	1906	1116.282474479026	59
0	1908	1116.366423084232	60
0	1910	1116.81962063442	61
0	1912	1119.607114127346	62
0	1914	1119.631202600809	63
0	1918	1122.269428907839	64
0	1920	1123.3641564357	65
0	1922	1124.676311371507	66
0	1924	1129.674761323796	67
0	1930	1133.907465937934	68
0	1940	1144.791205008105	64
0	1942	1145.279433676055	65
0	1945	1146.664486096286	65
0	1950	1149.3061100557	65
0	1954	1151.90116385009	66
0	1956	1151.965544132515	67
0	1958	1154.594389087478	68
0	1960	1154.813482885133	69
0	1963	1156.480916447075	70
0	1965	1157.195364842311	71
0	1967	1159.901986040479	72
0	1971	1162.9254536163	72
0	1976	1165.382724436296	73
0	1980	1166.848468962804	72
0	1984	1169.94776639329	71
0	1986	1170.360274639749	72
0	1989	1172.613038934336	72
0	1991	1172.845040221261	73
0	1993	1173.186852644538	74
0	2000	1176.486594908774	75
0	2002	1176.729957964417	76
0	2007	1183.125208522181	77
0	2009	1184.681662681856	78
0	2011	1186.49811641129	79
0	2019	1188.997327633892	78
0	2021	1189.665576153212	79
0	2023	1190.214538257242	80
0	2026	1193.341281189718	80
0	2029	1194.874380109388	80
0	2033	1197.568893555996	79
0	2036	1198.763269931462	79
0	2044	1200.807867050828	74
0	2046	1201.950168168266	75
0	2052	1203.949608006406	74
0	2054	1204.124142658255	75
0	2061	1209.962235972627	76
0	2065	1211.990980391573	77
0	2067	1212.740557831875	78
0	2070	1213.803523003623	79
0	2072	1214.324044233986	80
0	2083	1218.614681441416	77
0	2085	1218.630701306499	78
0	2087	1219.080676092586	79
0	2089	1219.776827962526	80
0	2091	1220.306138087217	81
0	2093	1220.840932567129	82
0	2097	1221.933276166294	81
0	2101	1223.832756721608	80
0	2116	1231.670349071484	68
0	2120	1232.092791486583	67
0	2129	1237.224699986226	61
0	2134	1239.27595944542	61
0	2138	1240.151657789466	62
0	2140	1243.66057064818	63
0	2142	1244.568175058422	64
0	2144	1244.928017038203	65
0	2146	1245.509826790036	66
0	2148	1245.952725265238	67
0	2154	1250.885719318971	68
0	2156	1251.808771207742	69
0	2158	1252.859027179038	70
0	2162	1254.942704388099	71
0	2166	1256.432514447653	72
0	2169	1257.855457526599	73
0	2174	1259.426897233446	74
0	2179	1263.957785580517	74
0	2184	1268.347924051053	74
0	2186	1268.380318504538	75
0	2190	1269.839773815504	76
0	2192	1270.289360838033	77
0	2194	1270.953143624544	78
0	2199	1276.067542996818	79
0	2201	1277.399916371122	80
0	2203	1278.031340917509	81
0	2205	1279.383062857854	82
0	2213	1290.691922429825	83
0	2218	1291.59976769476	83
0	2223	1293.441551839097	81
0	2225	1293.898214252989	82
0	2228	1294.669327535701	82
0	2231	1296.114050521082	82
0	2233	1296.776382433865	83
0	2235	1297.345974640934	84
0	2238	1298.996507058282	84
0	2251	1307.408745682713	74
0	2257	1313.486432717047	73
0	2259	1316.294217184686	74
0	2261	1317.469940414706	75
0	2263	1317.761880355598	76
0	2265	1318.164123411528	77
0	2267	1318.354137256583	78
0	2269	1318.721384946023	79
0	2271	1320.683122869362	80
0	2273	1321.2254044906	81
0	2275	1321.948047236108	82
0	2277	1322.499780416618	83
0	2279	1325.716280936445	84
0	2284	1328.692234995517	85
0	2291	1335.798179555762	86
0	2293	1336.439249163608	87
0	2295	1338.6928737499	88
0	2301	1342.406520049481	89
0	2304	1344.400283320409	90
0	2306	1344.404663323047	91
0	2308	1344.894011253403	92
0	2313	1349.817977841398	93
0	2317	1354.420087397646	94
0	2321	1355.562778163567	95
0	2323	1360.169765205138	96
0	2325	1362.833477271036	97
0	2327	1362.989561992194	98
0	2329	1363.156946303952	99
0	2331	1363.459606781491	100
0	2333	1363.631488800847	101
0	2337	1363.995621264869	102
0	2341	1368.709020660767	103
0	2344	1370.59769815477	104
0	2348	1373.040886161935	105
0	2351	1376.525554654005	106
0	2353	1376.834155390847	107
0	2355	1377.335613187688	108
0	2357	1378.952259252948	109
0	2359	1380.84662449694	110
0	2361	1382.084512419462	111
0	2365	1386.827074909388	112
0	2367	1388.28146081858	113
0	2369	1388.411579078285	114
0	2371	1389.134605448421	115
0	2373	1391.278122141915	116
0	2375	1394.935049672622	117
0	2377	1395.583826133288	118
0	2379	1396.065291104458	119
0	2381	1397.104735602537	120
0	2383	1401.5790326995	121
0	2385	1401.894822625578	122
0	2389	1403.118903661375	122
0	2399	1405.233349428496	118
0	2402	1405.498885614826	118
0	2404	1406.360245370557	119
0	2409	1407.775171715424	117
0	2417	1414.436319023744	112
0	2419	1415.038596786741	113
0	2422	1415.236475326557	113
0	2424	1415.558646596194	114
0	2426	1416.572723303553	115
0	2430	1417.580265619433	114
0	2432	1417.758464019906	115
0	2437	1418.763044852964	113
0	2446	1427.861245198271	107
0	2449	1428.524859169834	107
0	2451	1429.600075118784	108
0	2456	1431.705104112729	106
0	2461	1433.675836062032	104
0	2463	1435.045253638877	105
0	2467	1436.482682723666	104
0	2469	1436.679830159004	105
0	2471	1436.778293621824	106
0	2474	1439.430672084623	106
0	2476	1440.090625316163	107
0	2478	1440.092739837788	108
0	2480	1440.140256337359	109
0	2482	1440.771503756605	110
0	2485	1441.463942555652	110
0	2489	1442.668754409953	109
0	2492	1445.575897440951	109
0	2497	1449.130591135476	107
0	2507	1459.716799970816	100
0	2517	1465.161152776612	93
0	2519	1467.256087039105	94
0	2526	1470.058496996278	90
0	2537	1476.977922575961	82
0	2540	1479.031759772158	82
0	2546	1482.001466262918	79
0	2550	1484.533470360249	78
0	2555	1487.448448162214	76
0	2557	1487.612233422357	77
0	2560	1487.895800044018	77
0	2567	1490.001947859163	73
0	2570	1491.786776558324	73
0	2575	1496.895072331694	73
0	2580	1498.356237973062	74
0	2582	1498.906838604558	75
0	2584	1502.456665239511	76
0	2586	1506.692558380612	77
0	2588	1509.412188180587	78
0	2590	1509.611603846437	79
0	2592	1510.979219762328	80
0	2595	1513.251153059723	81
0	2598	1515.735978992123	81
0	2602	1518.169253773946	82
0	2605	1521.782704885754	83
0	2611	1525.241103392994	84
0	2613	1528.231974987472	85
0	2616	1530.213958418476	86
0	2618	1530.428285546279	87
0	2622	1531.53006209074	88
0	2624	1532.006847199175	89
0	2626	1532.331217510789	90
0	2628	1533.097077211726	91
0	2631	1537.969197466306	92
0	2633	1540.49462135942	93
0	2635	1542.410976321562	94
0	2641	1546.767329892186	94
0	2646	1549.143021935814	93
0	2648	1549.737364246354	94
0	2650	1549.802624723963	95
0	2655	1551.648296197784	95
0	2657	1551.797146565363	96
0	2671	1558.600647033148	86
0	2673	1559.147128299182	87
0	2680	1562.499709879374	83
0	2682	1563.616297368068	84
0	2690	1567.767119728924	79
0	2698	1569.744089217836	74
0	2701	1571.179910988201	74
0	2703	1571.243209750199	75
0	2709	1573.632402436856	74
0	2711	1573.785267535744	75
0	2713	1574.680784296195	76
0	2718	1578.146751443129	77
0	2721	1579.333084756385	78
0	2726	1580.472079207358	76
0	2730	1582.50429371121	75
0	2734	1585.53582690353	76
0	2739	1587.719633312877	75
0	2741	1590.903353866964	76
0	2747	1596.118188473297	76
0	2756	1598.741317146627	72
0	2758	1598.807433685864	73
0	2760	1599.701876557765	74
0	2763	1602.60562880392	75
0	2766	1603.151520958558	75
0	2770	1605.731764787129	76
0	2772	1607.133057206748	77
0	2774	1607.177025192406	78
0	2780	1610.887853306082	78
0	2784	1613.602245662861	78
0	2786	1613.762870836908	79
0	2789	1614.595739487238	79
0	2802	1619.031844739557	74
0	2804	1620.537615806209	75
0	2806	1622.687522855892	76
0	2808	1622.953165946337	77
0	2810	1624.662488767204	78
0	2815	1629.959106362618	77
0	2818	1631.642830758976	77
0	2823	1632.651772806462	77
0	2833	1640.941933004041	77
0	2835	1641.464441349333	78
0	2838	1642.372329873386	78
0	2842	1644.879550655518	77
0	2846	1647.194510584185	76
0	2849	1648.92723425929	76
0	2851	1650.139549549817	77
0	2854	1653.221483863169	77
0	2860	1658.604353585318	74
0	2863	1659.183922497014	74
0	2869	1661.636534639302	71
0	2872	1664.526587547447	71
0	2875	1665.272077822424	71
0	2877	1666.277925859413	72
0	2879	1666.75701097273	73
0	2882	1667.891679745111	73
0	2885	1670.220964088237	73
0	2893	1672.165199228153	70
0	2902	1682.743423310776	70
0	2907	1688.616613516163	69
0	2909	1688.697389464816	70
0	2914	1691.015216499307	68
0	2918	1694.329730989505	67
0	2920	1694.368236399666	68
0	2927	1697.541825470886	64
0	2929	1697.763314122219	65
0	2932	1700.586787371922	65
0	2935	1701.180804800099	65
0	2940	1703.290257721709	63
0	2943	1705.521157502751	63
0	2949	1708.94592525913	62
0	2952	1709.560700796241	63
0	2954	1710.166687338221	64
0	2957	1711.085463698333	64
0	2959	1711.287797501803	65
0	2967	1715.225699262031	60
0	2969	1715.283155948753	61
0	2976	1720.626705936496	57
0	2981	1721.834079711102	55
0	2986	1723.19413230954	55
0	2988	1725.283775788345	56
0	2991	1728.033659518242	57
0	2993	1728.103503965391	58
0	2996	1729.288086140938	58
0	2998	1729.984560988631	59
0	3002	1733.014601096938	58
0	3004	1733.575996744624	59
0	3006	1734.204002210703	60
0	3011	1735.604451981351	60
0	3013	1735.633227496861	61
0	3015	1740.533542931518	62
0	3017	1740.764958966606	63
0	3019	1741.957884909277	64
0	3023	1742.512699935462	64
0	3027	1743.645251190985	63
0	3031	1745.236675426276	62
0	3033	1745.315576794378	63
0	3035	1745.614606716302	64
0	3039	1748.429721310709	63
0	3042	1749.870361572368	63
0	3047	1755.426387605743	64
0	3051	1755.710987747539	63
0	3053	1756.69930669462	64
0	3057	1757.954836329758	63
0	3061	1758.894101945226	62
0	3071	1764.237633031616	55
0	3077	1767.078972143821	52
0	3083	1770.092408754415	53
0	3088	1775.806100839215	53
0	3093	1776.529367386246	53
0	3095	1779.346434853309	54
0	3101	1783.426842687448	55
0	3103	1784.434911088791	56
0	3105	1785.170972632978	57
0	3107	1785.574773795106	58
0	3110	1787.670281370341	59
0	3112	1789.737064951335	60
0	3115	1791.638246123796	61
0	3117	1792.341675615797	62
0	3121	1794.57975278101	62
0	3123	1794.589188061517	63
0	3128	1798.470660063975	61
0	3134	1800.765072680551	61
0	3140	1802.99549017624	58
0	3142	1804.014530944982	59
0	3154	1808.102429665022	50
0	3156	1808.810349620762	51
0	3158	1809.016342535637	52
0	3162	1810.685777240422	53
0	3164	1812.603667620989	54
0	3167	1815.006853472151	55
0	3175	1818.496893048949	55
0	3177	1818.548472442748	56
0	3183	1825.89843182209	57
0	3189	1829.443757035215	58
0	3191	1830.611948492567	59
0	3196	1832.126709546147	60
0	3198	1832.167178242339	61
0	3200	1832.581222891804	62
0	3203	1835.589211455842	63
0	3205	1837.06284864094	64
0	3208	1839.007043149897	65
0	3212	1840.888404850498	64
0	3216	1843.278217576623	65
0	3218	1845.519408669694	66
0	3222	1850.86460996834	67
0	3224	1850.919277810618	68
0	3227	1854.071928370954	69
0	3232	1856.496970257831	68
0	3238	1858.283081080962	69
0	3240	1858.768308424599	70
0	3242	1859.355367895478	71
0	3244	1860.659332236229	72
0	3246	1861.016827344739	73
0	3248	1863.644007851518	74
0	3250	1864.996079051222	75
0	3252	1865.403086394185	76
0	3257	1872.13155760646	76
0	3260	1874.191203643092	76
0	3264	1877.39266908225	75
0	3270	1883.549660085259	72
0	3272	1883.644795315303	73
0	3275	1884.382034149793	73
0	3278	1885.939334982839	73
0	3281	1887.053638006467	73
0	3283	1887.081977452844	74
0	3285	1887.149208157242	75
0	3289	1888.650703247247	76
0	3291	1889.484027486854	77
0	3294	1890.868921388046	78
0	3296	1891.039053578364	79
0	3298	1891.221709984405	80
0	3302	1893.988222041289	81
0	3305	1896.794189095102	82
0	3311	1898.787659877484	83
0	3314	1900.550746763597	84
0	3316	1905.281091576385	85
0	3318	1905.461652592702	86
0	3321	1905.960987009628	87
0	3323	1906.825085960887	88
0	3328	1908.900156885552	86
0	3331	1909.147455277079	86
0	3335	1911.314556196168	87
0	3340	1912.589347125187	88
0	3342	1913.313824647011	89
0	3344	1913.894548201411	90
0	3348	1914.477044758662	91
0	3350	1914.800468807331	92
0	3352	1915.022601077185	93
0	3357	1917.764349969714	93
0	3361	1918.600009926144	94
0	3363	1920.219292042901	95
0	3365	1921.468260373714	96
0	3369	1922.607321134866	97
0	3371	1924.485403501916	98
0	3375	1926.314826383983	99
0	3377	1926.765925457975	100
0	3379	1928.487665878186	101
0	3381	1929.541921298706	102
0	3384	1932.158422642642	103
0	3387	1934.06843074423	104
0	3396	1938.157100612046	104
0	3398	1940.743796881142	105
0	3403	1943.587426999522	104
0	3409	1946.020545630936	103
0	3411	1949.340599305765	104
0	3413	1949.396177508186	105
0	3415	1950.176099480856	106
0	3417	1952.406390369456	107
0	3421	1953.109468866719	107
0	3425	1953.579287312387	106
0	3428	1954.098366608528	106
0	3430	1954.159135785161	107
0	3432	1955.33697016307	108
0	3436	1957.240090367341	107
0	3440	1961.518361063718	108
0	3444	1962.429410417379	108
0	3448	1963.321814543037	107
0	3453	1967.493555465752	105
0	3455	1967.763104830852	106
0	3460	1970.929091539889	104
0	3467	1975.165128126325	100
0	3471	1977.071928884493	101
0	3478	1981.005452185584	98
0	3486	1985.939161253884	93
0	3489	1986.530082696453	93
0	3491	1986.556367531527	94
0	3494	1986.986910506883	94
0	3496	1987.647082812626	95
0	3498	1987.754040189691	96
0	3504	1991.585013389445	93
0	3510	1995.77538178431	93
0	3520	1998.743545027623	86
1	0	0	0
1	2	0.75264629425	0
1	10	5.381208567215	1
1	12	7.018630966126	2
1	14	8.105245872158	3
1	16	8.714048889743	4
1	19	8.968425506525	5
1	21	9.383626188761	6
1	24	10.976944351315	7
1	27	12.30766896559	8
1	28	12.665910174029	8
1	29	13.218262390977	7
1	30	14.098270781014	6
1	32	14.122988721323	6
1	33	14.999389424639	6
1	34	15.300535121722	5
1	35	15.376817973801	4
1	36	15.676527316508	3
1	38	17.53375590691	3
1	39	17.845741179875	3
1	41	18.416997429072	3
1	42	19.106396468957	3
1	43	19.252337689187	2
1	44	20.275264711738	1
1	45	20.281133327616	0
1	49	21.875493531906	0
1	51	22.299213638115	0
1	53	24.091811307988	0
1	54	24.980073522004	0
1	56	27.162417747113	0
1	57	27.767082078263	0
1	59	27.767197096903	0
1	61	28.413808665414	1
1	62	28.457024406967	1
1	63	29.041618952234	0
1	67	29.422333027446	0
1	70	30.350122904316	1
1	74	30.494477614981	2
1	76	30.868851178583	3
1	78	31.589409702716	3
1	80	31.599196542997	3
1	81	31.817788412067	3
1	83	32.409059250928	3
1	84	33.14115019274	3
1	86	34.010258131425	3
1	87	34.597682786115	3
1	89	35.40598165762	3
1	93	41.478676750703	4
1	95	42.137159201863	4
1	97	42.504236720134	4
1	99	42.72098763053	5
1	101	42.740684898706	6
1	102	43.155589638403	6
1	103	45.994670758024	5
1	107	50.360939657569	5
1	109	52.375223559013	6
1	111	52.710648939055	7
1	113	52.842244102313	8
1	115	53.543106620868	9
1	117	54.446877295884	10
1	119	56.063547868243	10
1	121	57.555994640485	10
1	123	59.369899573306	11
1	124	59.393195317139	11
1	125	59.934698671931	10
1	126	59.986436713942	9
1	130	64.19692699721	8
1	131	64.51957217636	7
1	132	64.604501802686	6
1	133	65.21402662986	5
1	134	65.696548571211	4
1	136	65.808424240229	4
1	137	66.01972761946	4
1	139	66.179718649314	4
1	140	66.636340396413	4
1	145	69.078234138308	4
1	146	71.333651964344	4
1	148	71.567796193049	4
1	149	72.023583803866	4
1	151	72.936866628033	4
1	153	73.592701867255	5
1	154	75.545087404568	5
1	155	76.472041808498	4
1	157	76.501933909872	4
1	159	77.123451528821	5
1	160	78.264738416269	5
1	161	78.320390067081	4
1	162	78.664200197826	3
1	163	79.464603161995	2
1	165	79.573493300298	2
1	166	79.863699646702	2
1	168	80.308598471643	2
1	170	80.819096839514	3
1	172	80.926329690258	4
1	173	81.634490242759	4
1	175	82.235984738097	4
1	177	82.540706204423	5
1	179	82.624583604952	6
1	181	83.375323345286	7
1	183	83.507431229175	8
1	187	84.762438631669	9
1	189	86.254600597013	10
1	191	88.922726655746	11
1	194	90.713515569504	12
1	195	91.361555174001	12
1	197	92.050031545332	12
1	198	92.226800364318	12
1	199	93.907881025692	11
1	200	93.941596615274	10
1	201	96.18993248176	9
1	203	96.244086590606	9
1	205	98.923548038111	10
1	206	100.733469450728	10
1	207	101.350570771013	9
1	208	103.24475579661	8
1	209	103.570945986185	7
1	210	105.541191971088	6
1	212	105.606681866353	6
1	214	105.672710918846	7
1	215	106.031565953228	7
1	217	106.617541613439	7
1	222	113.108890665524	8
1	224	113.349654202974	9
1	225	114.10289513723	9
1	226	114.236348328425	8
1	228	114.256924691865	8
1	229	115.098310139575	8
1	230	115.426861580013	7
1	231	117.26822227059	6
1	232	118.289672839253	5
1	236	120.552998950037	4
1	237	120.643370096743	3
1	238	121.039012300521	2
1	239	121.185530446511	1
1	240	121.724723115096	0
1	242	121.734065269054	0
1	246	123.057170914575	1
1	248	124.426062795332	2
1	250	126.314588163112	3
1	252	126.330294483812	4
1	254	126.917313013252	5
1	256	129.506976157531	6
1	258	131.430969784517	6
1	259	131.796354402008	5
1	260	134.009557183334	4
1	262	134.219863035746	4
1	263	134.375150836521	4
1	265	134.744265609856	4
1	266	135.108067346768	4
1	270	135.372848841288	4
1	272	141.670616083859	5
1	274	147.069681302969	6
1	276	147.473448436132	7
1	278	147.642760620667	8
1	280	148.769754808481	8
1	281	150.62944066862	7
1	282	150.935480895662	6
1	283	153.110352829752	5
1	284	153.324769079782	4
1	286	154.27654848803	4
1	295	164.498054545343	5
1	302	173.773124138639	6
1	306	174.654451801503	7
1	310	175.602188187568	8
1	313	177.262510707576	9
1	315	180.630523535363	10
1	317	182.633433785694	11
1	319	185.792490506353	12
1	321	185.815596060121	13
1	325	192.5917733641	14
1	327	192.681167277104	15
1	329	192.841695862966	16
1	331	201.597605530706	17
1	334	203.646356490263	18
1	336	203.792260857395	19
1	343	208.016271969787	20
1	345	209.990731198886	21
1	348	211.565649839496	22
1	350	212.68459173941	22
1	351	213.531310030653	21
1	352	214.83240988992	20
1	354	215.548777475639	20
1	355	215.825858810984	20
1	356	215.898101476537	19
1	357	215.930761720483	18
1	358	216.03073069969	17
1	359	217.01887371513	16
1	360	217.172824281754	15
1	361	217.352055983866	14
1	362	218.3876196085	13
1	363	218.464913385834	12
1	364	219.351388756552	11
1	365	220.034007794195	10
1	366	220.036292330196	9
1	367	220.516455572083	8
1	368	222.028928344302	7
1	369	222.882285400395	6
1	371	223.898608857253	6
1	373	224.078877501857	7
1	374	224.988089858224	7
1	378	225.521471166081	7
1	380	225.716499680383	8
1	382	226.30548031597	9
1	385	226.723996845741	10
1	386	226.940357263049	10
1	388	228.386845532433	10
1	390	228.795401040564	11
1	394	229.737545726401	12
1	396	231.435110213628	13
1	402	235.862417715628	14
1	404	237.47659165098	15
1	406	239.229201348922	16
1	407	240.410015812823	16
1	409	241.331297786294	16
1	411	242.994939022365	17
1	413	243.16726715889	18
1	417	244.014241588804	19
1	420	245.141139930906	20
1	424	247.041472442713	21
1	426	247.941636031433	22
1	428	249.653681188067	22
1	429	250.99901638362	21
1	431	251.061660659126	21
1	432	252.800091874647	21
1	434	255.696507598868	21
1	438	256.154942763784	21
1	439	256.537707290544	20
1	441	256.826454356662	20
1	442	258.762809045594	20
1	443	258.961938730448	19
1	445	260.165006530417	19
1	447	260.472637646879	20
1	449	262.162980045218	21
1	451	262.220547706207	22
1	452	264.022970040149	22
1	453	264.52605102728	21
1	455	264.872822823152	21
1	457	264.893228074191	22
1	459	265.987647107715	23
1	460	266.34044680195	23
1	461	266.61608862305	22
1	462	266.869861586741	21
1	463	268.383401875157	20
1	465	268.796837610493	20
1	466	270.766893323414	20
1	467	271.809738139376	19
1	468	272.282611508306	18
1	470	273.790214503004	18
1	472	273.891559351931	19
1	473	275.772042133214	19
1	474	275.958795489752	18
1	475	276.394254097725	17
1	476	276.567805411398	16
1	478	276.590121074068	16
1	479	276.765932448193	16
1	481	278.413353450164	16
1	483	279.911497674696	17
1	484	280.128141181267	17
1	485	280.136494554195	16
1	486	280.29852808186	15
1	488	280.563611388722	15
1	496	283.511947632143	16
1	497	284.308041879065	16
1	498	284.462889531784	15
1	502	287.249652929796	15
1	504	288.481290117042	16
1	506	290.291061880133	16
1	507	290.357506475056	15
1	508	290.902912384479	14
1	509	292.334613130282	13
1	510	292.341392737497	12
1	511	292.520927957418	11
1	512	293.38265416715	10
1	513	293.805149531526	9
1	514	294.019019069296	8
1	515	294.136432637251	7
1	516	294.2134778002	6
1	517	295.213212594676	5
1	518	296.098972086189	4
1	519	297.658011847076	3
1	521	297.697585606025	3
1	525	302.327718309172	4
1	528	303.971058542696	5
1	530	304.184416635628	6
1	532	307.272541080641	7
1	533	307.832189310827	7
1	535	307.992870000169	7
1	536	309.14280636243	7
1	537	311.16734984288	6
1	538	314.179981870311	5
1	539	314.329648614882	4
1	541	315.355320180502	4
1	545	319.049900033755	5
1	547	320.115604805207	5
1	548	322.367825247525	4
1	549	322.389509000567	3
1	551	322.466940108781	3
1	553	322.549107389195	4
1	554	322.705126089228	4
1	555	324.130933229327	3
1	556	324.652097219126	2
1	557	325.251716743111	1
1	558	325.869449399697	0
1	560	326.455030139703	0
1	561	327.196646542948	0
1	563	331.499180229373	0
1	565	332.251397234617	1
1	566	335.426157540873	1
1	568	336.069175934249	1
1	570	336.708107283653	2
1	572	336.920066013921	3
1	573	336.953243854569	3
1	574	337.243591575985	2
1	576	339.910732674741	2
1	578	340.612577800948	3
1	579	341.199105658595	3
1	583	343.046026549598	3
1	585	344.162162624841	4
1	587	344.441399639763	5
1	589	344.76360843206	6
1	591	347.35875447922	6
1	593	347.389091043429	6
1	595	347.727175409365	7
1	596	348.630298483443	7
1	598	348.69891274286	7
1	599	349.75360278194	7
1	600	350.538371820184	6
1	601	350.952654052565	5
1	603	352.100982546329	5
1	605	353.496332692786	6
1	607	353.693332364198	7
1	609	353.8217268213	8
1	610	354.646533220557	8
1	612	354.918498696363	8
1	614	356.134016128722	9
1	615	357.009323544373	9
1	616	358.942172461235	8
1	618	359.025475630306	8
1	619	359.317442553724	8
1	620	360.719776508452	7
1	621	360.760686229442	6
1	622	361.270979913673	5
1	633	365.718794501275	5
1	634	365.92256984488	5
1	635	365.98148652839	4
1	636	366.030015788197	3
1	637	366.105584693649	2
1	639	366.633048010595	2
1	643	368.280822066809	3
1	650	373.483082305647	4
1	653	375.395727673292	5
1	655	379.602607956219	5
1	656	379.671287864971	4
1	657	379.81602369674	3
1	658	380.045695713012	2
1	660	380.997597977286	2
1	661	381.208832708792	2
1	663	381.30328980097	2
1	665	381.335432199868	3
1	666	382.486414019487	3
1	668	382.615149174211	3
1	669	382.669725629333	3
1	670	382.76629391431	2
1	671	383.586659117267	1
1	672	383.604566403877	0
1	674	387.943534002019	0
1	676	388.171891842473	1
1	677	390.271938867019	1
1	678	390.510978988858	0
1	680	392.735398698076	0
1	681	392.993757235733	0
1	683	393.644339281099	0
1	685	394.115652469073	1
1	686	396.252340199343	1
1	688	396.500469750562	1
1	689	397.517717876117	1
1	690	398.72194815505	0
1	694	404.118507275656	0
1	696	404.618484675802	1
1	699	405.330937933121	2
1	700	405.825719767834	2
1	702	407.068255192887	2
1	703	408.617799456075	2
1	704	408.72702927323	1
1	705	410.693671995328	0
1	707	411.358164274769	0
1	708	412.039796680107	0
1	710	412.976989498606	0
1	711	413.158545743148	0
1	713	413.333034284405	0
1	714	413.869470366262	0
1	716	415.592786640797	0
1	718	415.869855419653	1
1	719	415.945923038562	1
1	720	416.140467599621	0
1	722	417.713642038519	0
1	723	418.184397179082	0
1	725	418.623128988904	0
1	727	418.87142067057	1
1	728	418.928909208834	1
1	729	419.799123566156	0
1	731	426.279117298618	0
1	733	427.107544310119	1
1	737	429.71325193755	2
1	739	430.335195268304	3
1	741	431.374069977818	4
1	743	434.130956436871	5
1	745	434.510951138334	6
1	747	435.857877714222	7
1	749	439.506563465888	7
1	750	439.576290675032	6
1	751	441.430256958108	5
1	753	447.870859355985	5
1	755	448.080583654584	6
1	756	448.967427641488	6
1	757	449.430719937789	5
1	758	449.524176447742	4
1	759	451.775770572693	3
1	760	451.920296160688	2
1	762	452.579188607344	2
1	763	453.234461036835	2
1	765	453.530348051039	2
1	767	454.287659671422	3
1	768	454.629014472339	3
1	769	455.653640948317	2
1	771	455.666627987273	2
1	773	456.00764506304	3
1	774	456.84251088599	3
1	775	457.494210451337	2
1	776	458.263428611997	1
1	777	458.681389610682	0
1	779	459.078108371655	0
1	781	459.333315329908	1
1	782	460.852497563075	1
1	783	461.678011905319	0
1	785	466.541773006299	0
1	786	467.108817629503	0
1	788	468.352864196076	0
1	789	468.544928214971	0
1	791	472.37668697384	0
1	792	472.662833144297	0
1	794	473.802441179957	0
1	795	475.227379281006	0
1	797	477.609658985202	0
1	799	478.727938321175	1
1	801	478.826889577386	2
1	803	479.991175071858	3
1	805	480.03475480291	4
1	809	481.490580396587	5
1	811	486.300429694279	5
1	813	486.771861299878	5
1	814	486.953905024208	5
1	815	487.520448612539	4
1	816	488.914150485395	3
1	818	490.311746576484	3
1	820	490.794332111754	4
1	821	491.259393614819	4
1	822	491.487886734631	3
1	823	491.842096307553	2
1	824	491.862613889501	1
1	825	492.067557050917	0
1	827	493.824080019608	0
1	828	494.290812157601	0
1	830	495.368622394217	0
1	831	496.450120174343	0
1	833	497.523996579115	0
1	834	497.790404744105	0
1	838	499.283502567086	0
1	840	508.425633993784	1
1	844	512.319019978195	2
1	846	512.692794965837	3
1	854	518.806109531701	4
1	856	525.76068746295	5
1	859	528.914471504791	6
1	861	530.035264975495	7
1	863	530.908936200877	8
1	865	532.593509419496	9
1	867	532.858762825604	10
1	869	532.928021252488	11
1	871	538.862621598687	12
1	873	541.419270119789	13
1	875	542.65702111895	13
1	876	543.522714296893	12
1	878	543.617699752385	12
1	880	544.461937110071	13
1	882	545.275629663135	14
1	884	545.900714162924	15
1	885	549.653867576857	15
1	886	550.126833401543	14
1	890	550.265955723096	14
1	892	551.845063725095	15
1	894	553.326205208399	16
1	896	553.799925425517	17
1	901	556.491192525252	17
1	906	562.777828853615	17
1	908	562.834590110181	18
1	910	563.828149409559	19
1	912	565.64337842817	20
1	913	566.52091681554	20
1	914	567.64033779289	19
1	915	568.898555682396	18
1	916	569.104612960404	17
1	917	569.777800772018	16
1	919	570.409360071419	16
1	920	571.548608331365	16
1	921	572.684400949876	15
1	922	573.168539795197	14
1	924	573.1742249137	14
1	925	573.837084879642	14
1	926	574.221986202679	13
1	927	574.502470595154	12
1	929	576.520784282654	12
1	930	576.54230761426	12
1	931	577.093308433095	11
1	932	577.953291921497	10
1	933	578.020378876745	9
1	934	579.663276792614	8
1	935	579.900304598161	7
1	936	579.987126806547	6
1	937	580.054513452374	5
1	939	580.193287498714	5
1	941	580.222064286424	6
1	942	581.195325286195	6
1	944	581.7445680011	6
1	945	582.489588000037	6
1	947	583.666127316564	6
1	948	584.033339621287	6
1	949	584.807329643432	5
1	950	585.113500404885	4
1	952	586.04791793066	4
1	953	586.444356524122	4
1	954	586.495977002808	3
1	955	587.360279751094	2
1	957	587.702828126476	2
1	958	588.42652833902	2
1	959	589.607871688483	1
1	963	590.383184362792	1
1	965	598.291848828411	2
1	967	598.473176731766	3
1	969	599.581182265764	4
1	971	600.425549358177	5
1	973	602.114672716389	6
1	977	604.26684140885	7
1	980	607.086375078989	8
1	982	608.684742806032	8
1	984	609.449570249182	8
1	986	610.103170855538	9
1	987	610.293605328081	9
1	988	611.267966767354	8
1	989	612.76679195399	7
1	990	614.182193185657	6
1	992	614.193137857552	6
1	993	614.353575489126	6
1	994	615.142842902916	5
1	995	615.306657008279	4
1	997	615.324308859061	4
1	999	615.603481915311	5
1	1001	616.403157301163	6
1	1002	617.196184880527	6
1	1004	617.874136867069	6
1	1005	617.93514551106	6
1	1007	618.012354585648	6
1	1008	618.24490301476	6
1	1009	618.623356212676	5
1	1011	620.24227315609	5
1	1012	620.276627054027	5
1	1014	620.830958334618	5
1	1018	622.351963318142	6
1	1020	622.876036551454	7
1	1022	623.261789785125	8
1	1024	624.633855270311	9
1	1026	625.080409581039	9
1	1027	625.135143060183	8
1	1031	625.879924923571	8
1	1033	626.285701094033	9
1	1035	626.718043759522	9
1	1036	626.982374179131	8
1	1038	627.083728510484	8
1	1040	629.547040089878	9
1	1041	630.245076775356	9
1	1042	631.901268990715	8
1	1043	631.942545707939	7
1	1044	633.344502512934	6
1	1045	633.350654785344	5
1	1046	633.888989061756	4
1	1047	634.208424150343	3
1	1048	634.361573380349	2
1	1050	634.655381861913	2
1	1051	635.365108011739	2
1	1053	637.05018226791	2
1	1054	637.159591709141	2
1	1055	637.182395637891	1
1	1056	637.369450415329	0
1	1058	638.681114420249	0
1	1060	639.097459136803	1
1	1062	639.706750655901	2
1	1063	639.964146444989	2
1	1064	640.24230817436	1
1	1066	640.260303971945	1
1	1068	642.097272067097	2
1	1069	642.512212738023	2
1	1070	643.538889982784	1
1	1072	643.745155230938	1
1	1073	644.423958172656	1
1	1075	645.310932369927	1
1	1076	645.3745494432	1
1	1078	646.240949558146	1
1	1079	646.318772032655	1
1	1081	646.384359126545	1
1	1082	647.095295422097	1
1	1083	648.145934538116	0
1	1085	651.14623978423	0
1	1086	651.770448225968	0
1	1088	652.248146971361	0
1	1089	652.476712320189	0
1	1093	653.900935033949	0
1	1095	656.159561141877	0
1	1097	657.287509382361	0
1	1099	658.13790583129	1
1	1100	658.394669119743	1
1	1102	658.457927256461	1
1	1103	658.526705893881	1
1	1104	658.847118044621	0
1	1106	661.117832781748	0
1	1107	662.142922164155	0
1	1109	665.513375711065	0
1	1110	667.872811358983	0
1	1112	668.814162492418	0
1	1113	669.134221515276	0
1	1115	676.897175892978	0
1	1116	678.492076739614	0
1	1118	681.22576874422	0
1	1119	681.238151827501	0
1	1121	682.03320898153	0
1	1123	682.224520714409	1
1	1124	682.945292850721	1
1	1126	683.747181016713	1
1	1127	683.822012746814	1
1	1129	684.721231517573	1
1	1130	685.573360952657	1
1	1132	685.638493960211	1
1	1133	685.724683290701	1
1	1134	687.011844693923	0
1	1136	688.639084674045	0
1	1137	690.466955031388	0
1	1139	691.443789844763	0
1	1141	691.73531377678	1
1	1143	693.079015605484	2
1	1144	693.361240647186	2
1	1145	693.498811475929	1
1	1147	694.478695308818	1
1	1148	695.720154377778	1
1	1150	696.141168406723	1
1	1151	696.449145718265	1
1	1152	696.908168005711	0
1	1156	698.606275934517	0
1	1158	703.329198351317	1
1	1162	708.378114596832	2
1	1164	708.547310053237	3
1	1167	709.274979531028	4
1	1169	710.111529813851	5
1	1171	710.511931088505	6
1	1173	710.524806052939	7
1	1175	711.478653825703	8
1	1177	712.259206036632	9
1	1179	714.862497807402	10
1	1181	716.301675055426	11
1	1183	718.575128175646	11
1	1184	718.895580529905	10
1	1186	718.961989744298	10
1	1187	719.566791366428	10
1	1189	720.697636819979	10
1	1190	720.97809362737	10
1	1191	721.765960352852	9
1	1192	721.940421267701	8
1	1193	722.881332428351	7
1	1194	723.923837166516	6
1	1196	724.220040074282	6
1	1198	724.285400587509	7
1	1200	724.652280468318	8
1	1202	725.050816073197	9
1	1204	726.709441663212	10
1	1205	726.95591854723	10
1	1206	726.974057745096	9
1	1208	727.212745063062	9
1	1209	727.531075271663	9
1	1211	727.728332329238	9
1	1212	728.418414191838	9
1	1214	728.921070099929	9
1	1215	729.893213823259	9
1	1216	729.93165017185	8
1	1217	730.322865990056	7
1	1218	730.419169421077	6
1	1219	730.546457758795	5
1	1220	731.400064762384	4
1	1221	731.802760177922	3
1	1223	731.838771896473	3
1	1225	732.089482776604	4
1	1227	732.279788995233	5
1	1229	732.880319290404	6
1	1230	734.507123516853	6
1	1232	736.487959425209	6
1	1233	736.519018399322	6
1	1235	736.732915120174	6
1	1236	737.436050486313	6
1	1238	737.82284042542	6
1	1239	740.538650858321	6
1	1240	741.750279615511	5
1	1242	741.939511491729	5
1	1243	742.283048155993	5
1	1244	742.580088665248	4
1	1245	742.986796090954	3
1	1246	743.620353365739	2
1	1248	743.990763147291	2
1	1250	744.464769254592	3
1	1251	744.590372752431	3
1	1252	745.01590584356	2
1	1253	745.056468296679	1
1	1254	746.153901062725	0
1	1259	750.393122180543	0
1	1260	750.705138850446	0
1	1262	752.24871243464	0
1	1263	753.213118065923	0
1	1265	754.158539783723	0
1	1267	754.439847423032	1
1	1269	755.305023277498	2
1	1271	755.459554033053	3
1	1276	756.358697446502	4
1	1280	758.960361122014	4
1	1281	758.981490288811	3
1	1283	759.719242160395	3
1	1284	761.584116662052	3
1	1286	761.91892961385	3
1	1288	762.308799442357	4
1	1289	762.348826604312	4
1	1291	763.044512870218	4
1	1293	763.680559174767	5
1	1294	763.750428933988	5
1	1295	764.750683139735	4
1	1296	766.106952032912	3
1	1297	766.152742827969	2
1	1299	766.201810556445	2
1	1300	766.46385585158	2
1	1302	766.50967353287	2
1	1303	768.374473066151	2
1	1304	768.954008616894	1
1	1306	769.164043018151	1
1	1307	769.758569423862	1
1	1309	770.583258629172	1
1	1311	771.609665866398	2
1	1312	771.987350709752	2
1	1313	772.605263989942	1
1	1314	773.229450344786	0
1	1318	774.684321163638	0
1	1320	775.311248205121	1
1	1322	776.719489669158	1
1	1323	777.206387638662	0
1	1325	780.661848934986	0
1	1327	781.503300564403	1
1	1328	781.786329311104	1
1	1329	781.944089989795	0
1	1331	782.830783235472	0
1	1333	783.037432904826	1
1	1335	783.284478535474	2
1	1336	783.394256582675	2
1	1340	785.828505080431	2
1	1342	789.116723568806	3
1	1345	790.74148355289	4
1	1346	791.738785480057	4
1	1348	792.073701820842	4
1	1350	793.488220685925	5
1	1351	793.825038583136	5
1	1355	796.100902473135	5
1	1357	798.244339336707	6
1	1359	799.251447762525	7
1	1361	799.447612998069	8
1	1363	802.318953800704	9
1	1366	803.658232497933	10
1	1367	804.018154003005	10
1	1369	805.853291361923	10
1	1371	806.306233476097	11
1	1372	807.382474227141	11
1	1373	809.715903573317	10
1	1375	810.050692978459	10
1	1376	810.476114105742	10
1	1377	810.882213231289	9
1	1378	811.393941668486	8
1	1379	812.291850515635	7
1	1381	812.814047183312	7
1	1382	812.980011293697	7
1	1384	812.989992757874	7
1	1385	813.890317741837	7
1	1387	814.723181923022	7
1	1388	815.086514050774	7
1	1390	815.228624485937	7
1	1392	815.506937423596	8
1	1393	815.800311749443	8
1	1394	815.944212074091	7
1	1396	819.228649441616	7
1	1397	819.857954730074	7
1	1398	819.968559527713	6
1	1400	820.508615511367	6
1	1404	825.502842653723	7
1	1407	828.744984744613	8
1	1409	829.38478555285	9
1	1410	830.380692788104	9
1	1411	830.527253706122	8
1	1412	832.059921291378	7
1	1414	832.690157308762	7
1	1416	832.806721418133	8
1	1418	834.368932348134	9
1	1420	834.398602326384	10
1	1422	835.28523964206	11
1	1423	836.129308925347	11
1	1425	836.315871892901	11
1	1426	837.940258439452	11
1	1427	838.645387184737	10
1	1429	839.000674265373	10
1	1431	839.228668805938	11
1	1433	841.359020556643	12
1	1435	841.676229168856	13
1	1436	841.965034937175	13
1	1438	842.463663253401	13
1	1442	844.577604462977	13
1	1443	844.665006179752	12
1	1444	845.763656141128	11
1	1446	845.815211767421	11
1	1450	846.28536301752	12
1	1452	846.735532759274	13
1	1456	849.129704099758	14
1	1458	851.478128130762	15
1	1462	851.742152595722	16
1	1465	861.142008872334	17
1	1468	861.519323957585	18
1	1470	862.416436949873	19
1	1472	863.877528471143	20
1	1474	866.898393823178	21
1	1476	867.212911316725	22
1	1478	870.947269461779	22
1	1479	871.119012377811	21
1	1481	871.159936685187	21
1	1485	872.574926630172	21
1	1487	872.738025382064	21
1	1489	873.186322880741	22
1	1491	873.33854439256	23
1	1492	873.349532106784	23
1	1493	873.7944451432	22
1	1494	874.912586557318	21
1	1496	875.080358522688	21
1	1497	877.78439351623	21
1	1498	878.694393045433	20
1	1500	880.548188300274	20
1	1501	881.802904575661	20
1	1503	882.943787433613	20
1	1504	884.038914906718	20
1	1506	884.069581040373	20
1	1508	884.751965390417	21
1	1510	885.328508229778	22
1	1512	886.359305946382	23
1	1513	887.590425248096	23
1	1514	888.563995168742	22
1	1518	890.541946829909	22
1	1522	894.141861840146	23
1	1524	894.275971457411	24
1	1529	899.294154438502	25
1	1531	899.529283632786	26
1	1533	901.668818966393	27
1	1539	907.742852172351	28
1	1541	908.702220332389	28
1	1543	908.742530790269	28
1	1544	910.663968174864	28
1	1545	911.015609355019	27
1	1549	913.048340870983	26
1	1551	913.123501117069	26
1	1552	913.790917939411	26
1	1553	913.822627956261	25
1	1554	914.289346026444	24
1	1555	914.833457322771	23
1	1556	915.977634968498	22
1	1557	916.667207835584	21
1	1558	917.589870176718	20
1	1559	918.044762249753	19
1	1560	918.659583727996	18
1	1561	918.815769576558	17
1	1563	919.277410283968	17
1	1565	919.604127469964	18
1	1567	920.02567664432	19
1	1569	920.151803411196	20
1	1571	920.296471060783	21
1	1572	920.56288405901	21
1	1573	921.323406455304	20
1	1574	921.348188170959	19
1	1575	921.462523530361	18
1	1579	921.868572919377	18
1	1581	923.758680940121	19
1	1583	924.729167955626	20
1	1585	925.094543155301	21
1	1587	925.495569758461	22
1	1591	927.938354951283	23
1	1593	928.238496585459	24
1	1595	928.711592129302	25
1	1599	931.601825965059	26
1	1601	931.644235952009	27
1	1603	934.375593705532	28
1	1606	934.560798665161	29
1	1608	935.037769159382	30
1	1610	935.093855082329	31
1	1614	938.59956552555	32
1	1616	941.251678902798	33
1	1619	943.612410431554	34
1	1621	944.519619517501	35
1	1627	951.044724035418	36
1	1629	953.634147283604	37
1	1631	954.470682614944	38
1	1635	958.996617659276	39
1	1639	961.235091557665	40
1	1641	961.408648440125	41
1	1643	961.836251328338	42
1	1645	962.723077691506	43
1	1647	963.035516115821	44
1	1649	963.167809895717	45
1	1651	963.390411500226	46
1	1653	963.676942038681	47
1	1655	964.082828680816	48
1	1657	966.596568208605	49
1	1659	967.4859542978	50
1	1661	967.62053346875	51
1	1664	968.966696169697	52
1	1666	969.828165900584	53
1	1668	970.027283484735	54
1	1670	971.541673802897	55
1	1674	973.51578500687	56
1	1677	979.845401845801	57
1	1679	980.230622485135	58
1	1682	982.460053038483	59
1	1684	983.190244616752	59
1	1686	983.245648284385	59
1	1688	984.099019157836	60
1	1689	985.56113452259	60
1	1691	986.393373968429	60
1	1692	986.954053516266	60
1	1693	987.170991111781	59
1	1694	987.460424409217	58
1	1695	988.441977905418	57
1	1697	988.444810654516	57
1	1698	990.410347580167	57
1	1700	990.565401256551	57
1	1702	991.233558566291	58
1	1704	991.268822632488	59
1	1705	991.414635764854	59
1	1706	991.495967820603	58
1	1707	992.529177490076	57
1	1708	993.622032144886	56
1	1712	998.646433789984	56
1	1714	1000.912580052848	57
1	1716	1001.635427574681	58
1	1719	1008.614656525935	59
1	1721	1008.824140125721	60
1	1722	1009.167744405252	60
1	1723	1009.757591240699	59
1	1724	1010.396658130971	58
1	1725	1010.519506753831	57
1	1726	1011.83052845717	56
1	1728	1011.963822133828	56
1	1730	1012.483993084497	57
1	1731	1013.642159665226	57
1	1733	1013.889283778232	57
1	1734	1014.23472672503	57
1	1736	1014.660801862531	57
1	1737	1015.158315159899	57
1	1739	1015.213699390051	57
1	1741	1015.82366171993	58
1	1742	1017.113202329663	58
1	1744	1017.330933825386	58
1	1745	1020.211074810083	58
1	1746	1020.406504108723	57
1	1751	1021.660463943119	57
1	1755	1023.0655932534	58
1	1759	1024.463535711809	59
1	1761	1025.537275440072	60
1	1763	1026.567584997331	61
1	1765	1026.692085632855	62
1	1767	1029.699305890515	63
1	1770	1033.421816556959	64
1	1772	1033.830842428436	65
1	1774	1035.479416839658	66
1	1778	1036.800343330411	67
1	1780	1038.169034996927	68
1	1782	1038.663624287329	69
1	1787	1050.110150933541	70
1	1789	1050.547325713025	71
1	1794	1054.32398306829	72
1	1799	1057.699890483502	73
1	1803	1060.404845731302	74
1	1806	1064.193619092607	75
1	1808	1064.512370146146	76
1	1810	1066.166747117604	77
1	1812	1066.596859192082	78
1	1815	1070.028444501432	78
1	1817	1071.256032061707	78
1	1818	1071.964861524393	78
1	1820	1072.238827584969	78
1	1821	1072.496301469548	78
1	1822	1072.872492408856	77
1	1823	1074.054500405551	76
1	1824	1074.32486215922	75
1	1826	1074.505400358761	75
1	1827	1075.2069371413	75
1	1828	1075.223513277429	74
1	1830	1076.365648586305	74
1	1832	1076.645122201945	75
1	1834	1076.931728063453	76
1	1838	1077.93938569217	77
1	1840	1079.307172498386	77
1	1842	1079.661681109551	77
1	1843	1079.86804536251	77
1	1844	1080.758385184924	76
1	1845	1081.595971445375	75
1	1846	1081.894309040935	74
1	1848	1082.006571253738	74
1	1850	1082.028252916163	75
1	1851	1082.835993218653	75
1	1852	1083.178208301338	74
1	1853	1083.845698596485	73
1	1854	1083.972603945931	72
1	1855	1084.054514838816	71
1	1856	1085.234331168956	70
1	1857	1085.603200923855	69
1	1858	1086.407073308954	68
1	1860	1086.816843034001	68
1	1862	1086.94089679847	69
1	1863	1087.523200998795	69
1	1864	1088.909632852136	68
1	1866	1090.165920979895	68
1	1867	1090.334929131265	68
1	1868	1091.320859238924	67
1	1869	1092.002375524462	66
1	1870	1092.602210910419	65
1	1874	1093.850460241167	64
1	1875	1093.85325688488	63
1	1876	1094.237607260051	62
1	1877	1094.23891863591	61
1	1878	1095.041431517726	60
1	1880	1095.653834483818	60
1	1881	1098.081772253446	60
1	1882	1100.18808785124	59
1	1883	1102.241621598383	58
1	1884	1102.750823156212	57
1	1885	1103.844775979527	56
1	1886	1103.946259286335	55
1	1887	1103.964564266171	54
1	1889	1104.176839237742	54
1	1898	1110.112596259385	55
1	1900	1111.958750023561	56
1	1904	1115.679297947508	57
1	1906	1116.282474479026	58
1	1908	1116.366423084232	59
1	1910	1116.81962063442	60
1	1912	1119.607114127346	61
1	1914	1119.631202600809	62
1	1918	1122.269428907839	63
1	1920	1123.3641564357	64
1	1922	1124.676311371507	65
1	1924	1129.674761323796	66
1	1930	1133.907465937934	67
1	1934	1139.666780332727	67
1	1935	1140.153151026754	66
1	1936	1140.419180951579	65
1	1937	1141.275012481932	64
1	1938	1143.843822735462	63
1	1940	1144.791205008105	63
1	1942	1145.279433676055	64
1	1943	1146.077209153065	64
1	1945	1146.664486096286	64
1	1946	1148.183493632121	64
1	1950	1149.3061100557	64
1	1954	1151.90116385009	65
1	1956	1151.965544132515	66
1	1958	1154.594389087478	67
1	1960	1154.813482885133	68
1	1963	1156.480916447075	69
1	1965	1157.195364842311	70
1	1967	1159.901986040479	71
1	1969	1162.870190332355	71
1	1971	1162.9254536163	71
1	1976	1165.382724436296	72
1	1977	1165.991933803184	72
1	1978	1166.014952544031	71
1	1980	1166.848468962804	71
1	1981	1168.213094485437	71
1	1982	1168.378379623295	70
1	1984	1169.94776639329	70
1	1986	1170.360274639749	71
1	1987	1170.751672676169	71
1	1989	1172.613038934336	71
1	1991	1172.845040221261	72
1	1993	1173.186852644538	73
1	2000	1176.486594908774	74
1	2002	1176.729957964417	75
1	2007	1183.125208522181	76
1	2009	1184.681662681856	77
1	2011	1186.49811641129	78
1	2013	1188.649425845506	78
1	2014	1188.776457956571	77
1	2019	1188.997327633892	77
1	2021	1189.665576153212	78
1	2023	1190.214538257242	79
1	2024	1190.912993602497	79
1	2026	1193.341281189718	79
1	2027	1193.561975152979	79
1	2029	1194.874380109388	79
1	2030	1196.51215454545	79
1	2031	1196.62077585412	78
1	2033	1197.568893555996	78
1	2034	1197.616453020788	78
1	2036	1198.763269931462	78
1	2037	1199.259511036949	78
1	2038	1199.31398349135	77
1	2039	1200.105208687907	76
1	2040	1200.114455108091	75
1	2041	1200.289207591883	74
1	2042	1200.785097543135	73
1	2044	1200.807867050828	73
1	2046	1201.950168168266	74
1	2047	1202.22622685536	74
1	2048	1202.407534579161	73
1	2052	1203.949608006406	73
1	2054	1204.124142658255	74
1	2061	1209.962235972627	75
1	2065	1211.990980391573	76
1	2067	1212.740557831875	77
1	2070	1213.803523003623	78
1	2072	1214.324044233986	79
1	2075	1216.032219529825	79
1	2076	1216.558347144678	78
1	2080	1218.295166791713	77
1	2081	1218.608126440842	76
1	2083	1218.614681441416	76
1	2085	1218.630701306499	77
1	2087	1219.080676092586	78
1	2089	1219.776827962526	79
1	2091	1220.306138087217	80
1	2093	1220.840932567129	81
1	2094	1221.3633091239	81
1	2095	1221.480703606424	80
1	2097	1221.933276166294	80
1	2098	1222.133264055827	80
1	2099	1222.472788386812	79
1	2101	1223.832756721608	79
1	2102	1223.93427366384	79
1	2103	1225.377484301568	78
1	2104	1225.493030808665	77
1	2105	1226.449000876095	76
1	2106	1227.322952489647	75
1	2107	1227.543474260843	74
1	2108	1227.550756642657	73
1	2109	1227.751854950832	72
1	2110	1228.346304738359	71
1	2111	1228.378933077516	70
1	2112	1228.641434054232	69
1	2113	1228.917917512603	68
1	2114	1231.427642527384	67
1	2116	1231.670349071484	67
1	2117	1231.694582891578	67
1	2118	1231.887190563121	66
1	2120	1232.092791486583	66
1	2121	1232.198753332579	66
1	2122	1232.535208309893	65
1	2123	1232.830780079106	64
1	2124	1233.818938202772	63
1	2125	1235.018278409382	62
1	2126	1235.647786987823	61
1	2127	1236.074156125844	60
1	2129	1237.224699986226	60
1	2130	1238.083309469997	60
1	2134	1239.27595944542	60
1	2138	1240.151657789466	61
1	2140	1243.66057064818	62
1	2142	1244.568175058422	63
1	2144	1244.928017038203	64
1	2146	1245.509826790036	65
1	2148	1245.952725265238	66
1	2154	1250.885719318971	67
1	2156	1251.808771207742	68
1	2158	1252.859027179038	69
1	2162	1254.942704388099	70
1	2166	1256.432514447653	71
1	2169	1257.855457526599	72
1	2174	1259.426897233446	73
1	2177	1263.891583052599	73
1	2179	1263.957785580517	73
1	2180	1265.720031905674	73
1	2184	1268.347924051053	73
1	2186	1268.380318504538	74
1	2190	1269.839773815504	75
1	2192	1270.289360838033	76
1	2194	1270.953143624544	77
1	2199	1276.067542996818	78
1	2201	1277.399916371122	79
1	2203	1278.031340917509	80
1	2205	1279.383062857854	81
1	2213	1290.691922429825	82
1	2216	1291.53121693516	82
1	2218	1291.59976769476	82
1	2219	1292.929058181192	82
1	2220	1293.267925543124	81
1	2221	1293.33630386172	80
1	2223	1293.441551839097	80
1	2225	1293.898214252989	81
1	2226	1294.579013478022	81
1	2228	1294.669327535701	81
1	2229	1295.560549805115	81
1	2231	1296.114050521082	81
1	2233	1296.776382433865	82
1	2235	1297.345974640934	83
1	2236	1297.387090567364	83
1	2238	1298.996507058282	83
1	2239	1299.747991905842	83
1	2240	1301.321518318873	82
1	2241	1301.623151552489	81
1	2242	1302.254585276827	80
1	2243	1303.675940006709	79
1	2244	1303.985453273742	78
1	2245	1305.132120175961	77
1	2246	1305.70786845675	76
1	2247	1305.741428423402	75
1	2248	1306.724223321788	74
1	2249	1307.328630418745	73
1	2251	1307.408745682713	73
1	2252	1307.489268799505	73
1	2253	1308.00726046864	72
1	2257	1313.486432717047	72
1	2259	1316.294217184686	73
1	2261	1317.469940414706	74
1	2263	1317.761880355598	75
1	2265	1318.164123411528	76
1	2267	1318.354137256583	77
1	2269	1318.721384946023	78
1	2271	1320.683122869362	79
1	2273	1321.2254044906	80
1	2275	1321.948047236108	81
1	2277	1322.499780416618	82
1	2279	1325.716280936445	83
1	2284	1328.692234995517	84
1	2291	1335.798179555762	85
1	2293	1336.439249163608	86
1	2295	1338.6928737499	87
1	2301	1342.406520049481	88
1	2304	1344.400283320409	89
1	2306	1344.404663323047	90
1	2308	1344.894011253403	91
1	2313	1349.817977841398	92
1	2317	1354.420087397646	93
1	2321	1355.562778163567	94
1	2323	1360.169765205138	95
1	2325	1362.833477271036	96
1	2327	1362.989561992194	97
1	2329	1363.156946303952	98
1	2331	1363.459606781491	99
1	2333	1363.631488800847	100
1	2337	1363.995621264869	101
1	2341	1368.709020660767	102
1	2344	1370.59769815477	103
1	2348	1373.040886161935	104
1	2351	1376.525554654005	105
1	2353	1376.834155390847	106
1	2355	1377.335613187688	107
1	2357	1378.952259252948	108
1	2359	1380.84662449694	109
1	2361	1382.084512419462	110
1	2365	1386.827074909388	111
1	2367	1388.28146081858	112
1	2369	1388.411579078285	113
1	2371	1389.134605448421	114
1	2373	1391.278122141915	115
1	2375	1394.935049672622	116
1	2377	1395.583826133288	117
1	2379	1396.065291104458	118
1	2381	1397.104735602537	119
1	2383	1401.5790326995	120
1	2385	1401.894822625578	121
1	2387	1402.366460991597	121
1	2389	1403.118903661375	121
1	2390	1403.298929343032	121
1	2391	1403.365254672316	120
1	2395	1404.493359354866	119
1	2396	1405.009740324787	118
1	2397	1405.175112998111	117
1	2399	1405.233349428496	117
1	2400	1405.461496904818	117
1	2402	1405.498885614826	117
1	2404	1406.360245370557	118
1	2405	1406.427661551539	118
1	2406	1406.561795129426	117
1	2407	1406.862677228368	116
1	2409	1407.775171715424	116
1	2410	1407.843703676712	116
1	2411	1407.953016925845	115
1	2412	1408.030241265997	114
1	2413	1408.14541576478	113
1	2414	1410.038278659652	112
1	2415	1412.003199931185	111
1	2417	1414.436319023744	111
1	2419	1415.038596786741	112
1	2420	1415.099333015787	112
1	2422	1415.236475326557	112
1	2424	1415.558646596194	113
1	2426	1416.572723303553	114
1	2427	1417.014103417938	114
1	2428	1417.371547735369	113
1	2430	1417.580265619433	113
1	2432	1417.758464019906	114
1	2433	1417.950141274515	114
1	2434	1418.396750855716	113
1	2435	1418.397185226223	112
1	2437	1418.763044852964	112
1	2438	1420.223414806885	112
1	2439	1421.016517717607	111
1	2440	1421.541958145951	110
1	2441	1421.84862919722	109
1	2442	1424.520995591723	108
1	2443	1427.590643557292	107
1	2444	1427.854118522994	106
1	2446	1427.861245198271	106
1	2447	1428.44502586507	106
1	2449	1428.524859169834	106
1	2451	1429.600075118784	107
1	2452	1430.094807207163	107
1	2453	1430.927326972628	106
1	2454	1431.239513305011	105
1	2456	1431.705104112729	105
1	2457	1432.378500562869	105
1	2458	1433.297923561945	104
1	2459	1433.40863921334	103
1	2461	1433.675836062032	103
1	2463	1435.045253638877	104
1	2464	1435.436667913806	104
1	2465	1435.843618811895	103
1	2467	1436.482682723666	103
1	2469	1436.679830159004	104
1	2471	1436.778293621824	105
1	2472	1438.177206347486	105
1	2474	1439.430672084623	105
1	2476	1440.090625316163	106
1	2478	1440.092739837788	107
1	2480	1440.140256337359	108
1	2482	1440.771503756605	109
1	2483	1441.452046478056	109
1	2485	1441.463942555652	109
1	2486	1441.595328234808	109
1	2487	1442.298444875486	108
1	2489	1442.668754409953	108
1	2490	1443.588173831468	108
1	2492	1445.575897440951	108
1	2493	1445.834224947626	108
1	2494	1446.038575763182	107
1	2495	1447.921058438921	106
1	2497	1449.130591135476	106
1	2498	1450.11006695875	106
1	2499	1453.933954659673	105
1	2500	1454.085749431468	104
1	2501	1454.245837613033	103
1	2502	1455.637726035046	102
1	2503	1455.808555579646	101
1	2504	1457.842568264537	100
1	2505	1458.148152305675	99
1	2507	1459.716799970816	99
1	2508	1460.283902733102	99
1	2509	1460.538808679696	98
1	2510	1460.650789015304	97
1	2511	1460.792423879827	96
1	2512	1463.136840211379	95
1	2513	1463.922477976213	94
1	2514	1463.927689195316	93
1	2515	1464.211512900803	92
1	2517	1465.161152776612	92
1	2519	1467.256087039105	93
1	2520	1467.289850840293	93
1	2521	1468.60278338845	92
1	2522	1469.374082180972	91
1	2523	1469.385670372039	90
1	2524	1469.908259955989	89
1	2526	1470.058496996278	89
1	2527	1470.202565331605	89
1	2528	1470.659677098573	88
1	2529	1470.962489414539	87
1	2530	1474.541061608123	86
1	2531	1475.037907793994	85
1	2532	1475.31606561936	84
1	2533	1475.994046509132	83
1	2534	1476.423550405136	82
1	2535	1476.919189975444	81
1	2537	1476.977922575961	81
1	2538	1478.271117176662	81
1	2540	1479.031759772158	81
1	2541	1479.954010327437	81
1	2542	1480.401731595517	80
1	2543	1480.992671620416	79
1	2544	1481.894794199027	78
1	2546	1482.001466262918	78
1	2547	1483.361761713606	78
1	2548	1483.789322751041	77
1	2550	1484.533470360249	77
1	2551	1484.840113718363	77
1	2552	1486.041574860096	76
1	2553	1487.220607241338	75
1	2555	1487.448448162214	75
1	2557	1487.612233422357	76
1	2558	1487.716106662031	76
1	2560	1487.895800044018	76
1	2561	1488.962657145843	76
1	2562	1489.194879092557	75
1	2563	1489.387294265322	74
1	2564	1489.421468880915	73
1	2565	1489.498266312649	72
1	2567	1490.001947859163	72
1	2568	1490.620334999894	72
1	2570	1491.786776558324	72
1	2571	1491.925902511759	72
1	2575	1496.895072331694	72
1	2580	1498.356237973062	73
1	2582	1498.906838604558	74
1	2584	1502.456665239511	75
1	2586	1506.692558380612	76
1	2588	1509.412188180587	77
1	2590	1509.611603846437	78
1	2592	1510.979219762328	79
1	2595	1513.251153059723	80
1	2596	1514.429773860868	80
1	2598	1515.735978992123	80
1	2602	1518.169253773946	81
1	2605	1521.782704885754	82
1	2611	1525.241103392994	83
1	2613	1528.231974987472	84
1	2616	1530.213958418476	85
1	2618	1530.428285546279	86
1	2622	1531.53006209074	87
1	2624	1532.006847199175	88
1	2626	1532.331217510789	89
1	2628	1533.097077211726	90
1	2631	1537.969197466306	91
1	2633	1540.49462135942	92
1	2635	1542.410976321562	93
1	2637	1545.433947151078	93
1	2641	1546.767329892186	93
1	2643	1548.738688127981	93
1	2644	1549.122622170447	92
1	2646	1549.143021935814	92
1	2648	1549.737364246354	93
1	2650	1549.802624723963	94
1	2651	1550.635589712529	94
1	2655	1551.648296197784	94
1	2657	1551.797146565363	95
1	2659	1553.596518012015	95
1	2660	1554.497554487361	94
1	2661	1554.671288321919	93
1	2662	1554.83449780844	92
1	2663	1556.024224843615	91
1	2664	1556.109802015188	90
1	2665	1556.222536513846	89
1	2666	1556.56823497232	88
1	2667	1556.720225774865	87
1	2668	1557.263139318443	86
1	2669	1557.478769429132	85
1	2671	1558.600647033148	85
1	2673	1559.147128299182	86
1	2674	1559.983940906927	86
1	2675	1560.947415122351	85
1	2676	1561.089039266569	84
1	2677	1561.419680886951	83
1	2678	1562.493022018246	82
1	2680	1562.499709879374	82
1	2682	1563.616297368068	83
1	2683	1564.712118438719	83
1	2684	1565.599123807613	82
1	2685	1566.064506844748	81
1	2686	1566.999436780406	80
1	2687	1567.082195977067	79
1	2688	1567.269507703489	78
1	2690	1567.767119728924	78
1	2691	1567.773552998283	78
1	2692	1567.988100373746	77
1	2693	1568.476159762416	76
1	2694	1568.627651425792	75
1	2695	1569.199672213994	74
1	2696	1569.728883903694	73
1	2698	1569.744089217836	73
1	2699	1570.46311755992	73
1	2701	1571.179910988201	73
1	2703	1571.243209750199	74
1	2704	1572.179785506139	74
1	2705	1572.937441275825	73
1	2709	1573.632402436856	73
1	2711	1573.785267535744	74
1	2713	1574.680784296195	75
1	2718	1578.146751443129	76
1	2721	1579.333084756385	77
1	2722	1579.757850023376	77
1	2723	1579.96282769472	76
1	2724	1580.432641126124	75
1	2726	1580.472079207358	75
1	2727	1581.659686387588	75
1	2728	1582.193012174243	74
1	2730	1582.50429371121	74
1	2734	1585.53582690353	75
1	2736	1585.88356197589	75
1	2737	1587.574950592114	74
1	2739	1587.719633312877	74
1	2741	1590.903353866964	75
1	2745	1593.786713816241	75
1	2747	1596.118188473297	75
1	2748	1596.237272936752	75
1	2749	1596.736290588447	74
1	2750	1597.633520325142	73
1	2751	1597.924849962111	72
1	2752	1598.049431406726	71
1	2756	1598.741317146627	71
1	2758	1598.807433685864	72
1	2760	1599.701876557765	73
1	2763	1602.60562880392	74
1	2764	1603.033837158817	74
1	2766	1603.151520958558	74
1	2770	1605.731764787129	75
1	2772	1607.133057206748	76
1	2774	1607.177025192406	77
1	2776	1609.538616139152	77
1	2780	1610.887853306082	77
1	2782	1612.556316390792	77
1	2784	1613.602245662861	77
1	2786	1613.762870836908	78
1	2787	1614.084183627606	78
1	2789	1614.595739487238	78
1	2790	1615.254123997306	78
1	2791	1615.26690547867	77
1	2792	1615.338319928847	76
1	2793	1615.662892328147	75
1	2794	1615.929491965156	74
1	2795	1615.933698342825	73
1	2802	1619.031844739557	73
1	2804	1620.537615806209	74
1	2806	1622.687522855892	75
1	2808	1622.953165946337	76
1	2810	1624.662488767204	77
1	2812	1629.250998178955	77
1	2813	1629.334772532957	76
1	2815	1629.959106362618	76
1	2816	1631.565212631293	76
1	2818	1631.642830758976	76
1	2819	1631.865834023104	76
1	2823	1632.651772806462	76
1	2831	1639.87610319747	76
1	2833	1640.941933004041	76
1	2835	1641.464441349333	77
1	2836	1641.772889426281	77
1	2838	1642.372329873386	77
1	2839	1643.431646158147	77
1	2840	1643.445367784085	76
1	2842	1644.879550655518	76
1	2843	1645.190629920106	76
1	2844	1646.729219029238	75
1	2846	1647.194510584185	75
1	2847	1647.987819148858	75
1	2849	1648.92723425929	75
1	2851	1650.139549549817	76
1	2852	1652.45208061842	76
1	2854	1653.221483863169	76
1	2855	1653.819012330458	76
1	2856	1655.799878559718	75
1	2857	1657.406378935246	74
1	2858	1658.594758496964	73
1	2860	1658.604353585318	73
1	2861	1658.745538418878	73
1	2863	1659.183922497014	73
1	2864	1660.109518738431	73
1	2865	1660.225767990441	72
1	2866	1660.349494742446	71
1	2867	1661.091042595112	70
1	2869	1661.636534639302	70
1	2870	1661.752533752177	70
1	2872	1664.526587547447	70
1	2873	1665.112092779474	70
1	2875	1665.272077822424	70
1	2877	1666.277925859413	71
1	2879	1666.75701097273	72
1	2880	1667.078420141509	72
1	2882	1667.891679745111	72
1	2883	1667.971588582173	72
1	2885	1670.220964088237	72
1	2886	1670.784208966177	72
1	2887	1670.804209278875	71
1	2888	1671.430587790253	70
1	2889	1671.859148670802	69
1	2893	1672.165199228153	69
1	2895	1675.61739141787	69
1	2902	1682.743423310776	69
1	2904	1686.015707886326	69
1	2905	1688.168736425949	68
1	2907	1688.616613516163	68
1	2909	1688.697389464816	69
1	2910	1688.758088633709	69
1	2911	1690.281339942063	68
1	2912	1690.575160015763	67
1	2914	1691.015216499307	67
1	2915	1691.075437033921	67
1	2916	1692.93623738437	66
1	2918	1694.329730989505	66
1	2920	1694.368236399666	67
1	2921	1695.574898220546	67
1	2922	1696.187628006023	66
1	2923	1696.682209020249	65
1	2924	1696.798994894737	64
1	2925	1697.202884769774	63
1	2927	1697.541825470886	63
1	2929	1697.763314122219	64
1	2930	1697.814252996446	64
1	2932	1700.586787371922	64
1	2933	1701.101072346058	64
1	2935	1701.180804800099	64
1	2936	1701.991013739222	64
1	2937	1702.169946558826	63
1	2938	1702.724541485998	62
1	2940	1703.290257721709	62
1	2941	1704.279519643165	62
1	2943	1705.521157502751	62
1	2944	1707.43254183666	62
1	2945	1707.555794870042	61
1	2949	1708.94592525913	61
1	2952	1709.560700796241	62
1	2954	1710.166687338221	63
1	2955	1710.898115252369	63
1	2957	1711.085463698333	63
1	2959	1711.287797501803	64
1	2960	1711.698528274255	64
1	2961	1711.93244493933	63
1	2962	1711.963611420276	62
1	2963	1713.387042662249	61
1	2964	1713.867434173184	60
1	2965	1715.10671117526	59
1	2967	1715.225699262031	59
1	2969	1715.283155948753	60
1	2970	1717.097548162821	60
1	2971	1717.586893440247	59
1	2972	1718.411653736638	58
1	2973	1719.482942519663	57
1	2974	1720.395842427123	56
1	2976	1720.626705936496	56
1	2977	1720.883153977519	56
1	2978	1721.161932160976	55
1	2979	1721.530617813526	54
1	2981	1721.834079711102	54
1	2982	1722.513730832752	54
1	2986	1723.19413230954	54
1	2988	1725.283775788345	55
1	2991	1728.033659518242	56
1	2993	1728.103503965391	57
1	2994	1728.838597257725	57
1	2996	1729.288086140938	57
1	2998	1729.984560988631	58
1	2999	1731.441693750305	58
1	3000	1732.461102550304	57
1	3002	1733.014601096938	57
1	3004	1733.575996744624	58
1	3006	1734.204002210703	59
1	3007	1735.104936119663	59
1	3011	1735.604451981351	59
1	3013	1735.633227496861	60
1	3015	1740.533542931518	61
1	3017	1740.764958966606	62
1	3019	1741.957884909277	63
1	3021	1742.434380812824	63
1	3023	1742.512699935462	63
1	3024	1742.770154636524	63
1	3025	1742.899746943741	62
1	3027	1743.645251190985	62
1	3028	1744.202557568805	62
1	3029	1744.525277254013	61
1	3031	1745.236675426276	61
1	3033	1745.315576794378	62
1	3035	1745.614606716302	63
1	3036	1747.640532785218	63
1	3037	1748.018947487547	62
1	3039	1748.429721310709	62
1	3040	1748.659960486849	62
1	3042	1749.870361572368	62
1	3047	1755.426387605743	63
1	3048	1755.612046802324	63
1	3049	1755.699640154222	62
1	3051	1755.710987747539	62
1	3053	1756.69930669462	63
1	3054	1757.113943156943	63
1	3055	1757.200007260419	62
1	3057	1757.954836329758	62
1	3058	1758.123140589139	62
1	3059	1758.465558554371	61
1	3061	1758.894101945226	61
1	3062	1759.996576082306	61
1	3063	1760.023064326788	60
1	3064	1760.726642216649	59
1	3065	1761.715645795891	58
1	3066	1762.816084415705	57
1	3067	1763.610812691202	56
1	3068	1763.632705515279	55
1	3069	1763.882455991973	54
1	3071	1764.237633031616	54
1	3072	1764.525105952637	54
1	3073	1765.322501442762	53
1	3074	1766.781396456931	52
1	3075	1766.844710053201	51
1	3077	1767.078972143821	51
1	3083	1770.092408754415	52
1	3086	1775.485733389996	52
1	3088	1775.806100839215	52
1	3089	1776.097122424156	52
1	3093	1776.529367386246	52
1	3095	1779.346434853309	53
1	3101	1783.426842687448	54
1	3103	1784.434911088791	55
1	3105	1785.170972632978	56
1	3107	1785.574773795106	57
1	3110	1787.670281370341	58
1	3112	1789.737064951335	59
1	3115	1791.638246123796	60
1	3117	1792.341675615797	61
1	3119	1793.766731830788	61
1	3121	1794.57975278101	61
1	3123	1794.589188061517	62
1	3124	1796.452958106427	62
1	3125	1797.410137923442	61
1	3126	1797.520351209094	60
1	3128	1798.470660063975	60
1	3129	1799.31509761383	60
1	3134	1800.765072680551	60
1	3135	1800.789331893289	60
1	3136	1801.210866842921	59
1	3137	1801.241545946908	58
1	3138	1802.171875289531	57
1	3140	1802.99549017624	57
1	3142	1804.014530944982	58
1	3143	1804.03983438164	58
1	3144	1805.171375282981	57
1	3145	1805.586364994705	56
1	3146	1805.611057360792	55
1	3147	1806.006843813263	54
1	3148	1806.52096964088	53
1	3149	1806.673675012165	52
1	3150	1807.130180396278	51
1	3151	1807.498562897415	50
1	3152	1807.826118470415	49
1	3154	1808.102429665022	49
1	3156	1808.810349620762	50
1	3158	1809.016342535637	51
1	3162	1810.685777240422	52
1	3164	1812.603667620989	53
1	3167	1815.006853472151	54
1	3168	1815.562676013008	54
1	3175	1818.496893048949	54
1	3177	1818.548472442748	55
1	3183	1825.89843182209	56
1	3189	1829.443757035215	57
1	3191	1830.611948492567	58
1	3196	1832.126709546147	59
1	3198	1832.167178242339	60
1	3200	1832.581222891804	61
1	3203	1835.589211455842	62
1	3205	1837.06284864094	63
1	3208	1839.007043149897	64
1	3209	1840.169017282093	64
1	3210	1840.340741875848	63
1	3212	1840.888404850498	63
1	3216	1843.278217576623	64
1	3218	1845.519408669694	65
1	3222	1850.86460996834	66
1	3224	1850.919277810618	67
1	3227	1854.071928370954	68
1	3229	1856.098840360456	68
1	3230	1856.331514414215	67
1	3232	1856.496970257831	67
1	3238	1858.283081080962	68
1	3240	1858.768308424599	69
1	3242	1859.355367895478	70
1	3244	1860.659332236229	71
1	3246	1861.016827344739	72
1	3248	1863.644007851518	73
1	3250	1864.996079051222	74
1	3252	1865.403086394185	75
1	3255	1870.656854806802	75
1	3257	1872.13155760646	75
1	3258	1874.067652202627	75
1	3260	1874.191203643092	75
1	3261	1875.778359237152	75
1	3262	1875.886171957756	74
1	3264	1877.39266908225	74
1	3265	1878.333183790668	74
1	3266	1882.178445134194	73
1	3267	1882.180361733288	72
1	3268	1882.848599003335	71
1	3270	1883.549660085259	71
1	3272	1883.644795315303	72
1	3273	1884.110572791254	72
1	3275	1884.382034149793	72
1	3276	1884.776504794111	72
1	3278	1885.939334982839	72
1	3279	1886.219123410306	72
1	3281	1887.053638006467	72
1	3283	1887.081977452844	73
1	3285	1887.149208157242	74
1	3289	1888.650703247247	75
1	3291	1889.484027486854	76
1	3294	1890.868921388046	77
1	3296	1891.039053578364	78
1	3298	1891.221709984405	79
1	3302	1893.988222041289	80
1	3305	1896.794189095102	81
1	3311	1898.787659877484	82
1	3314	1900.550746763597	83
1	3316	1905.281091576385	84
1	3318	1905.461652592702	85
1	3321	1905.960987009628	86
1	3323	1906.825085960887	87
1	3324	1907.387554933734	87
1	3325	1908.142854885572	86
1	3326	1908.392153575194	85
1	3328	1908.900156885552	85
1	3329	1909.015983074635	85
1	3331	1909.147455277079	85
1	3335	1911.314556196168	86
1	3340	1912.589347125187	87
1	3342	1913.313824647011	88
1	3344	1913.894548201411	89
1	3348	1914.477044758662	90
1	3350	1914.800468807331	91
1	3352	1915.022601077185	92
1	3355	1916.94456881932	92
1	3357	1917.764349969714	92
1	3361	1918.600009926144	93
1	3363	1920.219292042901	94
1	3365	1921.468260373714	95
1	3369	1922.607321134866	96
1	3371	1924.485403501916	97
1	3375	1926.314826383983	98
1	3377	1926.765925457975	99
1	3379	1928.487665878186	100
1	3381	1929.541921298706	101
1	3384	1932.158422642642	102
1	3387	1934.06843074423	103
1	3389	1935.880632727515	103
1	3396	1938.157100612046	103
1	3398	1940.743796881142	104
1	3400	1941.488098220374	104
1	3401	1942.483863756436	103
1	3403	1943.587426999522	103
1	3404	1943.682401605532	103
1	3405	1944.706594563496	102
1	3409	1946.020545630936	102
1	3411	1949.340599305765	103
1	3413	1949.396177508186	104
1	3415	1950.176099480856	105
1	3417	1952.406390369456	106
1	3419	1952.775205644303	106
1	3421	1953.109468866719	106
1	3422	1953.181185700303	106
1	3423	1953.482111197062	105
1	3425	1953.579287312387	105
1	3426	1953.849737332382	105
1	3428	1954.098366608528	105
1	3430	1954.159135785161	106
1	3432	1955.33697016307	107
1	3433	1956.721221647651	107
1	3434	1957.20033395795	106
1	3436	1957.240090367341	106
1	3440	1961.518361063718	107
1	3442	1962.165646254589	107
1	3444	1962.429410417379	107
1	3445	1962.785326650998	107
1	3446	1962.838966674505	106
1	3448	1963.321814543037	106
1	3449	1966.091039501547	106
1	3450	1966.580593245212	105
1	3451	1967.189523730932	104
1	3453	1967.493555465752	104
1	3455	1967.763104830852	105
1	3456	1968.366299158559	105
1	3457	1968.685668152622	104
1	3458	1970.346838126683	103
1	3460	1970.929091539889	103
1	3461	1970.968639205228	103
1	3462	1972.074989423541	102
1	3463	1972.111328160015	101
1	3464	1972.671401855267	100
1	3465	1973.160387578914	99
1	3467	1975.165128126325	99
1	3471	1977.071928884493	100
1	3473	1979.820823811121	100
1	3474	1980.052622569545	99
1	3475	1980.611941277581	98
1	3476	1980.80896387669	97
1	3478	1981.005452185584	97
1	3479	1982.842392489275	97
1	3480	1983.153848999669	96
1	3481	1983.40092862501	95
1	3482	1984.276165238901	94
1	3483	1984.762389248612	93
1	3484	1985.163483080964	92
1	3486	1985.939161253884	92
1	3487	1986.376993572305	92
1	3489	1986.530082696453	92
1	3491	1986.556367531527	93
[...]
10	1705	991.414635764854	89.745816798461
10	1706	991.495967820603	83.753115648252
10	1707	992.529177490076	83.786646699807
10	1708	993.622032144886	82.172704133447
10	1722	1009.167744405252	89.890334121284
10	1723	1009.757591240699	90.153463770735
10	1724	1010.396658130971	90.370981486651
10	1725	1010.519506753831	90.367703342635
10	1726	1011.83052845717	91.534057396387
10	1731	1013.642159665226	91.80831188025
10	1734	1014.23472672503	92.366153805653
10	1737	1015.158315159899	91.399634219778
10	1742	1017.113202329663	92.384034374037
10	1745	1020.211074810083	95.116531654782
10	1746	1020.406504108723	94.910934350262
10	1815	1070.028444501432	141.31685237213
10	1818	1071.964861524393	140.36303555933
10	1821	1072.496301469548	140.85206551754
10	1822	1072.872492408856	138.49689870332
10	1823	1074.054500405551	139.49370174039
10	1824	1074.32486215922	139.28709299984
10	1827	1075.2069371413	140.11308205897
10	1828	1075.223513277429	136.62394775188
10	1840	1079.307172498386	135.69476206683
10	1843	1079.86804536251	135.34842584501
10	1844	1080.758385184924	129.71366114951
10	1845	1081.595971445375	127.96182416177
10	1846	1081.894309040935	127.42362642599
10	1851	1082.835993218653	123.83937555938
10	1852	1083.178208301338	121.94311674367
10	1853	1083.845698596485	122.43705015636
10	1854	1083.972603945931	122.13635261759
10	1855	1084.054514838816	121.33143714731
10	1856	1085.234331168956	122.19881505313
10	1857	1085.603200923855	122.43539102814
10	1858	1086.407073308954	123.01666180873
10	1863	1087.523200998795	123.84625896011
10	1864	1088.909632852136	124.82680417132
10	1867	1090.334929131265	123.73836092266
10	1868	1091.320859238924	123.83490494112
10	1869	1092.002375524462	124.38184205571
10	1870	1092.602210910419	123.63551474072
10	1874	1093.850460241167	123.82317675643
10	1875	1093.85325688488	122.31158308198
10	1876	1094.237607260051	120.72182225318
10	1877	1094.23891863591	114.39351679011
10	1878	1095.041431517726	114.81080903259
10	1881	1098.081772253446	115.62171921496
10	1882	1100.18808785124	116.94243956686
10	1883	1102.241621598383	118.14260244055
10	1884	1102.750823156212	116.35744918778
10	1885	1103.844775979527	115.39996532501
10	1886	1103.946259286335	113.38085802978
10	1887	1103.964564266171	112.73100569988
10	1934	1139.666780332727	145.27709961701
10	1935	1140.153151026754	141.50671723677
10	1936	1140.419180951579	139.50660089873
10	1937	1141.275012481932	139.63958490725
10	1938	1143.843822735462	135.22916620953
10	1943	1146.077209153065	137.25306902734
10	1946	1148.183493632121	136.21967149829
10	1969	1162.870190332355	148.98090655412
10	1977	1165.991933803184	150.77823441313
10	1978	1166.014952544031	150.1912908241
10	1981	1168.213094485437	150.88216066005
10	1982	1168.378379623295	147.56810693331
10	1987	1170.751672676169	149.09120873305
10	2013	1188.649425845506	164.1858901337
10	2014	1188.776457956571	163.2391825165
10	2024	1190.912993602497	164.22090796964
10	2027	1193.561975152979	163.86266926246
10	2030	1196.51215454545	163.09033798849
10	2031	1196.62077585412	162.78993342568
10	2034	1197.616453020788	162.13703618113
10	2037	1199.259511036949	162.45916770654
10	2038	1199.31398349135	161.14494849442
10	2039	1200.105208687907	161.44158440058
10	2040	1200.114455108091	150.00430417455
10	2041	1200.289207591883	149.74188187886
10	2042	1200.785097543135	146.46111447485
10	2047	1202.22622685536	144.52633637186
10	2048	1202.407534579161	142.00268884786
10	2075	1216.032219529825	151.51984938368
10	2076	1216.558347144678	150.39160002707
10	2080	1218.295166791713	147.03913473001
10	2081	1218.608126440842	146.36929885587
10	2094	1221.3633091239	146.85790876514
10	2095	1221.480703606424	145.11505502012
10	2098	1222.133264055827	145.48814185388
10	2099	1222.472788386812	145.54106032336
10	2102	1223.93427366384	146.11664599599
10	2103	1225.377484301568	147.4380986094
10	2104	1225.493030808665	145.83134969911
10	2105	1226.449000876095	144.44242962236
10	2106	1227.322952489647	145.29469957348
10	2107	1227.543474260843	140.72663122684
10	2108	1227.550756642657	140.60985984419
10	2109	1227.751854950832	137.58593397094
10	2110	1228.346304738359	135.25502883051
10	2111	1228.378933077516	132.7250985937
10	2112	1228.641434054232	124.46459481649
10	2113	1228.917917512603	124.32266034721
10	2114	1231.427642527384	121.315046268
10	2117	1231.694582891578	119.73583286802
10	2118	1231.887190563121	116.20789261561
10	2121	1232.198753332579	115.91627885355
10	2122	1232.535208309893	116.16878522566
10	2123	1232.830780079106	116.01115944469
10	2124	1233.818938202772	114.21182407543
10	2125	1235.018278409382	115.38707580857
10	2126	1235.647786987823	113.37835807998
10	2127	1236.074156125844	112.70999969014
10	2130	1238.083309469997	113.40699809849
10	2177	1263.891583052599	129.98411711466
10	2180	1265.720031905674	120.92882689757
10	2216	1291.53121693516	144.86673083887
10	2219	1292.929058181192	144.20706423346
10	2220	1293.267925543124	143.96181548742
10	2221	1293.33630386172	141.43514001163
10	2226	1294.579013478022	142.61346934551
10	2229	1295.560549805115	140.96616071764
10	2236	1297.387090567364	142.57360768223
10	2239	1299.747991905842	143.26707545877
10	2240	1301.321518318873	144.12615347656
10	2241	1301.623151552489	141.72116551201
10	2242	1302.254585276827	139.32913166053
10	2243	1303.675940006709	140.25276459893
10	2244	1303.985453273742	138.60272883745
10	2245	1305.132120175961	138.28365121316
10	2246	1305.70786845675	135.76010206346
10	2247	1305.741428423402	135.38115378365
10	2248	1306.724223321788	134.11118438745
10	2249	1307.328630418745	134.48359019748
10	2252	1307.489268799505	134.30241615497
10	2253	1308.00726046864	134.0831936463
10	2387	1402.366460991597	225.87986608282
10	2390	1403.298929343032	226.56897137862
10	2391	1403.365254672316	220.24004615013
10	2395	1404.493359354866	217.99524294358
10	2396	1405.009740324787	216.21870655061
10	2397	1405.175112998111	216.17778536422
10	2400	1405.461496904818	215.79592075161
10	2405	1406.427661551539	216.2131232943
10	2406	1406.561795129426	213.22051393971
10	2407	1406.862677228368	211.98829711898
10	2410	1407.843703676712	210.27481012072
10	2411	1407.953016925845	209.18974699438
10	2412	1408.030241265997	207.22237421517
10	2413	1408.14541576478	206.19524759651
10	2414	1410.038278659652	206.36744639211
10	2415	1412.003199931185	208.05359192478
10	2420	1415.099333015787	210.97519035753
10	2427	1417.014103417938	207.05186744531
10	2428	1417.371547735369	205.3805673438
10	2433	1417.950141274515	205.20958344264
10	2434	1418.396750855716	204.59322785209
10	2435	1418.397185226223	204.07314099224
10	2438	1420.223414806885	203.59982123688
10	2439	1421.016517717607	202.40183627619
10	2440	1421.541958145951	202.91125683945
10	2441	1421.84862919722	202.76795310463
10	2442	1424.520995591723	204.7441676292
10	2443	1427.590643557292	207.28450547008
10	2444	1427.854118522994	207.01318595586
10	2447	1428.44502586507	206.51174969878
10	2452	1430.094807207163	206.26205048555
10	2453	1430.927326972628	199.25697790114
10	2454	1431.239513305011	199.14672181843
10	2457	1432.378500562869	195.15380057664
10	2458	1433.297923561945	194.96536614066
10	2459	1433.40863921334	194.13267976792
10	2464	1435.436667913806	195.28501012434
10	2465	1435.843618811895	192.18304816372
10	2472	1438.177206347486	193.60903128906
10	2483	1441.452046478056	196.52402943985
10	2486	1441.595328234808	196.08550144477
10	2487	1442.298444875486	196.34571961025
10	2490	1443.588173831468	192.7024545125
10	2493	1445.834224947626	194.02545373988
10	2494	1446.038575763182	193.17954858414
10	2495	1447.921058438921	192.97835405082
10	2498	1450.11006695875	193.6775525111
10	2499	1453.933954659673	196.07849713307
10	2500	1454.085749431468	194.65885219802
10	2501	1454.245837613033	190.28805203252
10	2502	1455.637726035046	189.28585921783
10	2503	1455.808555579646	187.46063152859
10	2504	1457.842568264537	189.46224976
10	2505	1458.148152305675	188.30837849017
10	2508	1460.283902733102	189.99454189507
10	2509	1460.538808679696	189.58566505515
10	2510	1460.650789015304	184.58324601849
10	2511	1460.792423879827	183.3925075087
10	2512	1463.136840211379	185.10549929387
10	2513	1463.922477976213	184.53941511836
10	2514	1463.927689195316	173.23576676549
10	2515	1464.211512900803	172.61174520604
10	2520	1467.289850840293	173.8482990012
10	2521	1468.60278338845	174.70456913546
10	2522	1469.374082180972	174.70475464527
10	2523	1469.385670372039	173.27161985096
10	2524	1469.908259955989	173.13187752212
10	2527	1470.202565331605	172.85659069067
10	2528	1470.659677098573	171.66317004029
10	2529	1470.962489414539	163.55374373183
10	2530	1474.541061608123	164.52359162265
10	2531	1475.037907793994	161.55147507695
10	2532	1475.31606561936	159.02184843467
10	2533	1475.994046509132	158.52410609443
10	2534	1476.423550405136	158.66167004954
10	2535	1476.919189975444	158.75506656392
10	2538	1478.271117176662	159.91697992008
10	2541	1479.954010327437	161.23262538141
10	2542	1480.401731595517	159.71860872615
10	2543	1480.992671620416	159.76726712982
10	2544	1481.894794199027	159.94674696292
10	2547	1483.361761713606	160.86198129699
10	2548	1483.789322751041	158.0730418146
10	2551	1484.840113718363	156.14787872285
10	2552	1486.041574860096	150.24339530433
10	2553	1487.220607241338	150.78135807773
10	2558	1487.716106662031	149.02323291213
10	2561	1488.962657145843	146.55613709636
10	2562	1489.194879092557	144.79459577215
10	2563	1489.387294265322	144.98263094227
10	2564	1489.421468880915	144.52745762751
10	2565	1489.498266312649	139.68028847125
10	2568	1490.620334999894	136.20024760225
10	2571	1491.925902511759	136.36312434819
10	2596	1514.429773860868	151.44021186867
10	2637	1545.433947151078	181.80245835023
10	2643	1548.738688127981	180.02966746721
10	2644	1549.122622170447	178.52492401568
10	2651	1550.635589712529	177.59470355059
10	2659	1553.596518012015	176.76236262117
10	2660	1554.497554487361	177.16194129967
10	2661	1554.671288321919	175.71902906897
10	2662	1554.83449780844	173.9878733115
10	2663	1556.024224843615	173.93971242415
10	2664	1556.109802015188	169.2827271058
10	2665	1556.222536513846	167.94107569527
10	2666	1556.56823497232	168.15665589403
10	2667	1556.720225774865	167.58562032644
10	2668	1557.263139318443	165.98501717653
10	2669	1557.478769429132	162.54371975651
10	2674	1559.983940906927	164.40011477364
10	2675	1560.947415122351	164.88212401789
10	2676	1561.089039266569	163.98430366403
10	2677	1561.419680886951	159.84064818745
10	2678	1562.493022018246	160.59819939267
10	2683	1564.712118438719	161.59321477734
10	2684	1565.599123807613	162.08170908828
10	2685	1566.064506844748	160.83115741625
10	2686	1566.999436780406	161.50055116558
10	2687	1567.082195977067	160.72195060651
10	2688	1567.269507703489	159.49433598806
10	2691	1567.773552998283	153.33723397454
10	2692	1567.988100373746	152.949503587
10	2693	1568.476159762416	153.23968443586
10	2694	1568.627651425792	153.0690048296
10	2695	1569.199672213994	152.62694891044
10	2696	1569.728883903694	152.14861828426
10	2699	1570.46311755992	152.70465354001
10	2704	1572.179785506139	153.41674065317
10	2705	1572.937441275825	145.07619607755
10	2722	1579.757850023376	150.15777490459
10	2723	1579.96282769472	148.25772358199
10	2724	1580.432641126124	146.75680506409
10	2727	1581.659686387588	146.61443274871
10	2728	1582.193012174243	145.71032945058
10	2736	1585.88356197589	149.10526835407
10	2737	1587.574950592114	148.14427850749
10	2745	1593.786713816241	153.69397397845
10	2748	1596.237272936752	156.09701659939
10	2749	1596.736290588447	155.96478683184
10	2750	1597.633520325142	156.16957776949
10	2751	1597.924849962111	155.25609555216
10	2752	1598.049431406726	152.47353396578
10	2764	1603.033837158817	143.317037188
10	2776	1609.538616139152	142.28252910005
10	2782	1612.556316390792	135.57839381483
10	2787	1614.084183627606	135.05242385545
10	2790	1615.254123997306	133.25265773439
10	2791	1615.26690547867	130.73343511842
10	2792	1615.338319928847	127.88987176663
10	2793	1615.662892328147	128.05065890579
10	2794	1615.929491965156	128.03369192114
10	2795	1615.933698342825	125.93175048366
10	2812	1629.250998178955	136.45369807748
10	2813	1629.334772532957	132.43970020126
10	2816	1631.565212631293	133.37603482743
10	2819	1631.865834023104	133.50959605004
10	2831	1639.87610319747	133.18354481686
10	2836	1641.772889426281	132.36070124569
10	2839	1643.431646158147	133.82004231171
10	2840	1643.445367784085	132.46614802176
10	2843	1645.190629920106	131.93947686038
10	2844	1646.729219029238	130.99324003711
10	2847	1647.987819148858	131.74174462318
10	2852	1652.45208061842	134.28282684447
10	2855	1653.819012330458	132.0363074447
10	2856	1655.799878559718	132.92468797713
10	2857	1657.406378935246	132.16527554225
10	2858	1658.594758496964	130.36278350949
10	2861	1658.745538418878	128.5315800004
10	2864	1660.109518738431	129.68123319215
10	2865	1660.225767990441	128.6957058997
10	2866	1660.349494742446	128.34264754327
10	2867	1661.091042595112	128.75982508432
10	2870	1661.752533752177	128.65545654045
10	2873	1665.112092779474	127.14289531317
10	2880	1667.078420141509	126.58379878209
10	2883	1667.971588582173	125.56061226061
10	2886	1670.784208966177	124.22716758752
10	2887	1670.804209278875	124.03687938669
10	2888	1671.430587790253	122.28756585444
10	2889	1671.859148670802	122.12178442445
10	2895	1675.61739141787	124.90775549405
10	2904	1686.015707886326	134.21856132096
10	2905	1688.168736425949	129.5680893928
10	2910	1688.758088633709	129.61096033453
10	2911	1690.281339942063	127.78163006269
10	2912	1690.575160015763	126.95886264769
10	2915	1691.075437033921	123.308317305
10	2916	1692.93623738437	123.19214816653
10	2921	1695.574898220546	124.39498723235
10	2922	1696.187628006023	124.94441825582
10	2923	1696.682209020249	123.48890437483
10	2924	1696.798994894737	123.16659245788
10	2925	1697.202884769774	123.41761723403
10	2930	1697.814252996446	123.13346870025
10	2933	1701.101072346058	122.95432090293
10	2936	1701.991013739222	122.65792898284
10	2937	1702.169946558826	121.69786735147
10	2938	1702.724541485998	120.22024777479
10	2941	1704.279519643165	121.30323296421
10	2944	1707.43254183666	121.89671493313
10	2945	1707.555794870042	119.83616155716
10	2955	1710.898115252369	119.6117918012
10	2960	1711.698528274255	115.58033980096
10	2961	1711.93244493933	113.86226214176
10	2962	1711.963611420276	113.22229427365
10	2963	1713.387042662249	114.57960897639
10	2964	1713.867434173184	114.16555761542
10	2965	1715.10671117526	112.50108237134
10	2970	1717.097548162821	113.94602720426
10	2971	1717.586893440247	114.23546589014
10	2972	1718.411653736638	112.67988894951
10	2973	1719.482942519663	112.34988531291
10	2974	1720.395842427123	113.21881723472
10	2977	1720.883153977519	110.5319399199
10	2978	1721.161932160976	110.27407885489
10	2979	1721.530617813526	107.92837215066
10	2982	1722.513730832752	108.75085999584
10	2994	1728.838597257725	110.68852594118
10	2999	1731.441693750305	112.40984901075
10	3000	1732.461102550304	111.9234867441
10	3007	1735.104936119663	112.41741326377
10	3021	1742.434380812824	117.77189204562
10	3024	1742.770154636524	112.81104827391
10	3025	1742.899746943741	111.25691618477
10	3028	1744.202557568805	112.0455068651
10	3029	1744.525277254013	111.87350444755
10	3036	1747.640532785218	114.0188005759
10	3037	1748.018947487547	107.07701448351
10	3040	1748.659960486849	107.19551913752
10	3048	1755.612046802324	110.73249614681
10	3049	1755.699640154222	108.50512957004
10	3054	1757.113943156943	108.18670889765
10	3055	1757.200007260419	107.0604577106
10	3058	1758.123140589139	104.90165672597
10	3059	1758.465558554371	99.861204969053
10	3062	1759.996576082306	100.81265358529
10	3063	1760.023064326788	98.386529687486
10	3064	1760.726642216649	96.200054669202
10	3065	1761.715645795891	96.443567973467
10	3066	1762.816084415705	96.538158556292
10	3067	1763.610812691202	96.853801718472
10	3068	1763.632705515279	95.741025770168
10	3069	1763.882455991973	93.661491903736
10	3072	1764.525105952637	92.583457676494
10	3073	1765.322501442762	93.157302214609
10	3074	1766.781396456931	89.71836065812
10	3075	1766.844710053201	84.101286742425
10	3086	1775.485733389996	86.78834392518
10	3089	1776.097122424156	85.081905924849
10	3119	1793.766731830788	99.398495431122
10	3124	1796.452958106427	98.911132635541
10	3125	1797.410137923442	99.646823801223
10	3126	1797.520351209094	96.933563837172
10	3129	1799.31509761383	98.134292813731
10	3135	1800.789331893289	95.268174390538
10	3136	1801.210866842921	93.578565895966
10	3137	1801.241545946908	92.295620687778
10	3138	1802.171875289531	92.61117449329
10	3143	1804.03983438164	93.873147043419
10	3144	1805.171375282981	94.085911584648
10	3145	1805.586364994705	94.298567492902
10	3146	1805.611057360792	90.385358098761
10	3147	1806.006843813263	90.72368786451
10	3148	1806.52096964088	85.894263704384
10	3149	1806.673675012165	84.839595301063
10	3150	1807.130180396278	84.426807130268
10	3151	1807.498562897415	84.304430587875
10	3152	1807.826118470415	82.54234268207
10	3168	1815.562676013008	87.459172047617
10	3209	1840.169017282093	110.18445629346
10	3210	1840.340741875848	107.32614077891
10	3229	1856.098840360456	121.89483814975
10	3230	1856.331514414215	120.94164763621
10	3255	1870.656854806802	135.02362730994
10	3258	1874.067652202627	133.53410927111
10	3261	1875.778359237152	135.01340027055
10	3262	1875.886171957756	133.92828704848
10	3265	1878.333183790668	135.82048385521
10	3266	1882.178445134194	138.53319394321
10	3267	1882.180361733288	136.94368630701
10	3268	1882.848599003335	137.53302220896
10	3273	1884.110572791254	138.49596607495
10	3276	1884.776504794111	136.3467834834
10	3279	1886.219123410306	136.34876183794
10	3324	1907.387554933734	150.68824823911
10	3325	1908.142854885572	150.18801855581
10	3326	1908.392153575194	149.49805162997
10	3329	1909.015983074635	144.77835004302
10	3355	1916.94456881932	149.61398342912
10	3389	1935.880632727515	160.0745318883
10	3400	1941.488098220374	164.95873083413
10	3401	1942.483863756436	163.13742890313
10	3404	1943.682401605532	160.25555891808
10	3405	1944.706594563496	160.2716834747
10	3419	1952.775205644303	167.2004318492
10	3422	1953.181185700303	165.51090432996
10	3423	1953.482111197062	163.74504624573
10	3426	1953.849737332382	162.21149120859
10	3433	1956.721221647651	164.37954603185
10	3434	1957.20033395795	162.62058117694
10	3442	1962.165646254589	163.69498619061
10	3445	1962.785326650998	163.43344220104
10	3446	1962.838966674505	162.07389399395
10	3449	1966.091039501547	163.09554932531
10	3450	1966.580593245212	162.56606230023
10	3451	1967.189523730932	159.08709406591
10	3456	1968.366299158559	159.5559495378
10	3457	1968.685668152622	159.66932561698
10	3458	1970.346838126683	159.91067407719
10	3461	1970.968639205228	160.28286196481
10	3462	1972.074989423541	159.47132180255
10	3463	1972.111328160015	157.10447468786
10	3464	1972.671401855267	157.09595232314
10	3465	1973.160387578914	154.66349452996
10	3473	1979.820823811121	153.92239198903
10	3474	1980.052622569545	150.60886553433
10	3475	1980.611941277581	149.99999278501
10	3476	1980.80896387669	148.68225433054
10	3479	1982.842392489275	150.67521424694
10	3480	1983.153848999669	150.57262610787
10	3481	1983.40092862501	147.81171716917
10	3482	1984.276165238901	147.21331659796
10	3483	1984.762389248612	145.75534609871
10	3484	1985.163483080964	144.27507823047
10	3487	1986.376993572305	145.034040161
10	3492	1986.874997618951	143.59678004233
10	3499	1988.433569244441	142.91416057475
10	3500	1988.550395375577	137.68578540724
10	3501	1989.594690341768	138.67541253115
10	3502	1990.119299313026	136.04737094207
10	3505	1991.653347150998	135.15637689317
10	3511	1996.088629779814	137.80554869885
10	3512	1996.641997296788	137.87368887219
10	3513	1997.373562415102	138.01819451962
10	3514	1997.412742712634	136.75341047641
10	3515	1997.877110238562	136.86028289382
10	3516	1998.355085209287	134.71107735777
10	3517	1998.526125725808	133.53004667459
10	3518	1998.737590922897	133.33450452871
10	3521	1998.865460745365	126.7339031389
11	3522	2000	0.4605
12	3522	2000	0.098

