version 2
run Continuity_test_mean_response_time-81-20221215-22:13:27-13777
attr configname Continuity_test_mean_response_time
attr datetime 20221215-22:13:27
attr experiment Continuity_test_mean_response_time
attr inifile omnetpp.ini
attr iterationvars $0=5
attr iterationvarsf 5-
attr measurement $0=5
attr network Network
attr processid 13777
attr repetition 81
attr replication #81
attr resultdir results
attr runnumber 81
attr seedset 81
param *.minion.arrival_mean 2
param *.minion.service_mean 1
param *.boss.arrival_mean 10
param *.boss.service_mean 5
param *.player.recover_rate_x 100
param **.minion.arrival_distribution 0
param **.minion.service_distribution 0
param **.boss.arrival_distribution 0
param **.boss.service_distribution 0

vector 0 Network.player minion_jobs_number_stat:vector ETV
attr source signal_minion_jobs_number
vector 1 Network.player minion_jobs_queue_number_stat:vector ETV
attr source signal_minion_jobs_queue_number
vector 2 Network.player minion_recovered_stat:vector ETV
attr source signal_minion_recovered
vector 3 Network.player minion_defeated_stat:vector ETV
attr source signal_minion_defeated
vector 4 Network.player boss_jobs_number_stat:vector ETV
attr source signal_boss_jobs_number
vector 5 Network.player boss_jobs_queue_number_stat:vector ETV
attr source signal_boss_jobs_queue_number
vector 6 Network.player boss_defeated_stat:vector ETV
attr source signal_boss_defeated
vector 7 Network.player minion_waiting_time_stat:vector ETV
attr source signal_minion_waiting_time
vector 8 Network.player minion_response_time_stat:vector ETV
attr source signal_minion_response_time
vector 9 Network.player boss_waiting_time_stat:vector ETV
attr source signal_boss_waiting_time
vector 10 Network.player boss_response_time_stat:vector ETV
attr source signal_boss_response_time
vector 11 Network.player minion_throughput:vector ETV
attr source signal_minion_throughput
vector 12 Network.player boss_throughput:vector ETV
attr source signal_boss_throughput
0	0	0	0
0	2	0.124424787975	1
0	4	0.713638821321	2
0	6	2.156654260114	3
0	9	3.01764730592	3
0	11	3.136626482978	4
0	14	4.352272246724	4
0	16	5.170858461729	5
0	20	7.914269982869	6
0	22	9.416551260764	7
0	25	11.433443545727	8
0	33	17.113590772275	3
0	36	17.841126713408	3
0	38	18.399872637832	4
0	41	18.586204544977	4
0	45	20.414166538805	3
0	48	22.032676986518	3
0	52	22.606990161726	4
0	55	23.438883658243	5
0	59	25.741529016456	4
0	62	27.675849630398	4
0	64	27.70871107218	5
0	67	29.375039838451	5
0	74	34.692691434522	1
0	77	36.461850267934	1
0	80	37.710896037193	1
0	83	38.469142533044	1
0	86	41.166063359953	1
0	90	43.732095528513	2
0	92	45.332413809162	3
0	94	46.28691078495	4
0	96	46.38061151519	5
0	99	47.743119760944	6
0	101	48.933176557625	7
0	103	49.135901351774	8
0	105	49.907135061125	9
0	108	50.896156495415	9
0	115	54.463947169312	8
0	117	54.804381161637	9
0	120	56.910085513871	9
0	128	62.718034550066	7
0	139	67.937631160284	6
0	141	68.834567375153	7
0	143	68.987579268364	8
0	145	69.116374234166	9
0	148	70.621511490389	10
0	150	70.803356369931	11
0	155	74.257316015172	10
0	159	75.119634545904	9
0	161	76.224002146292	10
0	166	77.986199261323	8
0	168	78.404318062101	9
0	170	78.48045043477	10
0	172	78.892218276513	11
0	174	80.112021463461	12
0	178	82.60427519861	11
0	181	83.129398198179	11
0	187	86.597945476917	8
0	189	86.852991017097	9
0	192	88.624529686829	9
0	194	90.593632216168	10
0	198	91.103874633901	9
0	201	92.025096904496	9
0	205	96.886157951101	10
0	208	101.37228600073	11
0	211	102.096233100528	11
0	216	104.454818395928	12
0	218	104.728254129427	13
0	220	109.082108245206	14
0	222	110.872457099203	15
0	224	111.159045927571	16
0	228	112.927070855257	15
0	232	117.581152616697	16
0	236	117.66521798756	17
0	243	121.386972081551	18
0	248	125.284372465086	16
0	255	129.556637057015	12
0	258	131.127320253499	12
0	263	134.15508336186	10
0	270	135.754258945796	9
0	276	141.470201570875	8
0	281	145.822763547805	9
0	286	150.005325274501	10
0	288	150.281158705114	11
0	294	153.719266674185	11
0	296	156.982471239892	12
0	298	157.398621085581	13
0	301	158.990895185616	14
0	308	162.583880215019	14
0	318	175.916013582337	15
0	320	177.82519034263	16
0	323	178.77798210593	17
0	326	180.846651182573	18
0	330	184.869647804176	19
0	332	185.162179551019	20
0	334	185.806394900131	21
0	337	188.670492906855	22
0	341	190.126787730772	22
0	347	190.771215486822	21
0	352	193.035116257071	20
0	357	194.44718034374	18
0	361	198.691464267541	17
0	367	202.384088969292	14
0	369	203.038421300944	15
0	371	203.121243368572	16
0	374	204.617806420861	16
0	382	207.599282139587	17
0	404	223.074047888246	1
0	407	224.942924481314	1
0	410	225.890167928264	1
0	413	227.983575822068	1
0	416	229.585141538301	1
0	419	230.296332484404	1
0	421	231.164354300968	2
0	425	235.782955235579	1
0	428	241.075660674816	1
0	431	241.590782872316	1
0	434	245.701270738959	1
0	437	247.410711185042	1
0	440	248.599444780763	1
0	443	251.004989822161	1
0	446	252.062370025513	1
0	449	253.152154369344	1
0	452	258.57234918227	1
0	455	260.430998300666	1
0	457	260.984274542979	2
0	460	261.45955063513	2
0	464	261.943425918408	3
0	468	262.552779660563	4
0	470	262.586735678247	5
0	472	264.110587965339	6
0	474	264.840308092773	7
0	476	264.981501122414	8
0	478	265.879904423994	9
0	480	266.261998273603	10
0	482	267.344898112627	11
0	487	272.610838342003	12
0	489	272.840326770659	13
0	491	274.039740165344	14
0	494	275.667341551301	15
0	496	276.944299016949	16
0	499	277.852512170408	17
0	503	280.069914186853	16
0	508	282.75361487474	14
0	511	283.453479168683	14
0	514	284.395622532866	14
0	516	285.006661665861	15
0	518	285.357585281172	16
0	523	288.264259336964	14
0	525	288.46942831074	15
0	527	288.524732430069	16
0	531	290.878757609735	15
0	533	291.890531311031	16
0	536	292.686339875075	16
0	538	293.534231460965	17
0	541	293.816186035042	17
0	543	295.327672037724	18
0	553	298.910140305903	18
0	555	298.953821572164	19
0	557	299.200642224726	20
0	559	302.044133503962	21
0	561	302.085036399414	22
0	565	302.915175670918	23
0	568	305.310345649126	23
0	571	307.049164349404	23
0	573	307.268688192645	24
0	575	307.758736780208	25
0	579	312.180514627227	24
0	582	314.521101517291	24
0	585	314.590325550277	24
0	587	314.647692935845	25
0	590	315.288969726502	25
0	601	322.122292661946	20
0	603	322.704994976732	21
0	605	324.016538073218	22
0	608	325.550328827004	22
0	610	325.688004137325	23
0	613	327.590049649971	23
0	615	328.246033292155	24
0	617	328.875929760488	25
0	620	332.470422817409	25
0	623	332.985935650723	25
0	626	334.46920269218	25
0	630	335.127974126078	24
0	632	335.795416741005	25
0	638	336.816129569529	22
0	641	337.259438841126	22
0	645	338.047369231091	21
0	647	338.07884834092	22
0	650	340.873402578897	22
0	656	344.681985101758	19
0	659	346.589901629818	19
0	664	349.989927742827	17
0	667	350.482891949501	17
0	672	352.398828536681	15
0	676	353.999303148286	14
0	679	356.348158057707	14
0	681	356.505848126314	15
0	684	358.168014092993	15
0	688	358.628471407267	16
0	696	361.132157970275	12
0	698	362.729143118963	13
0	704	366.356327183549	10
0	709	369.730297725039	11
0	712	371.35809406189	11
0	716	372.707752688789	10
0	718	374.608405088618	11
0	721	376.172485890332	11
0	726	377.309120508629	9
0	728	377.636636810708	10
0	731	378.630561063536	10
0	735	379.903439908074	11
0	737	380.393843589896	12
0	739	380.96582248092	13
0	741	380.978140916446	14
0	743	381.244326382857	15
0	745	381.462204219679	16
0	749	383.471670381684	17
0	752	385.102262673463	18
0	756	387.83243735813	18
0	759	388.949711293205	18
0	761	390.286509905742	19
0	763	390.582849301428	20
0	765	391.417127771446	21
0	767	392.566947390418	22
0	773	395.52631016926	19
0	778	399.467362109607	19
0	780	399.979998856768	20
0	784	400.641446787824	21
0	786	401.787226611463	22
0	788	402.060940495366	23
0	790	403.840298350933	24
0	792	405.913872308925	25
0	794	406.244783384187	26
0	796	406.753325930126	27
0	798	408.372947156637	28
0	801	410.427003044709	29
0	803	410.594583913439	30
0	807	412.02619198772	30
0	811	412.423041930252	31
0	814	413.317727683074	32
0	817	413.932506482629	32
0	825	420.286233163502	27
0	828	420.739562131539	27
0	833	422.59069154638	27
0	837	426.153329282641	27
0	839	426.276080122069	28
0	842	426.958838853298	28
0	844	427.17907285663	29
0	849	431.949558189683	27
0	851	432.97053005858	28
0	854	436.210022034796	28
0	860	438.101345506148	29
0	862	439.138605787072	30
0	864	439.333688386901	31
0	869	440.959025184052	32
0	871	442.775145774681	33
0	873	442.907769898744	34
0	875	446.985938499081	35
0	877	448.083198062161	36
0	879	452.548201757226	37
0	881	452.668927072631	38
0	883	453.184199139833	39
0	887	454.295775127554	40
0	890	456.374307826178	41
0	894	458.59440955073	42
0	896	459.747745998554	43
0	898	460.000554521024	44
0	900	462.088450578889	45
0	903	464.078342878003	46
0	905	464.518930201104	47
0	907	465.437047817263	48
0	910	465.760099664348	49
0	912	466.355290314798	50
0	914	467.568660098485	51
0	920	470.171592163858	49
0	924	472.731056640352	48
0	927	473.715442414021	48
0	930	474.782664493416	48
0	934	475.078752429875	47
0	938	475.650630718549	48
0	940	477.33884854388	49
0	947	481.469557799312	46
0	951	484.255603936571	47
0	953	485.385930078921	48
0	955	487.376904438625	49
0	957	490.399084725391	50
0	959	491.18144846537	51
0	964	492.109321066026	50
0	970	496.825498922686	47
0	975	499.8408107147	45
0	977	500.560923134904	46
0	982	504.010136167589	44
0	984	504.36649994973	45
0	987	505.8271628701	45
0	994	508.318046260804	41
0	998	511.833818475992	40
0	1001	512.961212612478	40
0	1004	514.022859480092	40
0	1007	514.439687891606	40
0	1011	517.362329755201	39
0	1015	518.168416402871	38
0	1021	521.812648318586	35
0	1028	524.787580594134	31
0	1031	526.126428191026	31
0	1039	530.832479167945	28
0	1043	535.315878257329	28
0	1048	537.695178490042	26
0	1051	538.626644510051	26
0	1060	543.686119776724	20
0	1062	544.010020956146	21
0	1064	545.386067874056	22
0	1067	546.743650105326	22
0	1069	546.866772672496	23
0	1075	552.222686233776	20
0	1082	562.917738466762	16
0	1084	563.495185399185	17
0	1086	564.149430119466	18
0	1089	565.866714232299	18
0	1091	566.13467207191	19
0	1093	566.333403126379	20
0	1096	567.013228085414	20
0	1100	569.125239695233	19
0	1106	573.805492908532	16
0	1114	577.576086944239	11
0	1116	577.734744164972	12
0	1122	582.088626157518	9
0	1124	582.699425255085	10
0	1129	584.843031556195	10
0	1131	584.917751611174	11
0	1133	584.984841426869	12
0	1137	586.346479962689	13
0	1139	586.454244945249	14
0	1141	586.677646756324	15
0	1147	589.184156018162	14
0	1149	589.344447201462	15
0	1151	590.511405527792	16
0	1159	593.44826333854	11
0	1165	599.611386590457	11
0	1167	599.841312154172	12
0	1169	602.087470937815	13
0	1178	608.821540399359	9
0	1180	611.21985533046	10
0	1182	611.525432870286	11
0	1186	613.549056948647	11
0	1188	613.561544162988	12
0	1192	614.667031325203	13
0	1194	614.995208385143	14
0	1196	618.70070595874	15
0	1198	620.126593764237	16
0	1202	621.329789933426	16
0	1205	621.529212132216	16
0	1208	622.371438788018	16
0	1215	630.775696182854	17
0	1217	631.266956798539	18
0	1221	634.75048957844	18
0	1223	635.166153245471	19
0	1227	636.297845874687	18
0	1230	638.272084368733	18
0	1235	640.512600628173	18
0	1237	641.904987504019	19
0	1239	642.450846168422	20
0	1241	642.456329529144	21
0	1244	644.778982801317	22
0	1247	647.957324180923	22
0	1251	648.400278801947	21
0	1254	648.762369735944	21
0	1256	648.769230700953	22
0	1262	651.945476217076	19
0	1267	654.162903082597	17
0	1270	654.266069333188	17
0	1276	657.66835943483	14
0	1278	658.287378236488	15
0	1280	658.366597640806	16
0	1283	659.866351504149	16
0	1285	660.278367227816	17
0	1289	661.309536302681	16
0	1298	664.129345622247	10
0	1302	665.969826183582	9
0	1306	667.828001330361	8
0	1315	676.127715895348	4
0	1317	676.409254487664	5
0	1320	678.713311089345	6
0	1322	679.456011905936	7
0	1329	683.79595880011	3
0	1332	684.959419556457	3
0	1336	687.358459505795	2
0	1340	689.681724956236	1
0	1343	691.201206567343	1
0	1345	691.334042622983	2
0	1347	693.595559629992	3
0	1350	694.742206943645	3
0	1353	695.255194452156	3
0	1355	695.257745125997	4
0	1361	699.869162842279	1
0	1364	702.5004229589	1
0	1370	705.376656992901	2
0	1372	706.26016786198	3
0	1374	707.271075142402	4
0	1380	710.015265513312	3
0	1383	710.293121202571	3
0	1386	711.072692214893	3
0	1388	711.562015848285	4
0	1391	714.819490890778	4
0	1395	716.598942123907	3
0	1399	719.790805237	2
0	1401	720.019014686487	3
0	1403	722.374514421091	4
0	1405	724.363693870807	5
0	1411	728.310078427008	2
0	1415	731.505852548299	1
0	1417	732.652740732803	2
0	1419	733.132194794937	3
0	1424	736.436620258466	3
0	1426	738.213783267475	4
0	1428	738.479947491602	5
0	1430	741.342033121729	6
0	1432	741.528306870763	7
0	1434	744.652618669184	8
0	1436	744.860580712783	9
0	1438	745.173060714175	10
0	1440	746.840701830877	11
0	1447	750.495908589157	11
0	1456	755.037093995341	5
0	1462	757.386315145887	2
0	1465	759.600411023074	2
0	1467	760.823113609054	3
0	1469	760.968117434238	4
0	1471	761.896861538814	5
0	1473	761.97752514622	6
0	1475	762.609713223009	7
0	1477	762.893091423184	8
0	1480	767.331877428558	8
0	1482	768.355165064129	9
0	1486	769.443033534065	8
0	1495	773.544216964413	2
0	1501	776.114611388241	1
0	1505	780.242525434313	2
0	1508	783.020472678296	3
0	1514	789.965027576156	1
0	1517	793.248590943563	1
0	1519	793.609724640707	2
0	1523	795.275837519602	1
0	1526	796.620070187781	1
0	1529	797.318656984625	1
0	1532	799.243365039114	1
0	1534	799.256085584598	2
0	1537	800.099939602052	2
0	1541	802.257114208328	1
0	1544	804.867650166992	1
0	1549	806.115216001605	2
0	1552	807.350589715995	2
0	1555	807.933711494651	2
0	1557	810.896235368253	3
0	1559	811.355557765786	4
0	1564	815.782730171624	5
0	1568	817.29125197865	4
0	1574	819.654469904715	4
0	1576	820.546814374939	5
0	1589	831.192200191911	1
0	1591	831.694075402408	2
0	1595	836.192616171064	1
0	1600	837.53272653105	1
0	1602	839.192190923431	2
0	1609	841.705732438638	1
0	1611	842.603072444388	2
0	1613	844.374909473572	3
0	1615	844.387070510805	4
0	1617	845.656029548234	5
0	1621	849.713807219704	6
0	1623	849.733915869776	7
0	1626	851.172281701038	8
0	1636	857.6072465042	9
0	1640	858.680086362524	10
0	1646	864.412447900244	11
0	1650	865.886487833781	12
0	1652	868.114540476982	13
0	1654	869.971033764631	14
0	1657	870.286412586523	15
0	1660	872.85095650134	16
0	1662	873.627024359529	17
0	1664	877.49726088372	18
0	1666	877.818621989348	19
0	1668	879.592356616148	20
0	1670	882.05853862986	21
0	1677	886.12401281554	21
0	1683	888.367515429006	18
0	1685	889.213981491409	19
0	1689	890.276715078329	18
0	1692	891.6731273016	18
0	1696	893.699527157982	17
0	1699	894.254913722004	17
0	1711	899.246431531351	8
0	1715	902.314537992671	7
0	1720	904.882226106269	5
0	1725	908.018503688569	3
0	1729	910.751731222326	2
0	1733	912.922915631702	1
0	1736	914.414954649012	1
0	1738	914.857174430116	2
0	1742	921.740759788514	1
0	1745	925.53524404794	1
0	1748	927.197630198931	1
0	1750	927.286945397025	2
0	1753	929.816621286932	2
0	1755	930.723404521045	3
0	1762	933.733101919464	1
0	1764	934.048915380693	2
0	1766	935.720154885452	3
0	1768	936.503810093769	4
0	1770	938.37058711755	5
0	1772	939.504529410827	6
0	1778	951.344194212624	6
0	1780	951.478821077192	7
0	1786	953.795043498742	5
0	1788	953.795106621057	6
0	1793	958.294200249358	6
0	1795	958.313395849787	7
0	1797	958.360077621263	8
0	1800	959.754656517884	9
0	1803	961.758347490061	9
0	1805	962.309098962579	10
0	1809	964.397289862334	9
0	1814	968.366971182459	7
0	1817	970.564877058194	7
0	1819	970.632756979052	8
0	1822	974.458830305326	8
0	1827	978.41368010979	6
0	1829	979.29934909276	7
0	1834	981.901388214397	5
0	1839	983.901979001382	3
0	1843	985.607435473365	2
0	1848	986.308543060385	3
0	1852	988.195395259901	4
0	1854	988.387015751094	5
0	1860	993.295627877006	6
0	1866	1005.392607766005	7
0	1868	1006.083866970292	8
0	1870	1007.408118263579	9
0	1873	1007.941059197817	10
0	1875	1008.534360446057	11
0	1877	1009.83771563796	12
0	1879	1011.278140866159	13
0	1881	1012.544827981839	14
0	1883	1014.982862702589	15
0	1887	1021.588022494755	16
0	1889	1022.210157054341	17
0	1892	1029.45226220217	18
0	1894	1029.976229210698	19
0	1896	1030.286313379685	20
0	1898	1032.422689407781	21
0	1900	1035.381515126106	22
0	1905	1042.063934865113	23
0	1907	1043.830062666519	24
0	1909	1044.277847663682	25
0	1911	1044.479398206493	26
0	1915	1046.448263612232	26
0	1917	1046.719138297363	27
0	1919	1047.776220430928	28
0	1921	1048.820319577909	29
0	1924	1049.964731304214	29
0	1927	1050.416313622349	29
0	1930	1051.465236016561	29
0	1932	1052.333056991644	30
0	1934	1053.722080869244	31
0	1937	1054.892090631162	31
0	1939	1055.05512302017	32
0	1945	1060.92669582949	29
0	1954	1063.280680232981	27
0	1956	1063.339224271376	28
0	1960	1065.715659364186	29
0	1962	1066.591252484266	30
0	1964	1068.779480156716	31
0	1966	1071.246937821171	32
0	1968	1071.312366621951	33
0	1973	1074.120412684878	34
0	1979	1079.730372284053	34
0	1982	1082.777055022064	34
0	1984	1082.906836601573	35
0	1986	1083.447124399787	36
0	1988	1083.761913362559	37
0	1990	1084.726790072838	38
0	1993	1086.433413861457	38
0	2000	1090.932167432739	34
0	2004	1093.205301581867	35
0	2008	1094.464814140294	36
0	2010	1095.121839335054	37
0	2012	1095.961779352881	38
0	2014	1099.428155523988	39
0	2019	1104.293242091955	39
0	2021	1105.133534765272	40
0	2024	1106.230073290584	40
0	2026	1106.280054300417	41
0	2028	1106.52389617978	42
0	2035	1109.694558164443	38
0	2045	1118.265205966123	31
0	2048	1121.190561396734	31
0	2050	1122.611009425048	32
0	2052	1122.612007452981	33
0	2055	1123.873375815897	33
0	2075	1138.905105542308	18
0	2078	1140.19170664116	19
0	2081	1141.148997214372	19
0	2084	1143.30669596632	19
0	2086	1143.860394899588	20
0	2089	1144.633687856573	20
0	2093	1145.180542500584	21
0	2095	1145.463493577808	22
0	2097	1147.66482844159	23
0	2101	1151.056694854622	23
0	2103	1151.060523861753	24
0	2109	1156.002511107293	21
0	2113	1157.994086904463	20
0	2116	1158.525145104607	20
0	2123	1163.737007708125	16
0	2128	1165.132049126638	14
0	2131	1166.920689713334	14
0	2134	1167.846944260697	14
0	2137	1169.566053226081	14
0	2139	1170.321810631041	15
0	2142	1171.848498946605	15
0	2145	1172.360300507087	15
0	2147	1174.12140745744	16
0	2151	1176.923187774431	15
0	2154	1179.941540258901	15
0	2158	1181.516320710142	14
0	2165	1187.369282966421	10
0	2168	1191.147324504525	10
0	2175	1198.265143726555	9
0	2177	1198.528825035714	10
0	2181	1198.923470627897	11
0	2184	1199.524507511301	12
0	2187	1200.148436558504	12
0	2192	1202.298805118403	10
0	2197	1206.852211573487	8
0	2199	1207.047743767383	9
0	2201	1207.136616497247	10
0	2203	1207.480324834604	11
0	2207	1208.134534672356	10
0	2210	1209.944279435274	10
0	2213	1213.036110916448	10
0	2218	1214.860208367445	10
0	2221	1218.598090620513	11
0	2224	1220.604597004604	11
0	2227	1222.573590204504	11
0	2229	1222.773083873456	12
0	2237	1226.476604387387	10
0	2239	1226.832245701339	11
0	2242	1227.796825574361	11
0	2252	1232.414103948982	7
0	2257	1234.714489419769	5
0	2262	1237.04567318678	3
0	2269	1239.65641206632	2
0	2271	1240.009000818878	3
0	2273	1240.016724168601	4
0	2277	1240.8705812749	5
0	2279	1242.651654170831	6
0	2281	1243.190569313174	7
0	2285	1245.098147804304	8
0	2287	1247.119426804676	9
0	2291	1248.823685841962	10
0	2305	1257.759442244033	2
0	2307	1258.079292962092	3
0	2311	1259.199032974558	2
0	2314	1263.115747711108	2
0	2318	1266.232438740559	1
0	2321	1269.223621886804	1
0	2323	1269.733212126654	2
0	2327	1270.342660214352	1
0	2332	1271.101575625716	1
0	2334	1271.3968516627	2
0	2337	1271.95024883476	3
0	2339	1272.184307669078	4
0	2343	1274.531575905601	5
0	2345	1276.014262740648	6
0	2351	1282.057016356461	6
0	2353	1284.838025151903	7
0	2357	1286.743592642819	8
0	2361	1287.801653029032	9
0	2368	1290.587418898581	10
0	2371	1291.259045681686	11
0	2373	1292.266429094274	12
0	2376	1294.665352833648	12
0	2378	1295.878816382155	13
0	2380	1296.102913496201	14
0	2383	1296.993956074316	14
0	2387	1298.512496850939	13
0	2397	1304.306540212233	6
0	2402	1306.721686609953	4
0	2405	1308.658720052763	4
0	2409	1311.442937536671	5
0	2412	1312.183563683246	6
0	2415	1312.312209722599	6
0	2419	1315.794203582268	5
0	2424	1318.452481658129	3
0	2426	1319.249389359225	4
0	2430	1321.831629282459	5
0	2432	1322.350304239522	6
0	2440	1325.183998447437	5
0	2443	1325.615799765433	5
0	2445	1325.772579759987	6
0	2447	1325.936215194715	7
0	2451	1328.12522192425	8
0	2458	1335.147227750201	5
0	2461	1335.498106588533	5
0	2469	1339.231434137026	2
0	2471	1340.07417931602	3
0	2473	1348.844689096568	4
0	2475	1349.326726683345	5
0	2477	1350.00532441401	6
0	2479	1350.359215692478	7
0	2486	1356.421009846446	8
0	2488	1356.765704189253	9
0	2490	1358.650548906783	10
0	2492	1360.076838431445	11
0	2498	1364.028143790735	12
0	2505	1367.110687855091	9
0	2507	1367.689528737268	10
0	2512	1370.980049872559	11
0	2516	1373.877918133235	10
0	2518	1374.145763133862	11
0	2520	1374.783357241419	12
0	2522	1376.676568004798	13
0	2530	1378.951066042738	8
0	2532	1379.825815882138	9
0	2539	1385.098690681809	5
0	2543	1389.974712167996	4
0	2545	1390.655836691809	5
0	2549	1393.9469914737	4
0	2553	1397.49070182271	3
0	2555	1398.038539454521	4
0	2561	1400.330760827655	1
0	2567	1403.627522746258	1
0	2570	1405.134770873848	1
0	2573	1410.195559231476	1
0	2576	1411.261733738189	1
0	2578	1413.194215792677	2
0	2581	1414.042284710871	2
0	2583	1414.50743641802	3
0	2588	1422.561276419034	1
0	2592	1423.843887862985	2
0	2594	1424.911848617133	3
0	2596	1426.268803645505	4
0	2598	1428.166119136759	5
0	2600	1428.346733056739	6
0	2606	1434.093253581403	4
0	2608	1434.655078572017	5
0	2611	1434.745384977812	5
0	2613	1435.336768370217	6
0	2621	1438.31672660679	1
0	2624	1442.215789110769	1
0	2626	1442.549567213296	2
0	2628	1443.090704329319	3
0	2633	1445.661353088678	1
0	2636	1446.460543526712	1
0	2639	1448.87869167871	1
0	2643	1449.630681302633	2
0	2647	1452.399169206024	3
0	2650	1454.085905274351	4
0	2652	1456.8424111098	5
0	2657	1458.250541842775	6
0	2659	1463.318906980781	7
0	2662	1463.516685910485	8
0	2670	1467.361756609193	3
0	2672	1469.913651074403	4
0	2674	1470.427036069126	5
0	2680	1474.25812296329	2
0	2682	1474.336626328611	3
0	2684	1474.734110342235	4
0	2690	1477.600640148566	5
0	2703	1487.308439174176	1
0	2707	1488.398131536842	2
0	2709	1490.00625075431	3
0	2711	1492.035298505945	4
0	2716	1495.113903821797	5
0	2722	1498.824009542603	2
0	2724	1498.954780265454	3
0	2727	1500.304646283971	3
0	2730	1501.509959617325	3
0	2735	1505.271903639449	1
0	2738	1506.793696057143	1
0	2744	1510.71896355877	1
0	2749	1512.121238238363	1
0	2752	1514.69173609164	2
0	2756	1516.287114612924	1
0	2761	1517.765821033981	1
0	2764	1518.94046959288	2
0	2770	1524.748472082524	1
0	2772	1524.870058698302	2
0	2775	1526.61635097624	3
0	2777	1526.995359266966	4
0	2783	1529.239164070167	3
0	2787	1533.851955548221	4
0	2789	1537.798276419364	5
0	2796	1544.030288980234	3
0	2799	1546.75059531337	3
0	2808	1557.77239805656	3
0	2810	1558.009601751643	4
0	2813	1558.75890432731	4
0	2815	1560.787080507845	5
0	2818	1561.646011018812	5
0	2820	1562.003816838049	6
0	2822	1562.967468562948	7
0	2825	1563.461984333808	7
0	2831	1569.096730983369	7
0	2842	1574.825951980916	1
0	2844	1576.301529237106	2
0	2846	1576.688359467563	3
0	2852	1582.112624294685	1
0	2857	1585.010648022812	1
0	2860	1586.595151925693	2
0	2862	1586.785282518914	3
0	2864	1586.993878282773	4
0	2866	1587.40883817582	5
0	2871	1590.654433120611	3
0	2876	1593.880059872971	1
0	2881	1596.246097554769	1
0	2885	1596.361784738678	2
0	2887	1597.607697030877	3
0	2889	1597.711385704417	4
0	2893	1601.35491142457	5
0	2895	1603.691350702306	6
0	2899	1605.898814783735	7
0	2904	1609.890747735252	8
0	2906	1612.497846852938	9
0	2913	1618.444962797458	10
0	2915	1619.475098885892	11
0	2917	1620.362155199614	12
0	2920	1621.075581257292	13
0	2922	1625.853143218163	14
0	2924	1626.136757341303	15
0	2928	1626.442859584478	16
0	2930	1628.453206018329	17
0	2932	1629.391477153456	18
0	2934	1630.504492161629	19
0	2936	1635.597193415129	20
0	2938	1636.126034716286	21
0	2940	1638.604522025656	22
0	2943	1639.189294601352	23
0	2949	1643.39120957058	21
0	2953	1645.540955376317	20
0	2955	1645.704179193099	21
0	2958	1645.96735933881	21
0	2964	1647.836316198283	18
0	2969	1649.121577328482	18
0	2971	1651.181400691168	19
0	2973	1652.255147869864	20
0	2975	1653.45769557223	21
0	2977	1653.680542601607	22
0	2979	1654.663734513563	23
0	2981	1654.792394908135	24
0	2983	1657.081714379431	25
0	2985	1658.038611525431	26
0	2987	1658.670762008099	27
0	2989	1659.755490182328	28
0	2991	1660.318164198705	29
0	2993	1660.531837791911	30
0	2999	1663.64831006874	28
0	3013	1671.594158948474	20
0	3020	1674.217549166239	18
0	3022	1675.683558055406	19
0	3024	1675.695385717043	20
0	3038	1688.213282526948	12
0	3043	1690.338903660665	11
0	3050	1694.95294139715	7
0	3053	1697.064402765679	7
0	3057	1698.558705147382	6
0	3060	1699.350524959548	6
0	3062	1699.462301134306	7
0	3065	1700.678262103526	7
0	3070	1702.574161278632	5
0	3072	1703.3470388194	6
0	3077	1707.0679436316	4
0	3079	1709.445527547621	5
0	3084	1711.455805831009	3
0	3089	1714.278118390485	1
0	3092	1717.195453711307	1
0	3096	1721.728009342903	2
0	3098	1721.972514548114	3
0	3100	1722.412830342998	4
0	3102	1723.63789140726	5
0	3104	1728.845911850258	6
0	3107	1731.571097847096	7
0	3110	1734.217093431075	7
0	3115	1735.631118746684	7
0	3120	1738.101321400929	6
0	3124	1741.178273290938	5
0	3126	1743.079609925329	6
0	3129	1746.751399168916	6
0	3132	1749.474727033843	6
0	3134	1749.765074372275	7
0	3137	1750.51551502084	7
0	3140	1752.188926517999	7
0	3143	1754.657511982173	7
0	3145	1755.33298358377	8
0	3147	1756.143058131834	9
0	3149	1756.323508690063	10
0	3152	1757.578542289519	10
0	3161	1761.748069521253	7
0	3165	1764.118401254255	6
0	3170	1766.424401934441	4
0	3173	1767.152253807434	4
0	3175	1767.320662723246	5
0	3178	1767.792822825749	5
0	3180	1768.478321751908	6
0	3182	1768.597127898382	7
0	3184	1769.454632414245	8
0	3186	1769.916944195019	9
0	3191	1772.904732454488	9
0	3195	1774.872966102009	10
0	3198	1781.864320194668	11
0	3200	1782.494922123005	12
0	3202	1782.877450627516	13
0	3204	1783.744745389335	14
0	3207	1787.454384805737	15
0	3215	1791.734793583509	13
0	3220	1796.770245000997	11
0	3223	1797.12181800573	11
0	3226	1798.11574903404	11
0	3228	1798.337928784885	12
0	3232	1801.171168967712	13
0	3235	1803.232722564245	14
0	3242	1804.52666940282	10
0	3245	1807.159113225081	10
0	3247	1807.914646442671	11
0	3253	1808.664552235459	8
0	3255	1808.693425247809	9
0	3257	1809.003755089966	10
0	3261	1810.761024108871	9
0	3266	1813.863727562652	7
0	3269	1816.621152781435	7
0	3274	1818.835250522489	5
0	3277	1822.309230939199	5
0	3280	1823.581374566274	5
0	3282	1823.58990804898	6
0	3288	1826.737866060066	6
0	3290	1827.283446615239	7
0	3296	1831.221890264559	6
0	3298	1832.178891739677	7
0	3300	1832.431553237841	8
0	3304	1834.868394126761	8
0	3314	1839.015974120532	1
0	3316	1839.133816686354	2
0	3320	1842.505888120245	1
0	3323	1843.362697484345	1
0	3326	1844.803111382237	1
0	3329	1846.844806056654	1
0	3332	1847.550321701475	1
0	3335	1848.633006662692	1
0	3338	1850.160365166911	1
0	3344	1852.566856916326	2
0	3346	1855.235221660172	3
0	3348	1855.271667868035	4
0	3350	1855.400188093189	5
0	3352	1857.056658117483	6
0	3354	1857.562429856379	7
0	3356	1860.901485205216	8
0	3358	1863.898801036078	9
0	3362	1867.377454347253	10
0	3365	1868.747288189258	10
0	3370	1871.589280349581	8
0	3373	1872.998500691343	8
0	3376	1873.853558213551	8
0	3378	1874.084539592368	9
0	3385	1877.754145008259	7
0	3387	1877.792429970825	8
0	3389	1878.522733098707	9
0	3395	1884.662025008742	9
0	3409	1897.327092128689	10
0	3411	1897.74525799507	11
0	3416	1902.210932732502	10
0	3422	1904.624067042276	7
0	3428	1907.399239231776	4
0	3431	1908.083768047363	4
0	3436	1909.782984192207	2
0	3443	1911.893418993609	1
0	3445	1912.820493133594	2
0	3449	1914.530937397602	1
0	3452	1918.216651576871	1
0	3455	1919.636611803899	1
0	3458	1920.405934740429	1
0	3461	1922.697523686394	1
0	3463	1922.722905642251	2
0	3466	1923.679324589661	2
0	3468	1924.715235058628	3
0	3473	1926.500722846826	1
0	3475	1928.416065778849	2
0	3479	1929.490436548716	1
0	3482	1930.216412031161	1
0	3485	1934.480333188957	1
0	3487	1934.497893595674	2
0	3491	1937.448213251047	3
0	3497	1940.767750391683	1
0	3500	1943.981978784498	1
0	3503	1944.684330864023	1
0	3509	1948.172776376323	1
0	3512	1949.805794203649	1
0	3514	1950.031475679495	2
0	3516	1950.033350102935	3
0	3518	1950.213777732559	4
0	3521	1952.157569903312	4
0	3526	1953.402043610161	2
0	3528	1953.732517332564	3
0	3532	1954.302838733775	2
0	3536	1960.385925720291	1
0	3539	1965.038622746045	1
0	3544	1968.841093024221	2
0	3547	1970.91186021105	2
0	3551	1972.747524422576	1
0	3554	1974.791520149449	1
0	3557	1975.504132613842	1
0	3559	1977.169003153853	2
0	3562	1980.179440232958	2
0	3566	1986.070319080416	1
0	3568	1986.501240029496	2
0	3573	1987.635596110091	3
0	3575	1987.915112480805	4
0	3581	1990.577066695424	1
0	3587	1992.219971362171	2
0	3589	1993.85385627151	3
0	3591	1994.378805607842	4
0	3593	1995.819323186985	5
0	3595	1997.567532160856	6
0	3599	1998.868598225356	7
1	0	0	0
1	2	0.124424787975	0
1	4	0.713638821321	1
1	6	2.156654260114	2
1	7	2.751834770576	2
1	9	3.01764730592	2
1	11	3.136626482978	3
1	12	3.619443121017	3
1	14	4.352272246724	3
1	16	5.170858461729	4
1	20	7.914269982869	5
1	22	9.416551260764	6
1	25	11.433443545727	7
1	26	13.351352711385	7
1	27	13.921619888466	6
1	28	14.020392120673	5
1	29	15.169453079444	4
1	30	15.664145778978	3
1	31	16.028603096706	2
1	33	17.113590772275	2
1	34	17.204213239845	2
1	36	17.841126713408	2
1	38	18.399872637832	3
1	39	18.540005084084	3
1	41	18.586204544977	3
1	42	19.96794635837	3
1	43	19.983478549109	2
1	45	20.414166538805	2
1	46	21.591722399847	2
1	48	22.032676986518	2
1	52	22.606990161726	3
1	55	23.438883658243	4
1	56	24.942736677049	4
1	57	25.110038982172	3
1	59	25.741529016456	3
1	60	27.014252105504	3
1	62	27.675849630398	3
1	64	27.70871107218	4
1	65	28.497921897376	4
1	67	29.375039838451	4
1	68	29.86985937559	4
1	69	30.538465979307	3
1	70	31.627954816142	2
1	71	32.14031987366	1
1	72	33.121989948395	0
1	74	34.692691434522	0
1	75	35.493819107656	0
1	77	36.461850267934	0
1	78	36.494001339607	0
1	80	37.710896037193	0
1	81	37.971250026921	0
1	83	38.469142533044	0
1	84	38.810002074909	0
1	86	41.166063359953	0
1	90	43.732095528513	1
1	92	45.332413809162	2
1	94	46.28691078495	3
1	96	46.38061151519	4
1	99	47.743119760944	5
1	101	48.933176557625	6
1	103	49.135901351774	7
1	105	49.907135061125	8
1	106	50.85674942003	8
1	108	50.896156495415	8
1	112	53.950037545995	8
1	113	53.985291000082	7
1	115	54.463947169312	7
1	117	54.804381161637	8
1	118	56.562441339322	8
1	120	56.910085513871	8
1	124	61.051170122634	8
1	125	61.28581175031	7
1	126	61.758474367002	6
1	128	62.718034550066	6
1	129	62.975209153559	6
1	130	63.298948447536	5
1	139	67.937631160284	5
1	141	68.834567375153	6
1	143	68.987579268364	7
1	145	69.116374234166	8
1	148	70.621511490389	9
1	150	70.803356369931	10
1	152	71.526865957279	10
1	153	72.31743851979	9
1	155	74.257316015172	9
1	156	74.335829661187	9
1	157	74.974511931106	8
1	159	75.119634545904	8
1	161	76.224002146292	9
1	162	76.849855989074	9
1	163	77.706266155172	8
1	164	77.95183380432	7
1	166	77.986199261323	7
1	168	78.404318062101	8
1	170	78.48045043477	9
1	172	78.892218276513	10
1	174	80.112021463461	11
1	175	80.419392659611	11
1	176	81.711705641556	10
1	178	82.60427519861	10
1	179	82.83522251138	10
1	181	83.129398198179	10
1	182	83.275558852531	10
1	183	84.204187163658	9
1	184	85.777050306344	8
1	185	86.493786539232	7
1	187	86.597945476917	7
1	189	86.852991017097	8
1	190	88.434724672063	8
1	192	88.624529686829	8
1	194	90.593632216168	9
1	195	90.753651797748	9
1	196	90.759445144942	8
1	198	91.103874633901	8
1	199	91.716720255193	8
1	201	92.025096904496	8
1	205	96.886157951101	9
1	208	101.37228600073	10
1	209	101.875518957611	10
1	211	102.096233100528	10
1	216	104.454818395928	11
1	218	104.728254129427	12
1	220	109.082108245206	13
1	222	110.872457099203	14
1	224	111.159045927571	15
1	225	111.303904425114	15
1	226	112.4029257591	14
1	228	112.927070855257	14
1	232	117.581152616697	15
1	236	117.66521798756	16
1	243	121.386972081551	17
1	244	122.422735591277	17
1	245	123.360073758785	16
1	246	124.260284711292	15
1	248	125.284372465086	15
1	249	125.978706398959	15
1	250	127.090994048386	14
1	251	128.32535387181	13
1	252	128.961954989636	12
1	253	129.149949269209	11
1	255	129.556637057015	11
1	256	129.838775516826	11
1	258	131.127320253499	11
1	259	131.795014648298	11
1	260	132.037863967311	10
1	261	133.784037660026	9
1	263	134.15508336186	9
1	264	134.91633404144	9
1	265	135.453778413584	8
1	270	135.754258945796	8
1	271	137.667062510648	8
1	272	140.748865294545	7
1	276	141.470201570875	7
1	281	145.822763547805	8
1	286	150.005325274501	9
1	288	150.281158705114	10
1	290	153.239085307305	10
1	294	153.719266674185	10
1	296	156.982471239892	11
1	298	157.398621085581	12
1	301	158.990895185616	13
1	302	159.309424541424	13
1	308	162.583880215019	13
1	318	175.916013582337	14
1	320	177.82519034263	15
1	323	178.77798210593	16
1	326	180.846651182573	17
1	330	184.869647804176	18
1	332	185.162179551019	19
1	334	185.806394900131	20
1	337	188.670492906855	21
1	339	190.044070943207	21
1	341	190.126787730772	21
1	342	190.38445408343	21
1	343	190.388845804042	20
1	347	190.771215486822	20
1	349	192.160387156362	20
1	350	192.957141948929	19
1	352	193.035116257071	19
1	353	193.048596424993	19
1	354	194.037125132555	18
1	355	194.185504921095	17
1	357	194.44718034374	17
1	358	194.672223263375	17
1	359	196.118554303006	16
1	361	198.691464267541	16
1	362	198.818214294267	16
1	363	201.137115718518	15
1	364	201.723596194401	14
1	365	202.118511450083	13
1	367	202.384088969292	13
1	369	203.038421300944	14
1	371	203.121243368572	15
1	372	203.150109879458	15
1	374	204.617806420861	15
1	382	207.599282139587	16
1	383	208.466630078729	16
1	387	209.253904926688	15
1	388	209.916783914398	14
1	389	210.142775562573	13
1	390	212.470670094483	12
1	391	212.488050172257	11
1	392	213.357822759975	10
1	393	213.887183141808	9
1	394	214.058847533118	8
1	395	214.829833873459	7
1	396	215.699763613866	6
1	397	216.1520367184	5
1	398	218.043075890934	4
1	399	218.939997578363	3
1	400	221.070034226181	2
1	401	221.708400398347	1
1	402	221.849561247867	0
1	404	223.074047888246	0
1	405	223.532715061583	0
1	407	224.942924481314	0
1	408	225.089477712773	0
1	410	225.890167928264	0
1	411	226.045178493622	0
1	413	227.983575822068	0
1	414	228.165730388228	0
1	416	229.585141538301	0
1	417	229.691038535231	0
1	419	230.296332484404	0
1	421	231.164354300968	1
1	422	231.796977222004	1
1	423	232.087205896153	0
1	425	235.782955235579	0
1	426	236.336709458219	0
1	428	241.075660674816	0
1	429	241.095473471839	0
1	431	241.590782872316	0
1	432	242.504012079662	0
1	434	245.701270738959	0
1	435	247.042980475029	0
1	437	247.410711185042	0
1	438	247.969070911256	0
1	440	248.599444780763	0
1	441	248.624684090792	0
1	443	251.004989822161	0
1	444	251.950452795833	0
1	446	252.062370025513	0
1	447	253.078195092219	0
1	449	253.152154369344	0
1	450	253.166466907921	0
1	452	258.57234918227	0
1	453	258.929638477618	0
1	455	260.430998300666	0
1	457	260.984274542979	1
1	458	261.060133577649	1
1	460	261.45955063513	1
1	464	261.943425918408	2
1	468	262.552779660563	3
1	470	262.586735678247	4
1	472	264.110587965339	5
1	474	264.840308092773	6
1	476	264.981501122414	7
1	478	265.879904423994	8
1	480	266.261998273603	9
1	482	267.344898112627	10
1	487	272.610838342003	11
1	489	272.840326770659	12
1	491	274.039740165344	13
1	494	275.667341551301	14
1	496	276.944299016949	15
1	499	277.852512170408	16
1	500	277.89279742157	16
1	501	278.066933691943	15
1	503	280.069914186853	15
1	504	280.473474323742	15
1	505	280.65709522734	14
1	506	281.287698702483	13
1	508	282.75361487474	13
1	509	283.150184782027	13
1	511	283.453479168683	13
1	512	283.941614695113	13
1	514	284.395622532866	13
1	516	285.006661665861	14
1	518	285.357585281172	15
1	519	286.019484228935	15
1	520	286.731968857829	14
1	521	288.056963069088	13
1	523	288.264259336964	13
1	525	288.46942831074	14
1	527	288.524732430069	15
1	528	290.180638532778	15
1	529	290.806419516087	14
1	531	290.878757609735	14
1	533	291.890531311031	15
1	534	292.100374742704	15
1	536	292.686339875075	15
1	538	293.534231460965	16
1	539	293.707731746731	16
1	541	293.816186035042	16
1	543	295.327672037724	17
1	544	295.403162248476	17
1	553	298.910140305903	17
1	555	298.953821572164	18
1	557	299.200642224726	19
1	559	302.044133503962	20
1	561	302.085036399414	21
1	565	302.915175670918	22
1	566	303.897338485086	22
1	568	305.310345649126	22
1	569	305.32741639998	22
1	571	307.049164349404	22
1	573	307.268688192645	23
1	575	307.758736780208	24
1	576	310.625198189016	24
1	577	311.38262617556	23
1	579	312.180514627227	23
1	580	313.298348147288	23
1	582	314.521101517291	23
1	583	314.548427922408	23
1	585	314.590325550277	23
1	587	314.647692935845	24
1	588	314.982999190811	24
1	590	315.288969726502	24
1	591	315.969756503334	24
1	592	316.336961850701	23
1	596	319.985911595856	22
1	597	320.316265337962	21
1	598	321.044312232764	20
1	599	321.501940837003	19
1	601	322.122292661946	19
1	603	322.704994976732	20
1	605	324.016538073218	21
1	606	325.168628436964	21
1	608	325.550328827004	21
1	610	325.688004137325	22
1	611	325.874178102186	22
1	613	327.590049649971	22
1	615	328.246033292155	23
1	617	328.875929760488	24
1	618	329.222927057894	24
1	620	332.470422817409	24
1	621	332.734094003664	24
1	623	332.985935650723	24
1	624	333.642075187582	24
1	626	334.46920269218	24
1	627	334.855085930615	24
1	628	335.026102103725	23
1	630	335.127974126078	23
1	632	335.795416741005	24
1	633	335.857977097054	24
1	634	336.50115587914	23
1	635	336.501390222467	22
1	636	336.710420720717	21
1	638	336.816129569529	21
1	639	336.839305292157	21
1	641	337.259438841126	21
1	642	337.768294348588	21
1	643	338.033030047659	20
1	645	338.047369231091	20
1	647	338.07884834092	21
1	648	338.954237275026	21
1	650	340.873402578897	21
1	651	341.126600136204	21
1	652	342.67078172436	20
1	653	343.378078606998	19
1	654	344.607313238629	18
1	656	344.681985101758	18
1	657	345.096088040247	18
1	659	346.589901629818	18
1	660	348.202499530918	18
1	661	349.04208075397	17
1	662	349.162950896128	16
1	664	349.989927742827	16
1	665	350.169938670707	16
1	667	350.482891949501	16
1	668	351.204286193316	16
1	669	351.401509503414	15
1	670	351.544412800508	14
1	672	352.398828536681	14
1	673	352.470055774788	14
1	674	353.564160500489	13
1	676	353.999303148286	13
1	677	355.930884711646	13
1	679	356.348158057707	13
1	681	356.505848126314	14
1	682	357.171235228066	14
1	684	358.168014092993	14
1	688	358.628471407267	15
1	690	359.426948621446	15
1	691	359.502695795556	14
1	692	360.036229943555	13
1	693	361.001198318763	12
1	694	361.103382223252	11
1	696	361.132157970275	11
1	698	362.729143118963	12
1	699	364.762921188957	12
1	700	365.123396974441	11
1	701	365.701659282312	10
1	702	366.061174111261	9
1	704	366.356327183549	9
1	709	369.730297725039	10
1	710	370.202084941945	10
1	712	371.35809406189	10
1	713	372.033829298334	10
1	714	372.483545001485	9
1	716	372.707752688789	9
1	718	374.608405088618	10
1	719	376.005209993716	10
1	721	376.172485890332	10
1	722	376.478627455188	10
1	723	376.685441235912	9
1	724	376.724983594761	8
1	726	377.309120508629	8
1	728	377.636636810708	9
1	729	378.126509265553	9
1	731	378.630561063536	9
1	735	379.903439908074	10
1	737	380.393843589896	11
1	739	380.96582248092	12
1	741	380.978140916446	13
1	743	381.244326382857	14
1	745	381.462204219679	15
1	749	383.471670381684	16
1	752	385.102262673463	17
1	754	386.782968593495	17
1	756	387.83243735813	17
1	757	388.19605020059	17
1	759	388.949711293205	17
1	761	390.286509905742	18
1	763	390.582849301428	19
1	765	391.417127771446	20
1	767	392.566947390418	21
1	768	393.215777315448	21
1	769	393.731050132571	20
1	770	394.73396284125	19
1	771	394.74045757509	18
1	773	395.52631016926	18
1	774	396.67449077021	18
1	778	399.467362109607	18
1	780	399.979998856768	19
1	784	400.641446787824	20
1	786	401.787226611463	21
1	788	402.060940495366	22
1	790	403.840298350933	23
1	792	405.913872308925	24
1	794	406.244783384187	25
1	796	406.753325930126	26
1	798	408.372947156637	27
1	801	410.427003044709	28
1	803	410.594583913439	29
1	805	411.698573341574	29
1	807	412.02619198772	29
1	811	412.423041930252	30
1	814	413.317727683074	31
1	815	413.931237321386	31
1	817	413.932506482629	31
1	818	414.313275783707	31
1	819	414.999945669144	30
1	820	415.255069870349	29
1	821	415.70209154124	28
1	822	415.802908197807	27
1	823	417.547141054214	26
1	825	420.286233163502	26
1	826	420.60851408409	26
1	828	420.739562131539	26
1	829	420.756305470159	26
1	833	422.59069154638	26
1	835	425.496280276289	26
1	837	426.153329282641	26
1	839	426.276080122069	27
1	840	426.566470547981	27
1	842	426.958838853298	27
1	844	427.17907285663	28
1	845	428.136017222366	28
1	846	429.41152760764	27
1	847	431.649586232717	26
1	849	431.949558189683	26
1	851	432.97053005858	27
1	852	434.297298395146	27
1	854	436.210022034796	27
1	860	438.101345506148	28
1	862	439.138605787072	29
1	864	439.333688386901	30
1	869	440.959025184052	31
1	871	442.775145774681	32
1	873	442.907769898744	33
1	875	446.985938499081	34
1	877	448.083198062161	35
1	879	452.548201757226	36
1	881	452.668927072631	37
1	883	453.184199139833	38
1	887	454.295775127554	39
1	890	456.374307826178	40
1	894	458.59440955073	41
1	896	459.747745998554	42
1	898	460.000554521024	43
1	900	462.088450578889	44
1	903	464.078342878003	45
1	905	464.518930201104	46
1	907	465.437047817263	47
1	910	465.760099664348	48
1	912	466.355290314798	49
1	914	467.568660098485	50
1	916	468.829579730682	50
1	917	469.400448896533	49
1	918	470.120660040876	48
1	920	470.171592163858	48
1	921	471.518752636186	48
1	922	472.635662355864	47
1	924	472.731056640352	47
1	925	473.2886080584	47
1	927	473.715442414021	47
1	928	474.090021332946	47
1	930	474.782664493416	47
1	931	474.930592923531	47
1	932	475.075749896326	46
1	934	475.078752429875	46
1	938	475.650630718549	47
1	940	477.33884854388	48
1	942	478.888505880696	48
1	943	479.253778770635	47
1	944	480.021409382254	46
1	945	481.208698610181	45
1	947	481.469557799312	45
1	951	484.255603936571	46
1	953	485.385930078921	47
1	955	487.376904438625	48
1	957	490.399084725391	49
1	959	491.18144846537	50
1	961	491.684364485774	50
1	962	492.043188892437	49
1	964	492.109321066026	49
1	965	492.258558779796	49
1	966	493.703302389757	48
1	967	494.929241257773	47
1	968	495.251842299366	46
1	970	496.825498922686	46
1	971	497.665645446013	46
1	972	497.833510763854	45
1	973	498.98291914139	44
1	975	499.8408107147	44
1	977	500.560923134904	45
1	978	502.046502550649	45
1	979	502.885784875956	44
1	980	503.744047624153	43
1	982	504.010136167589	43
1	984	504.36649994973	44
1	985	504.635550921587	44
1	987	505.8271628701	44
1	988	505.892874275833	44
1	989	506.081596360348	43
1	990	506.838230652595	42
1	991	506.931267753675	41
1	992	507.487544446316	40
1	994	508.318046260804	40
1	995	509.301649007043	40
1	996	510.211400927055	39
1	998	511.833818475992	39
1	999	512.357259468929	39
1	1001	512.961212612478	39
1	1002	513.038736709965	39
1	1004	514.022859480092	39
1	1005	514.052751001021	39
1	1007	514.439687891606	39
1	1008	514.697574845984	39
1	1009	515.90020313091	38
1	1011	517.362329755201	38
1	1012	517.785681408781	38
1	1013	517.941616451264	37
1	1015	518.168416402871	37
1	1016	519.369076105768	37
1	1017	519.98086044385	36
1	1018	520.660100998583	35
1	1019	521.407929265614	34
1	1021	521.812648318586	34
1	1022	522.950854668674	34
1	1023	523.201934182232	33
1	1024	523.557929119153	32
1	1025	524.16849564354	31
1	1026	524.60416296	30
1	1028	524.787580594134	30
1	1029	525.955093602024	30
1	1031	526.126428191026	30
1	1032	527.294816031899	30
1	1033	527.998593457449	29
1	1034	528.073182836633	28
1	1035	528.221998542675	27
1	1039	530.832479167945	27
1	1041	535.170561355744	27
1	1043	535.315878257329	27
1	1044	535.872232901097	27
1	1045	536.154256195834	26
1	1046	536.921904823615	25
1	1048	537.695178490042	25
1	1049	538.621281526502	25
1	1051	538.626644510051	25
1	1052	538.774094531618	25
1	1053	539.127285841933	24
1	1054	540.454349935937	23
1	1055	540.9439571432	22
1	1056	542.168717876419	21
1	1057	542.685662987162	20
1	1058	542.725081804071	19
1	1060	543.686119776724	19
1	1062	544.010020956146	20
1	1064	545.386067874056	21
1	1065	546.328148953351	21
1	1067	546.743650105326	21
1	1069	546.866772672496	22
1	1070	547.022839060612	22
1	1071	547.54277415136	21
1	1072	548.422345231078	20
1	1073	551.678343469929	19
1	1075	552.222686233776	19
1	1076	555.634376487637	19
1	1077	556.104267026444	18
1	1078	559.359295608059	17
1	1079	561.392022662551	16
1	1080	562.420463712636	15
1	1082	562.917738466762	15
1	1084	563.495185399185	16
1	1086	564.149430119466	17
1	1087	565.561596142209	17
1	1089	565.866714232299	17
1	1091	566.13467207191	18
1	1093	566.333403126379	19
1	1094	566.380666505737	19
1	1096	567.013228085414	19
1	1097	567.161258769092	19
1	1098	567.932822874804	18
1	1100	569.125239695233	18
1	1101	569.274685370394	18
1	1102	571.852563850757	17
1	1103	572.188514622047	16
1	1104	572.606494600636	15
1	1106	573.805492908532	15
1	1107	574.383398777582	15
1	1108	574.393468208562	14
1	1109	575.29320845248	13
1	1110	576.709764056172	12
1	1111	576.856305292209	11
1	1112	577.300918592838	10
1	1114	577.576086944239	10
1	1116	577.734744164972	11
1	1117	577.887013566065	11
1	1118	579.522413947628	10
1	1119	579.849367236878	9
1	1120	581.228362032453	8
1	1122	582.088626157518	8
1	1124	582.699425255085	9
1	1125	583.04308599896	9
1	1129	584.843031556195	9
1	1131	584.917751611174	10
1	1133	584.984841426869	11
1	1137	586.346479962689	12
1	1139	586.454244945249	13
1	1141	586.677646756324	14
1	1144	587.945633402156	14
1	1145	588.690379514565	13
1	1147	589.184156018162	13
1	1149	589.344447201462	14
1	1151	590.511405527792	15
1	1152	590.831309503493	15
1	1153	591.539883854793	14
1	1154	592.368916549961	13
1	1155	592.403873803849	12
1	1156	592.50544196598	11
1	1157	592.786713037155	10
1	1159	593.44826333854	10
1	1160	593.460230507268	10
1	1165	599.611386590457	10
1	1167	599.841312154172	11
1	1169	602.087470937815	12
1	1170	603.207737862413	12
1	1171	604.039446095204	11
1	1172	604.072169987948	10
1	1173	606.406079997844	9
1	1174	606.507644809859	8
1	1178	608.821540399359	8
1	1180	611.21985533046	9
1	1182	611.525432870286	10
1	1184	612.627229528566	10
1	1186	613.549056948647	10
1	1188	613.561544162988	11
1	1192	614.667031325203	12
1	1194	614.995208385143	13
1	1196	618.70070595874	14
1	1198	620.126593764237	15
1	1200	620.669567577921	15
1	1202	621.329789933426	15
1	1203	621.394930674347	15
1	1205	621.529212132216	15
1	1206	622.154364602019	15
1	1208	622.371438788018	15
1	1215	630.775696182854	16
1	1217	631.266956798539	17
1	1219	634.016050436319	17
1	1221	634.75048957844	17
1	1223	635.166153245471	18
1	1224	636.000994525584	18
1	1225	636.247887664672	17
1	1227	636.297845874687	17
1	1228	637.710996206243	17
1	1230	638.272084368733	17
1	1231	638.566582082683	17
1	1235	640.512600628173	17
1	1237	641.904987504019	18
1	1239	642.450846168422	19
1	1241	642.456329529144	20
1	1244	644.778982801317	21
1	1245	646.14622193312	21
1	1247	647.957324180923	21
1	1248	647.999820128205	21
1	1249	648.105772103388	20
1	1251	648.400278801947	20
1	1252	648.757598775553	20
1	1254	648.762369735944	20
1	1256	648.769230700953	21
1	1257	649.405208556759	21
1	1258	649.979452230001	20
1	1259	650.572091707894	19
1	1260	650.982353070907	18
1	1262	651.945476217076	18
1	1263	652.013640303101	18
1	1264	653.017885535724	17
1	1265	653.63104247454	16
1	1267	654.162903082597	16
1	1268	654.258885576309	16
1	1270	654.266069333188	16
1	1271	655.206924920696	16
1	1272	655.68796652576	15
1	1273	656.225296531423	14
1	1274	656.808052273749	13
1	1276	657.66835943483	13
1	1278	658.287378236488	14
1	1280	658.366597640806	15
1	1281	659.097679001019	15
1	1283	659.866351504149	15
1	1285	660.278367227816	16
1	1286	660.357168602212	16
1	1287	660.516897723618	15
1	1289	661.309536302681	15
1	1290	661.379098834437	15
1	1291	661.642699048824	14
1	1292	661.985964593063	13
1	1293	662.180308578471	12
1	1294	663.463174397473	11
1	1295	663.977632753948	10
1	1296	664.01846304095	9
1	1298	664.129345622247	9
1	1299	664.270975731552	9
1	1300	665.345949608857	8
1	1302	665.969826183582	8
1	1303	666.316075603476	8
1	1304	667.229935071242	7
1	1306	667.828001330361	7
1	1307	668.274441891252	7
1	1308	668.421456256088	6
1	1309	668.43945585626	5
1	1310	670.651222016185	4
1	1311	671.741008172814	3
1	1315	676.127715895348	3
1	1317	676.409254487664	4
1	1320	678.713311089345	5
1	1322	679.456011905936	6
1	1323	679.710912146164	6
1	1324	680.119378123391	5
1	1325	681.046396800737	4
1	1326	681.499676093905	3
1	1327	682.086896753822	2
1	1329	683.79595880011	2
1	1330	684.729156380773	2
1	1332	684.959419556457	2
1	1333	685.849246595179	2
1	1334	685.903136208687	1
1	1336	687.358459505795	1
1	1337	687.892891873667	1
1	1338	688.315606773136	0
1	1340	689.681724956236	0
1	1341	689.707408566651	0
1	1343	691.201206567343	0
1	1345	691.334042622983	1
1	1347	693.595559629992	2
1	1348	693.930128812242	2
1	1350	694.742206943645	2
1	1351	694.983519680892	2
1	1353	695.255194452156	2
1	1355	695.257745125997	3
1	1356	695.632733514329	3
1	1357	695.984009618807	2
1	1358	696.319573464945	1
1	1359	699.205308626441	0
1	1361	699.869162842279	0
1	1362	699.885276994802	0
1	1364	702.5004229589	0
1	1370	705.376656992901	1
1	1372	706.26016786198	2
1	1374	707.271075142402	3
1	1377	709.647110937145	3
1	1378	709.818206879005	2
1	1380	710.015265513312	2
1	1381	710.051273468956	2
1	1383	710.293121202571	2
1	1384	710.56673619784	2
1	1386	711.072692214893	2
1	1388	711.562015848285	3
1	1389	712.524538410288	3
1	1391	714.819490890778	3
1	1392	715.075712632344	3
1	1393	715.661618473306	2
1	1395	716.598942123907	2
1	1396	718.785990603848	2
1	1397	719.108092182773	1
1	1399	719.790805237	1
1	1401	720.019014686487	2
1	1403	722.374514421091	3
1	1405	724.363693870807	4
1	1406	725.387636454301	4
1	1407	726.84609051327	3
1	1408	726.85851258899	2
1	1409	727.542600714726	1
1	1411	728.310078427008	1
1	1412	730.075920460334	1
1	1413	730.300364658871	0
1	1415	731.505852548299	0
1	1417	732.652740732803	1
1	1419	733.132194794937	2
1	1420	734.398806195737	2
1	1424	736.436620258466	2
1	1426	738.213783267475	3
1	1428	738.479947491602	4
1	1430	741.342033121729	5
1	1432	741.528306870763	6
1	1434	744.652618669184	7
1	1436	744.860580712783	8
1	1438	745.173060714175	9
1	1440	746.840701830877	10
1	1445	750.268984054513	10
1	1447	750.495908589157	10
1	1448	753.04380871751	10
1	1449	753.147291351153	9
1	1450	753.678510461212	8
1	1451	754.287280365876	7
1	1452	754.30535297757	6
1	1453	754.468720346923	5
1	1454	754.787456739114	4
1	1456	755.037093995341	4
1	1457	755.601493014812	4
1	1458	755.875017792437	3
1	1459	756.033103487474	2
1	1460	756.735833956168	1
1	1462	757.386315145887	1
1	1463	758.565465688366	1
1	1465	759.600411023074	1
1	1467	760.823113609054	2
1	1469	760.968117434238	3
1	1471	761.896861538814	4
1	1473	761.97752514622	5
1	1475	762.609713223009	6
1	1477	762.893091423184	7
1	1478	766.745008086378	7
1	1480	767.331877428558	7
1	1482	768.355165064129	8
1	1483	769.372732132697	8
1	1484	769.390142420305	7
1	1486	769.443033534065	7
1	1487	769.989278644686	7
1	1488	770.194554311958	6
1	1489	770.88576456459	5
1	1490	771.454460245171	4
1	1491	771.88284609326	3
1	1492	772.731900354368	2
1	1493	773.139626352418	1
1	1495	773.544216964413	1
1	1496	773.960992062672	1
1	1497	774.038523887037	0
1	1501	776.114611388241	0
1	1505	780.242525434313	1
1	1508	783.020472678296	2
1	1510	786.46804952374	2
1	1511	787.483361457428	1
1	1512	788.004389981684	0
1	1514	789.965027576156	0
1	1515	791.665572446161	0
1	1517	793.248590943563	0
1	1519	793.609724640707	1
1	1520	794.201691985697	1
1	1521	794.906992056656	0
1	1523	795.275837519602	0
1	1524	796.207443952701	0
1	1526	796.620070187781	0
1	1527	796.964520111043	0
1	1529	797.318656984625	0
1	1530	797.36151641931	0
1	1532	799.243365039114	0
1	1534	799.256085584598	1
1	1535	799.263905244136	1
1	1537	800.099939602052	1
1	1538	800.605924513986	1
1	1539	800.635271742185	0
1	1541	802.257114208328	0
1	1542	802.272143910446	0
1	1544	804.867650166992	0
1	1549	806.115216001605	1
1	1550	806.591142957097	1
1	1552	807.350589715995	1
1	1553	807.856478304281	1
1	1555	807.933711494651	1
1	1557	810.896235368253	2
1	1559	811.355557765786	3
1	1564	815.782730171624	4
1	1565	816.841081507976	4
1	1566	816.870231715409	3
1	1568	817.29125197865	3
1	1569	818.155903192796	3
1	1574	819.654469904715	3
1	1576	820.546814374939	4
1	1580	823.488395917312	4
1	1581	824.127274738958	3
1	1582	824.527128204008	2
1	1583	824.584872436377	1
1	1587	827.429971405578	0
1	1589	831.192200191911	0
1	1591	831.694075402408	1
1	1592	834.568879612482	1
1	1593	834.814338015591	0
1	1595	836.192616171064	0
1	1596	836.345033424325	0
1	1600	837.53272653105	0
1	1602	839.192190923431	1
1	1604	841.336328619228	1
1	1605	841.336866994534	0
1	1609	841.705732438638	0
1	1611	842.603072444388	1
1	1613	844.374909473572	2
1	1615	844.387070510805	3
1	1617	845.656029548234	4
1	1621	849.713807219704	5
1	1623	849.733915869776	6
1	1626	851.172281701038	7
1	1636	857.6072465042	8
1	1640	858.680086362524	9
1	1646	864.412447900244	10
1	1650	865.886487833781	11
1	1652	868.114540476982	12
1	1654	869.971033764631	13
1	1657	870.286412586523	14
1	1660	872.85095650134	15
1	1662	873.627024359529	16
1	1664	877.49726088372	17
1	1666	877.818621989348	18
1	1668	879.592356616148	19
1	1670	882.05853862986	20
1	1675	885.140821972391	20
1	1677	886.12401281554	20
1	1678	886.163723702831	20
1	1679	886.213189990877	19
1	1680	886.745542384611	18
1	1681	887.648866187678	17
1	1683	888.367515429006	17
1	1685	889.213981491409	18
1	1686	889.811106421415	18
1	1687	889.811189023127	17
1	1689	890.276715078329	17
1	1690	891.14156608937	17
1	1692	891.6731273016	17
1	1693	892.88108550385	17
1	1694	892.989392588175	16
1	1696	893.699527157982	16
1	1697	894.044087038325	16
1	1699	894.254913722004	16
1	1700	894.27385161852	16
1	1701	894.547139004515	15
1	1702	894.93390217432	14
1	1703	895.0410001562	13
1	1704	895.162940252906	12
1	1705	895.899947513608	11
1	1706	897.243794355299	10
1	1707	897.451323830052	9
1	1708	897.516721029613	8
1	1709	897.751749444392	7
1	1711	899.246431531351	7
1	1712	900.851976474968	7
1	1713	902.044519529113	6
1	1715	902.314537992671	6
1	1716	902.887138229985	6
1	1717	904.398339613602	5
1	1718	904.88008566753	4
1	1720	904.882226106269	4
1	1721	905.403666777464	4
1	1722	907.238112335101	3
1	1723	907.86805410876	2
1	1725	908.018503688569	2
1	1726	908.281147560967	2
1	1727	909.291838134909	1
1	1729	910.751731222326	1
1	1730	912.022434647729	1
1	1731	912.348188167485	0
1	1733	912.922915631702	0
1	1734	913.100218541684	0
1	1736	914.414954649012	0
1	1738	914.857174430116	1
1	1739	915.283690549678	1
1	1740	916.251950357734	0
1	1742	921.740759788514	0
1	1743	921.89019566878	0
1	1745	925.53524404794	0
1	1746	926.211423741613	0
1	1748	927.197630198931	0
1	1750	927.286945397025	1
1	1751	929.623160313272	1
1	1753	929.816621286932	1
1	1755	930.723404521045	2
1	1756	931.692945358263	2
1	1757	931.973228653649	1
1	1758	932.51032852264	0
1	1762	933.733101919464	0
1	1764	934.048915380693	1
1	1766	935.720154885452	2
1	1768	936.503810093769	3
1	1770	938.37058711755	4
1	1772	939.504529410827	5
1	1774	948.152090297722	5
1	1778	951.344194212624	5
1	1780	951.478821077192	6
1	1782	952.433938355576	6
1	1783	953.040188977749	5
1	1784	953.230649360669	4
1	1786	953.795043498742	4
1	1788	953.795106621057	5
1	1789	954.243798730626	5
1	1793	958.294200249358	5
1	1795	958.313395849787	6
1	1797	958.360077621263	7
1	1800	959.754656517884	8
1	1801	959.907454322047	8
1	1803	961.758347490061	8
1	1805	962.309098962579	9
1	1806	962.771763456349	9
1	1807	963.999811806797	8
1	1809	964.397289862334	8
1	1810	965.538639439743	8
1	1811	966.774903025439	7
1	1812	967.239389743443	6
1	1814	968.366971182459	6
1	1815	969.231838830924	6
1	1817	970.564877058194	6
1	1819	970.632756979052	7
1	1820	973.147609973702	7
1	1822	974.458830305326	7
1	1823	975.985011420141	7
1	1824	976.969008297922	6
1	1825	977.163714009446	5
1	1827	978.41368010979	5
1	1829	979.29934909276	6
1	1830	981.443688392413	6
1	1831	981.596385167759	5
1	1832	981.611390564457	4
1	1834	981.901388214397	4
1	1835	982.196090632147	4
1	1836	983.09944140625	3
1	1837	983.350414713072	2
1	1839	983.901979001382	2
1	1840	984.679803410189	2
1	1841	985.183426366464	1
1	1843	985.607435473365	1
1	1848	986.308543060385	2
1	1852	988.195395259901	3
1	1854	988.387015751094	4
1	1860	993.295627877006	5
1	1866	1005.392607766005	6
1	1868	1006.083866970292	7
1	1870	1007.408118263579	8
1	1873	1007.941059197817	9
1	1875	1008.534360446057	10
1	1877	1009.83771563796	11
1	1879	1011.278140866159	12
1	1881	1012.544827981839	13
1	1883	1014.982862702589	14
1	1887	1021.588022494755	15
1	1889	1022.210157054341	16
1	1892	1029.45226220217	17
1	1894	1029.976229210698	18
1	1896	1030.286313379685	19
1	1898	1032.422689407781	20
1	1900	1035.381515126106	21
1	1905	1042.063934865113	22
1	1907	1043.830062666519	23
1	1909	1044.277847663682	24
1	1911	1044.479398206493	25
1	1913	1046.269014163533	25
1	1915	1046.448263612232	25
1	1917	1046.719138297363	26
1	1919	1047.776220430928	27
1	1921	1048.820319577909	28
1	1922	1049.702723211822	28
1	1924	1049.964731304214	28
1	1925	1050.132954493461	28
1	1927	1050.416313622349	28
1	1928	1050.948470654149	28
1	1930	1051.465236016561	28
1	1932	1052.333056991644	29
1	1934	1053.722080869244	30
1	1935	1054.144759064736	30
1	1937	1054.892090631162	30
1	1939	1055.05512302017	31
1	1940	1056.653892953503	31
1	1941	1058.361547561125	30
1	1942	1060.717502514118	29
1	1943	1060.784232643892	28
1	1945	1060.92669582949	28
1	1946	1061.089956006975	28
1	1947	1062.781352814986	27
1	1948	1062.894604223883	26
1	1954	1063.280680232981	26
1	1956	1063.339224271376	27
1	1960	1065.715659364186	28
1	1962	1066.591252484266	29
1	1964	1068.779480156716	30
1	1966	1071.246937821171	31
1	1968	1071.312366621951	32
1	1973	1074.120412684878	33
1	1977	1079.730202941957	33
1	1979	1079.730372284053	33
1	1980	1082.234820153028	33
1	1982	1082.777055022064	33
1	1984	1082.906836601573	34
1	1986	1083.447124399787	35
1	1988	1083.761913362559	36
1	1990	1084.726790072838	37
1	1991	1086.178578017533	37
1	1993	1086.433413861457	37
1	1994	1087.203821243864	37
1	1995	1087.904707028422	36
1	1996	1088.426976212401	35
1	1997	1088.536809959753	34
1	1998	1090.089043910441	33
1	2000	1090.932167432739	33
1	2004	1093.205301581867	34
1	2008	1094.464814140294	35
1	2010	1095.121839335054	36
1	2012	1095.961779352881	37
1	2014	1099.428155523988	38
1	2017	1103.186789804098	38
1	2019	1104.293242091955	38
1	2021	1105.133534765272	39
1	2022	1105.52129814121	39
1	2024	1106.230073290584	39
1	2026	1106.280054300417	40
1	2028	1106.52389617978	41
1	2029	1106.695339204187	41
1	2030	1107.172919101061	40
1	2031	1109.154644791409	39
1	2032	1109.204910835954	38
1	2033	1109.496427998688	37
1	2035	1109.694558164443	37
1	2036	1111.038724554998	37
1	2037	1113.465992444776	36
1	2038	1114.600919300156	35
1	2039	1115.887469214718	34
1	2040	1115.889905444079	33
1	2041	1116.131213270022	32
1	2042	1117.117452914712	31
1	2043	1117.811372869516	30
1	2045	1118.265205966123	30
1	2046	1120.573603504281	30
1	2048	1121.190561396734	30
1	2050	1122.611009425048	31
1	2052	1122.612007452981	32
1	2053	1123.7297015463	32
1	2055	1123.873375815897	32
1	2056	1124.86034739032	32
1	2057	1125.486605648279	31
1	2058	1127.107746277917	30
1	2059	1127.561860042186	29
1	2060	1128.223367470602	28
1	2061	1128.974898908051	27
1	2062	1129.123022211209	26
1	2063	1129.692837325557	25
1	2064	1130.164173996288	24
1	2065	1130.195188800821	23
1	2066	1132.625021132659	22
1	2067	1133.201060010758	21
1	2068	1133.50012749949	20
1	2069	1133.633903643036	19
1	2070	1135.580566305566	18
1	2071	1137.106369725446	17
1	2075	1138.905105542308	17
1	2078	1140.19170664116	18
1	2079	1140.992675690253	18
1	2081	1141.148997214372	18
1	2082	1141.891291871416	18
1	2084	1143.30669596632	18
1	2086	1143.860394899588	19
1	2087	1143.923757095186	19
1	2089	1144.633687856573	19
1	2093	1145.180542500584	20
1	2095	1145.463493577808	21
1	2097	1147.66482844159	22
1	2099	1150.857918894193	22
1	2101	1151.056694854622	22
1	2103	1151.060523861753	23
1	2104	1151.697594439669	23
1	2105	1151.712082249558	22
1	2106	1152.817069423504	21
1	2107	1155.210404645715	20
1	2109	1156.002511107293	20
1	2110	1156.042164867936	20
1	2111	1156.16066279163	19
1	2113	1157.994086904463	19
1	2114	1158.290030767828	19
1	2116	1158.525145104607	19
1	2117	1159.428471746718	19
1	2118	1160.650678402866	18
1	2119	1162.645467206419	17
1	2120	1162.780932610874	16
1	2121	1163.550371349345	15
1	2123	1163.737007708125	15
1	2124	1163.794087482431	15
1	2125	1164.537870174073	14
1	2126	1164.698458251445	13
1	2128	1165.132049126638	13
1	2129	1165.702506880275	13
1	2131	1166.920689713334	13
1	2132	1166.986061243045	13
1	2134	1167.846944260697	13
1	2135	1169.559639760233	13
1	2137	1169.566053226081	13
1	2139	1170.321810631041	14
1	2140	1171.77221094037	14
1	2142	1171.848498946605	14
1	2143	1171.853705533074	14
1	2145	1172.360300507087	14
1	2147	1174.12140745744	15
1	2148	1174.308329542716	15
1	2149	1176.718063503881	14
1	2151	1176.923187774431	14
1	2152	1177.711360331567	14
1	2154	1179.941540258901	14
1	2155	1179.947188090235	14
1	2156	1181.4195305348	13
1	2158	1181.516320710142	13
1	2159	1181.705361915271	13
1	2160	1181.769058038769	12
1	2161	1183.344428271783	11
1	2162	1186.55162236445	10
1	2163	1186.871835481027	9
1	2165	1187.369282966421	9
1	2166	1189.336377915292	9
1	2168	1191.147324504525	9
1	2169	1191.179675305309	9
1	2170	1192.407897952319	8
1	2175	1198.265143726555	8
1	2177	1198.528825035714	9
1	2181	1198.923470627897	10
1	2184	1199.524507511301	11
1	2185	1200.034285789502	11
1	2187	1200.148436558504	11
1	2188	1200.537301143064	11
1	2189	1200.688853942858	10
1	2190	1201.827222889735	9
1	2192	1202.298805118403	9
1	2193	1203.121740093374	9
1	2194	1204.716156293109	8
1	2195	1205.642655806637	7
1	2197	1206.852211573487	7
1	2199	1207.047743767383	8
1	2201	1207.136616497247	9
1	2203	1207.480324834604	10
1	2204	1207.751355081824	10
1	2205	1207.897430882234	9
1	2207	1208.134534672356	9
1	2208	1209.131392669893	9
1	2210	1209.944279435274	9
1	2211	1210.939878621034	9
1	2213	1213.036110916448	9
1	2214	1213.211378738449	9
1	2218	1214.860208367445	9
1	2221	1218.598090620513	10
1	2222	1220.547876261335	10
1	2224	1220.604597004604	10
1	2225	1222.446339207324	10
1	2227	1222.573590204504	10
1	2229	1222.773083873456	11
1	2233	1225.514671812699	11
1	2234	1226.072586517696	10
1	2235	1226.351757165627	9
1	2237	1226.476604387387	9
1	2239	1226.832245701339	10
1	2240	1227.377254450415	10
1	2242	1227.796825574361	10
1	2243	1228.367097426855	10
1	2244	1229.118254071264	9
1	2245	1229.526617957603	8
1	2249	1230.047397869328	7
1	2250	1232.351386995685	6
1	2252	1232.414103948982	6
1	2253	1233.439988325537	6
1	2254	1233.82670321643	5
1	2255	1234.018489054541	4
1	2257	1234.714489419769	4
1	2258	1234.844682305064	4
1	2259	1235.067447527168	3
1	2260	1236.126253167737	2
1	2262	1237.04567318678	2
1	2263	1237.712360457509	2
1	2264	1238.584870191861	1
1	2269	1239.65641206632	1
1	2271	1240.009000818878	2
1	2273	1240.016724168601	3
1	2277	1240.8705812749	4
1	2279	1242.651654170831	5
1	2281	1243.190569313174	6
1	2285	1245.098147804304	7
1	2287	1247.119426804676	8
1	2291	1248.823685841962	9
1	2292	1249.985636468965	9
1	2293	1251.150445416723	8
1	2294	1251.592858093138	7
1	2295	1252.520027659966	6
1	2296	1253.442456843501	5
1	2297	1254.097668798191	4
1	2298	1255.04355144267	3
1	2299	1255.500960696692	2
1	2300	1256.506605180974	1
1	2305	1257.759442244033	1
1	2307	1258.079292962092	2
1	2308	1258.819313747639	2
1	2309	1259.009360918127	1
1	2311	1259.199032974558	1
1	2312	1259.293067694261	1
1	2314	1263.115747711108	1
1	2315	1264.978116381146	1
1	2316	1266.027396538047	0
1	2318	1266.232438740559	0
1	2319	1266.294298728342	0
1	2321	1269.223621886804	0
1	2323	1269.733212126654	1
1	2324	1270.046950559193	1
1	2325	1270.276212621793	0
1	2327	1270.342660214352	0
1	2328	1270.416736786419	0
1	2332	1271.101575625716	0
1	2334	1271.3968516627	1
1	2337	1271.95024883476	2
1	2339	1272.184307669078	3
1	2343	1274.531575905601	4
1	2345	1276.014262740648	5
1	2347	1279.67173012187	5
1	2351	1282.057016356461	5
1	2353	1284.838025151903	6
1	2357	1286.743592642819	7
1	2361	1287.801653029032	8
1	2368	1290.587418898581	9
1	2371	1291.259045681686	10
1	2373	1292.266429094274	11
1	2374	1292.938145906945	11
1	2376	1294.665352833648	11
1	2378	1295.878816382155	12
1	2380	1296.102913496201	13
1	2381	1296.759140780437	13
1	2383	1296.993956074316	13
1	2384	1297.331691176991	13
1	2385	1297.673642017655	12
1	2387	1298.512496850939	12
1	2388	1299.306881842774	12
1	2389	1299.632110857195	11
1	2390	1299.776617144893	10
1	2391	1300.16837070991	9
1	2392	1300.637225257298	8
1	2393	1301.147563462438	7
1	2394	1301.160845698273	6
1	2395	1301.417989198198	5
1	2397	1304.306540212233	5
1	2398	1304.980923118756	5
1	2399	1305.075398796748	4
1	2400	1305.792750708348	3
1	2402	1306.721686609953	3
1	2403	1308.307765045727	3
1	2405	1308.658720052763	3
1	2409	1311.442937536671	4
1	2412	1312.183563683246	5
1	2413	1312.287420071308	5
1	2415	1312.312209722599	5
1	2416	1312.75699799683	5
1	2417	1313.189864816656	4
1	2419	1315.794203582268	4
1	2420	1315.920453274792	4
1	2421	1316.364906673705	3
1	2422	1317.751854832992	2
1	2424	1318.452481658129	2
1	2426	1319.249389359225	3
1	2430	1321.831629282459	4
1	2432	1322.350304239522	5
1	2434	1322.862746190764	5
1	2438	1325.153682714271	4
1	2440	1325.183998447437	4
1	2441	1325.439140817072	4
1	2443	1325.615799765433	4
1	2445	1325.772579759987	5
1	2447	1325.936215194715	6
1	2451	1328.12522192425	7
1	2453	1331.196433913134	7
1	2454	1332.333208312743	6
1	2455	1332.413523567099	5
1	2456	1334.539683794188	4
1	2458	1335.147227750201	4
1	2459	1335.355523859711	4
1	2461	1335.498106588533	4
1	2462	1335.785603069468	4
1	2463	1337.591952950634	3
1	2464	1337.926984592501	2
1	2465	1338.810033037496	1
1	2469	1339.231434137026	1
1	2471	1340.07417931602	2
1	2473	1348.844689096568	3
1	2475	1349.326726683345	4
1	2477	1350.00532441401	5
1	2479	1350.359215692478	6
1	2486	1356.421009846446	7
1	2488	1356.765704189253	8
1	2490	1358.650548906783	9
1	2492	1360.076838431445	10
1	2498	1364.028143790735	11
1	2500	1365.274422700248	11
1	2501	1366.102505017879	10
1	2502	1366.348777676846	9
1	2503	1367.067968661166	8
1	2505	1367.110687855091	8
1	2507	1367.689528737268	9
1	2512	1370.980049872559	10
1	2513	1371.946365929717	10
1	2514	1372.781118734212	9
1	2516	1373.877918133235	9
1	2518	1374.145763133862	10
1	2520	1374.783357241419	11
1	2522	1376.676568004798	12
1	2523	1376.6792971674	12
1	2524	1377.019236037891	11
1	2525	1377.639126319808	10
1	2526	1377.905276265537	9
1	2527	1377.954595098422	8
1	2528	1378.388812750491	7
1	2530	1378.951066042738	7
1	2532	1379.825815882138	8
1	2533	1380.587050321084	8
1	2534	1380.929026051415	7
1	2535	1381.640099743701	6
1	2536	1381.795735128577	5
1	2537	1384.078691182741	4
1	2539	1385.098690681809	4
1	2540	1385.425150999922	4
1	2541	1385.775011602362	3
1	2543	1389.974712167996	3
1	2545	1390.655836691809	4
1	2546	1390.821930049027	4
1	2547	1393.864944854918	3
1	2549	1393.9469914737	3
1	2550	1394.652808086006	3
1	2551	1396.175664271567	2
1	2553	1397.49070182271	2
1	2555	1398.038539454521	3
1	2556	1398.822243364619	3
1	2557	1398.848414009771	2
1	2558	1399.28902719819	1
1	2559	1399.532155677586	0
1	2561	1400.330760827655	0
1	2565	1403.33480004684	0
1	2567	1403.627522746258	0
1	2568	1404.093693820965	0
1	2570	1405.134770873848	0
1	2571	1405.525158833512	0
1	2573	1410.195559231476	0
1	2574	1410.535661733434	0
1	2576	1411.261733738189	0
1	2578	1413.194215792677	1
1	2579	1413.983106188453	1
1	2581	1414.042284710871	1
1	2583	1414.50743641802	2
1	2584	1416.306339493027	2
1	2585	1416.377196994538	1
1	2586	1417.624391656772	0
1	2588	1422.561276419034	0
1	2592	1423.843887862985	1
1	2594	1424.911848617133	2
1	2596	1426.268803645505	3
1	2598	1428.166119136759	4
1	2600	1428.346733056739	5
1	2602	1430.30829924585	5
1	2603	1433.336705225927	4
1	2604	1433.33944871358	3
1	2606	1434.093253581403	3
1	2608	1434.655078572017	4
1	2609	1434.666501535429	4
1	2611	1434.745384977812	4
1	2613	1435.336768370217	5
1	2614	1435.869154311756	5
1	2615	1435.950118311857	4
1	2616	1436.686111054999	3
1	2617	1437.018613244514	2
1	2618	1437.768610708409	1
1	2619	1438.05711911683	0
1	2621	1438.31672660679	0
1	2622	1438.575617024047	0
1	2624	1442.215789110769	0
1	2626	1442.549567213296	1
1	2628	1443.090704329319	2
1	2629	1444.335122877301	2
1	2630	1445.156560780643	1
1	2631	1445.538464870671	0
1	2633	1445.661353088678	0
1	2634	1446.296925933952	0
1	2636	1446.460543526712	0
1	2637	1446.544739502389	0
1	2639	1448.87869167871	0
1	2643	1449.630681302633	1
1	2647	1452.399169206024	2
1	2650	1454.085905274351	3
1	2652	1456.8424111098	4
1	2657	1458.250541842775	5
1	2659	1463.318906980781	6
1	2662	1463.516685910485	7
1	2663	1464.02718198259	7
1	2664	1464.868391468185	6
1	2665	1465.707926960819	5
1	2666	1465.906121827914	4
1	2667	1465.972858696612	3
1	2668	1466.181726647404	2
1	2670	1467.361756609193	2
1	2672	1469.913651074403	3
1	2674	1470.427036069126	4
1	2675	1470.998637927119	4
1	2676	1472.254723805828	3
1	2677	1472.256588291428	2
1	2678	1473.599610347532	1
1	2680	1474.25812296329	1
1	2682	1474.336626328611	2
1	2684	1474.734110342235	3
1	2690	1477.600640148566	4
1	2693	1480.783589319318	4
1	2694	1482.206020636816	3
1	2695	1482.750359016388	2
1	2696	1482.824769607838	1
1	2697	1484.680983317807	0
1	2703	1487.308439174176	0
1	2707	1488.398131536842	1
1	2709	1490.00625075431	2
1	2711	1492.035298505945	3
1	2716	1495.113903821797	4
1	2717	1496.170723968133	4
1	2718	1497.716028045825	3
1	2719	1497.814500950032	2
1	2720	1498.516470970523	1
1	2722	1498.824009542603	1
1	2724	1498.954780265454	2
1	2725	1499.250455471837	2
1	2727	1500.304646283971	2
1	2728	1500.345724887429	2
1	2730	1501.509959617325	2
1	2731	1501.535884426148	2
1	2732	1503.544578432496	1
1	2733	1504.206446824897	0
1	2735	1505.271903639449	0
1	2736	1505.410078441719	0
1	2738	1506.793696057143	0
1	2742	1510.154029735615	0
1	2744	1510.71896355877	0
1	2745	1511.47286147358	0
1	2749	1512.121238238363	0
1	2752	1514.69173609164	1
1	2753	1515.095662380516	1
1	2754	1515.215945962443	0
1	2756	1516.287114612924	0
1	2757	1516.485618983653	0
1	2761	1517.765821033981	0
1	2764	1518.94046959288	1
1	2765	1519.356982508561	1
1	2766	1520.051983213184	0
1	2770	1524.748472082524	0
1	2772	1524.870058698302	1
1	2775	1526.61635097624	2
1	2777	1526.995359266966	3
1	2778	1528.014203845465	3
1	2779	1528.193130239541	2
1	2783	1529.239164070167	2
1	2787	1533.851955548221	3
1	2789	1537.798276419364	4
1	2792	1542.060770841939	4
1	2793	1542.863726851107	3
1	2794	1543.552878758933	2
1	2796	1544.030288980234	2
1	2797	1545.169899941588	2
1	2799	1546.75059531337	2
1	2800	1548.918784684488	2
1	2808	1557.77239805656	2
1	2810	1558.009601751643	3
1	2811	1558.282265484881	3
1	2813	1558.75890432731	3
1	2815	1560.787080507845	4
1	2816	1560.973511237588	4
1	2818	1561.646011018812	4
1	2820	1562.003816838049	5
1	2822	1562.967468562948	6
1	2823	1563.254322180483	6
1	2825	1563.461984333808	6
1	2829	1568.892584300071	6
1	2831	1569.096730983369	6
1	2832	1569.658859180673	6
1	2833	1570.246045941729	5
1	2834	1570.356129043358	4
1	2835	1570.827183436697	3
1	2836	1571.017090806812	2
1	2837	1571.653825275694	1
1	2838	1572.882754663043	0
1	2842	1574.825951980916	0
1	2844	1576.301529237106	1
1	2846	1576.688359467563	2
1	2848	1579.281897810993	2
1	2849	1579.403205895666	1
1	2850	1579.565779116882	0
1	2852	1582.112624294685	0
1	2853	1582.30815937973	0
1	2857	1585.010648022812	0
1	2860	1586.595151925693	1
1	2862	1586.785282518914	2
1	2864	1586.993878282773	3
1	2866	1587.40883817582	4
1	2867	1589.121783750972	4
1	2868	1589.365004561867	3
1	2869	1589.671442835731	2
1	2871	1590.654433120611	2
1	2872	1590.777239875612	2
1	2873	1590.782583269871	1
1	2874	1591.121687629089	0
1	2876	1593.880059872971	0
1	2877	1593.960608542198	0
1	2881	1596.246097554769	0
1	2885	1596.361784738678	1
1	2887	1597.607697030877	2
1	2889	1597.711385704417	3
1	2893	1601.35491142457	4
1	2895	1603.691350702306	5
1	2899	1605.898814783735	6
1	2904	1609.890747735252	7
1	2906	1612.497846852938	8
1	2913	1618.444962797458	9
1	2915	1619.475098885892	10
1	2917	1620.362155199614	11
1	2920	1621.075581257292	12
1	2922	1625.853143218163	13
1	2924	1626.136757341303	14
1	2928	1626.442859584478	15
1	2930	1628.453206018329	16
1	2932	1629.391477153456	17
1	2934	1630.504492161629	18
1	2936	1635.597193415129	19
1	2938	1636.126034716286	20
1	2940	1638.604522025656	21
1	2943	1639.189294601352	22
1	2945	1642.005271404198	22
1	2946	1642.03589484233	21
1	2947	1642.790964958935	20
1	2949	1643.39120957058	20
1	2950	1644.097163698898	20
1	2951	1644.766314811222	19
1	2953	1645.540955376317	19
1	2955	1645.704179193099	20
1	2956	1645.723821120472	20
1	2958	1645.96735933881	20
1	2959	1646.306476890206	20
1	2960	1646.558003789706	19
1	2961	1646.933485471648	18
1	2962	1647.52244376077	17
1	2964	1647.836316198283	17
1	2965	1648.687287564073	17
1	2969	1649.121577328482	17
1	2971	1651.181400691168	18
1	2973	1652.255147869864	19
1	2975	1653.45769557223	20
1	2977	1653.680542601607	21
1	2979	1654.663734513563	22
1	2981	1654.792394908135	23
1	2983	1657.081714379431	24
1	2985	1658.038611525431	25
1	2987	1658.670762008099	26
1	2989	1659.755490182328	27
1	2991	1660.318164198705	28
1	2993	1660.531837791911	29
1	2995	1661.250211506025	29
1	2996	1662.726306591264	28
1	2997	1663.079655932933	27
1	2999	1663.64831006874	27
1	3003	1667.734975675295	27
1	3004	1668.14189615826	26
1	3005	1668.239601450702	25
1	3006	1669.678602235098	24
1	3007	1670.169708588851	23
1	3008	1670.218503220713	22
1	3009	1670.450678006518	21
1	3010	1671.40996370226	20
1	3011	1671.436890382272	19
1	3013	1671.594158948474	19
1	3014	1672.209311313069	19
1	3015	1672.645068541658	18
1	3016	1672.893054025647	17
1	3020	1674.217549166239	17
1	3022	1675.683558055406	18
1	3024	1675.695385717043	19
1	3026	1678.416834490229	19
1	3027	1679.695132340868	18
1	3028	1680.237766406292	17
1	3029	1681.684038430178	16
1	3030	1682.038264988887	15
1	3031	1684.042633215456	14
1	3032	1684.074663578171	13
1	3033	1687.095860526595	12
1	3034	1687.365683490642	11
1	3038	1688.213282526948	11
1	3040	1689.240332927645	11
1	3041	1689.260033924342	10
1	3043	1690.338903660665	10
1	3044	1690.699605472271	10
1	3045	1691.200693274301	9
1	3046	1692.379913462534	8
1	3047	1693.141905260913	7
1	3048	1694.693997870959	6
1	3050	1694.95294139715	6
1	3051	1696.493081781111	6
1	3053	1697.064402765679	6
1	3054	1697.239894886259	6
1	3055	1698.497058372812	5
1	3057	1698.558705147382	5
1	3058	1699.326171280639	5
1	3060	1699.350524959548	5
1	3062	1699.462301134306	6
1	3063	1699.554607827371	6
1	3065	1700.678262103526	6
1	3066	1701.354469170088	6
1	3067	1701.526253785232	5
1	3068	1702.202354707863	4
1	3070	1702.574161278632	4
1	3072	1703.3470388194	5
1	3073	1705.731337888114	5
1	3074	1706.024649581673	4
1	3075	1706.503223224633	3
1	3077	1707.0679436316	3
1	3079	1709.445527547621	4
1	3080	1709.730887657043	4
1	3081	1710.970743755912	3
1	3082	1711.20214552567	2
1	3084	1711.455805831009	2
1	3085	1712.960414036614	2
1	3086	1713.075436960319	1
1	3087	1713.189907747049	0
1	3089	1714.278118390485	0
1	3090	1714.357635080932	0
1	3092	1717.195453711307	0
1	3096	1721.728009342903	1
1	3098	1721.972514548114	2
1	3100	1722.412830342998	3
1	3102	1723.63789140726	4
1	3104	1728.845911850258	5
1	3107	1731.571097847096	6
1	3108	1732.620518082907	6
1	3110	1734.217093431075	6
1	3111	1734.506613723397	6
1	3115	1735.631118746684	6
1	3117	1737.358518043194	6
1	3118	1737.992775589357	5
1	3120	1738.101321400929	5
1	3121	1739.723070480281	5
1	3122	1740.839456929428	4
1	3124	1741.178273290938	4
1	3126	1743.079609925329	5
1	3127	1743.651869141366	5
1	3129	1746.751399168916	5
1	3130	1748.551417230269	5
1	3132	1749.474727033843	5
1	3134	1749.765074372275	6
1	3135	1750.291176205377	6
1	3137	1750.51551502084	6
1	3138	1750.861589854583	6
1	3140	1752.188926517999	6
1	3141	1754.042730608212	6
1	3143	1754.657511982173	6
1	3145	1755.33298358377	7
1	3147	1756.143058131834	8
1	3149	1756.323508690063	9
1	3150	1756.585069467645	9
1	3152	1757.578542289519	9
1	3153	1757.713783061088	9
1	3154	1757.787268578118	8
1	3155	1759.134546926626	7
1	3156	1759.55018108964	6
1	3161	1761.748069521253	6
1	3162	1762.060265612864	6
1	3163	1762.661899462644	5
1	3165	1764.118401254255	5
1	3166	1764.432400714761	5
1	3167	1765.097302080325	4
1	3168	1765.638756255508	3
1	3170	1766.424401934441	3
1	3171	1766.683945119327	3
1	3173	1767.152253807434	3
1	3175	1767.320662723246	4
1	3176	1767.656624639536	4
1	3178	1767.792822825749	4
1	3180	1768.478321751908	5
1	3182	1768.597127898382	6
1	3184	1769.454632414245	7
1	3186	1769.916944195019	8
1	3187	1771.282867577067	8
1	3191	1772.904732454488	8
1	3195	1774.872966102009	9
1	3198	1781.864320194668	10
1	3200	1782.494922123005	11
1	3202	1782.877450627516	12
1	3204	1783.744745389335	13
1	3207	1787.454384805737	14
1	3208	1787.797258180208	14
1	3209	1787.898962068974	13
1	3210	1789.243237994688	12
1	3215	1791.734793583509	12
1	3216	1791.779739231981	12
1	3217	1791.801648184375	11
1	3218	1793.925381287306	10
1	3220	1796.770245000997	10
1	3221	1796.80276163902	10
1	3223	1797.12181800573	10
1	3224	1797.804615323013	10
1	3226	1798.11574903404	10
1	3228	1798.337928784885	11
1	3232	1801.171168967712	12
1	3235	1803.232722564245	13
1	3236	1803.428084823836	13
1	3237	1803.85559157705	12
1	3238	1803.883544058854	11
1	3239	1803.935330183077	10
1	3240	1804.171461933716	9
1	3242	1804.52666940282	9
1	3243	1806.471839896705	9
1	3245	1807.159113225081	9
1	3247	1807.914646442671	10
1	3248	1808.076672679347	10
1	3249	1808.324583112204	9
1	3250	1808.405579350673	8
1	3251	1808.570440452714	7
1	3253	1808.664552235459	7
1	3255	1808.693425247809	8
1	3257	1809.003755089966	9
1	3258	1809.037250081759	9
1	3259	1810.745581332771	8
1	3261	1810.761024108871	8
1	3262	1811.117930114903	8
1	3263	1812.412733736095	7
1	3264	1813.291245930379	6
1	3266	1813.863727562652	6
1	3267	1815.565272567273	6
1	3269	1816.621152781435	6
1	3270	1817.371932802907	6
1	3271	1818.539113190069	5
1	3272	1818.712545219632	4
1	3274	1818.835250522489	4
1	3275	1820.792817738181	4
1	3277	1822.309230939199	4
1	3278	1823.437118045729	4
1	3280	1823.581374566274	4
1	3282	1823.58990804898	5
1	3283	1824.447412414506	5
1	3288	1826.737866060066	5
1	3290	1827.283446615239	6
1	3291	1827.409103839426	6
1	3292	1827.82118865277	5
1	3296	1831.221890264559	5
1	3298	1832.178891739677	6
1	3300	1832.431553237841	7
1	3302	1834.635804394535	7
1	3304	1834.868394126761	7
1	3305	1835.776532745387	7
1	3306	1835.849895173032	6
1	3307	1837.061575149085	5
1	3308	1837.211643823362	4
1	3309	1838.073733714451	3
1	3310	1838.287599826032	2
1	3311	1838.50573511267	1
1	3312	1838.690881733609	0
1	3314	1839.015974120532	0
1	3316	1839.133816686354	1
1	3317	1840.23104872139	1
1	3318	1841.419763135383	0
1	3320	1842.505888120245	0
1	3321	1842.537334008404	0
1	3323	1843.362697484345	0
1	3324	1843.520253795294	0
1	3326	1844.803111382237	0
1	3327	1845.237843594626	0
1	3329	1846.844806056654	0
1	3330	1846.940673714108	0
1	3332	1847.550321701475	0
1	3333	1848.359969758645	0
1	3335	1848.633006662692	0
1	3336	1849.158515986754	0
1	3338	1850.160365166911	0
1	3344	1852.566856916326	1
1	3346	1855.235221660172	2
1	3348	1855.271667868035	3
1	3350	1855.400188093189	4
1	3352	1857.056658117483	5
1	3354	1857.562429856379	6
1	3356	1860.901485205216	7
1	3358	1863.898801036078	8
1	3362	1867.377454347253	9
1	3363	1867.571848121933	9
1	3365	1868.747288189258	9
1	3366	1869.334392062552	9
1	3367	1869.673724887624	8
1	3368	1870.187711566887	7
1	3370	1871.589280349581	7
1	3371	1871.689840255296	7
1	3373	1872.998500691343	7
1	3374	1873.292972344866	7
1	3376	1873.853558213551	7
1	3378	1874.084539592368	8
1	3379	1876.103418801782	8
1	3380	1876.505093505191	7
1	3381	1876.701499409822	6
1	3385	1877.754145008259	6
1	3387	1877.792429970825	7
1	3389	1878.522733098707	8
1	3391	1882.817168987812	8
1	3395	1884.662025008742	8
1	3409	1897.327092128689	9
1	3411	1897.74525799507	10
[...]
8	3010	1671.40996370226	28.01875413168
8	3011	1671.436890382272	25.895935005955
8	3014	1672.209311313069	26.50513211997
8	3015	1672.645068541658	26.677709202848
8	3016	1672.893054025647	25.056737827364
8	3026	1678.416834490229	29.295257161747
8	3027	1679.695132340868	28.5137316497
8	3028	1680.237766406292	27.982618536428
8	3029	1681.684038430178	28.226342857948
8	3030	1682.038264988887	28.35772238728
8	3031	1684.042633215456	29.378898701893
8	3032	1684.074663578171	29.282268670036
8	3033	1687.095860526595	30.014146147164
8	3034	1687.365683490642	29.327071965211
8	3040	1689.240332927645	29.484842745317
8	3041	1689.260033924342	28.941869725637
8	3044	1690.699605472271	30.16776768036
8	3045	1691.200693274301	27.552383205561
8	3046	1692.379913462534	27.613748457814
8	3047	1693.141905260913	21.547746312439
8	3048	1694.693997870959	20.983904746121
8	3051	1696.493081781111	22.275532614872
8	3054	1697.239894886259	21.556336830853
8	3055	1698.497058372812	22.801672655769
8	3058	1699.326171280639	11.607952700984
8	3063	1699.554607827371	11.341325300423
8	3066	1701.354469170088	11.015565509423
8	3067	1701.526253785232	6.573312388082
8	3068	1702.202354707863	5.137951942184
8	3073	1705.731337888114	7.172632740732
8	3074	1706.024649581673	6.674124622125
8	3075	1706.503223224633	7.040922090327
8	3080	1709.730887657043	9.052625553517
8	3081	1710.970743755912	8.39658247728
8	3082	1711.20214552567	7.85510670627
8	3085	1712.960414036614	5.892470405014
8	3086	1713.075436960319	3.629909412698
8	3087	1713.189907747049	1.73410191604
8	3090	1714.357635080932	0.079516690447
8	3108	1732.620518082907	14.760433595899
8	3111	1734.506613723397	12.778604380494
8	3117	1737.358518043194	14.945687700196
8	3118	1737.992775589357	14.354884182097
8	3121	1739.723070480281	10.877158630023
8	3122	1740.839456929428	9.268359082332
8	3127	1743.651869141366	9.434775710291
8	3130	1748.551417230269	13.21358393081
8	3135	1750.291176205377	14.660057458693
8	3138	1750.861589854583	12.760268453654
8	3141	1754.042730608212	12.864457317274
8	3150	1756.585069467645	13.505459542316
8	3153	1757.713783061088	10.962383892172
8	3154	1757.787268578118	8.312541544275
8	3155	1759.134546926626	9.369472554351
8	3156	1759.55018108964	9.0346660688
8	3162	1762.060265612864	7.402753630691
8	3163	1762.661899462644	7.328915878874
8	3166	1764.432400714761	8.289342582927
8	3167	1765.097302080325	8.773793390262
8	3168	1765.638756255508	8.060213965989
8	3171	1766.683945119327	6.590381722114
8	3176	1767.656624639536	5.908555118283
8	3187	1771.282867577067	7.164466322812
8	3208	1787.797258180208	20.645004372774
8	3209	1787.898962068974	20.578299345728
8	3210	1789.243237994688	21.450415168939
8	3216	1791.779739231981	23.182611333599
8	3217	1791.801648184375	22.34701577013
8	3218	1793.925381287306	24.008437092287
8	3221	1796.80276163902	24.863275224144
8	3224	1797.804615323013	24.899882868525
8	3236	1803.428084823836	21.563764629168
8	3237	1803.85559157705	21.360669454045
8	3238	1803.883544058854	21.006093431338
8	3239	1803.935330183077	20.190584793742
8	3240	1804.171461933716	16.717077127979
8	3243	1806.471839896705	16.274291258133
8	3248	1808.076672679347	16.341879095838
8	3249	1808.324583112204	11.554338111207
8	3250	1808.405579350673	11.283761344943
8	3251	1808.570440452714	10.454691418674
8	3258	1809.037250081759	10.699321296874
8	3259	1810.745581332771	11.663029740496
8	3262	1811.117930114903	9.946761147191
8	3263	1812.412733736095	9.18001117185
8	3264	1813.291245930379	8.764576527559
8	3267	1815.565272567273	8.406159342192
8	3270	1817.371932802907	9.457286360236
8	3271	1818.539113190069	9.87456095461
8	3272	1818.712545219632	10.019119971823
8	3275	1820.792817738181	11.789062648215
8	3278	1823.437118045729	12.676093936858
8	3283	1824.447412414506	10.583684851854
8	3291	1827.409103839426	8.573853316937
8	3292	1827.82118865277	5.511957713571
8	3302	1834.635804394535	11.045896345555
8	3305	1835.776532745387	11.229148562241
8	3306	1835.849895173032	9.112029112966
8	3307	1837.061575149085	9.778128533846
8	3308	1837.211643823362	6.724189791974
8	3309	1838.073733714451	6.851843449892
8	3310	1838.287599826032	6.108708086355
8	3311	1838.50573511267	6.074181874829
8	3312	1838.690881733609	3.822487606848
8	3317	1840.23104872139	1.215074600858
8	3318	1841.419763135383	2.285946449029
8	3321	1842.537334008404	0.031445888159
8	3324	1843.520253795294	0.157556310949
8	3327	1845.237843594626	0.434732212389
8	3330	1846.940673714108	0.095867657454
8	3333	1848.359969758645	0.80964805717
8	3336	1849.158515986754	0.525509324062
8	3363	1867.571848121933	16.797156553716
8	3366	1869.334392062552	16.767535146226
8	3367	1869.673724887624	14.438503227452
8	3368	1870.187711566887	14.916043698852
8	3371	1871.689840255296	16.289652162107
8	3374	1873.292972344866	16.236314227383
8	3379	1876.103418801782	18.540988945403
8	3380	1876.505093505191	15.603608299975
8	3381	1876.701499409822	12.802698373744
8	3391	1882.817168987812	14.069880798554
8	3413	1900.876514072644	27.022955859093
8	3414	1902.145338130486	28.060798538118
8	3417	1902.896173106437	25.912306501803
8	3418	1903.422125064233	25.667980055974
8	3419	1903.682158550773	25.889728579948
8	3420	1904.513294534509	25.990561435802
8	3423	1905.223734950019	21.306572061448
8	3424	1905.478414050259	20.816389041517
8	3425	1905.537345352299	15.721324391251
8	3426	1906.101600220495	8.774508091806
8	3429	1907.860580896043	10.115322900973
8	3432	1908.328468899644	6.117536167142
8	3433	1908.837553110554	4.213486068278
8	3434	1909.027400051337	1.628160819561
8	3437	1909.911131620018	1.827363572655
8	3438	1910.207757556936	0.424773364729
8	3446	1912.977609130181	1.084190136572
8	3447	1913.561844612973	0.741351479379
8	3450	1915.432274001489	0.901336603887
8	3453	1919.086215720055	0.869564143184
8	3456	1920.038784496203	0.402172692304
8	3459	1920.535756123511	0.129821383082
8	3464	1922.903217982967	0.205694296573
8	3469	1925.803831766692	3.080926124441
8	3470	1925.953387301075	2.274062711414
8	3471	1926.399904205007	1.684669146379
8	3476	1928.458509709244	1.957786862418
8	3477	1928.9628596433	0.546793864451
8	3480	1929.936358787328	0.445922238612
8	3483	1930.5498359377	0.333423906539
8	3493	1939.36069288818	4.862799292506
8	3494	1939.900489516614	4.954238475707
8	3495	1940.137304318001	2.689091066954
8	3498	1940.788214759342	0.020464367659
8	3501	1944.040176928696	0.058198144198
8	3504	1945.054708393514	0.370377529491
8	3510	1948.525816303427	0.353039927104
8	3519	1951.365243909309	1.55944970566
8	3522	1952.485547055766	2.454071376271
8	3523	1952.679794531813	2.646444428878
8	3524	1953.327994119949	3.11421638739
8	3529	1953.885257181899	1.727687278587
8	3530	1954.148872605781	0.74682899562
8	3533	1954.712271241413	0.979753908849
8	3534	1955.096918135828	0.794079402053
8	3537	1961.433114631833	1.047188911542
8	3545	1969.797136220823	3.025133015956
8	3548	1971.232607987707	2.391514963486
8	3549	1971.436591263059	0.524731052009
8	3552	1973.200885081113	0.453360658537
8	3555	1975.450944018422	0.659423868973
8	3560	1978.324293688081	2.820161074239
8	3563	1981.39906466898	4.230061515127
8	3564	1982.394511526472	2.215071293514
8	3576	1988.225463020449	1.724222990953
8	3577	1988.780547229876	2.268606273531
8	3578	1989.126439600252	1.490843490161
8	3579	1990.541408169645	2.62629568884
9	18	7.329735627192	0
9	50	22.050874754684	0
9	88	41.237428029799	0
9	110	51.178192231727	0
9	122	58.158682210639	0
9	132	63.854359159071	0
9	135	66.299603283733	2.078584781737
9	146	69.41852464561	1.481407304262
9	203	93.411540473078	0
9	213	103.216265357946	0
9	230	113.010489835458	0
9	237	118.703777946746	1.103732021323
9	240	120.666984611882	0.293858115756
9	267	135.540698549186	0
9	274	141.256486662925	0
9	279	143.963469536594	0
9	284	147.908945899016	0.969138534955
9	292	153.643966698701	0
9	304	160.012307868833	0
9	311	163.219551206932	3.176664616855
9	316	174.989455656332	12.201224722563
9	321	178.636811815587	13.842542005168
9	324	179.309998187427	13.156621690116
9	335	185.825678077855	3.283653749234
9	345	190.548794404132	0
9	376	205.119676736565	0
9	379	205.364634633373	0.164497598564
9	385	208.652837264636	0
9	462	261.682250959795	0
9	483	270.694209456645	8.547987916044
9	492	275.575612255001	4.867759916731
9	546	295.886416943767	0
9	549	296.429469431836	0.030413192752
9	562	302.154738998658	5.594058314671
9	594	317.695698195524	0
9	686	358.402940277287	0
9	706	366.862252926341	0
9	733	379.372883940009	0
9	750	384.847848341312	2.617913348259
9	776	398.527227471368	0
9	799	409.466147403368	8.924718441696
9	809	412.151394864743	0
9	831	422.308353331076	0
9	856	436.308622570135	0
9	865	439.725168607131	1.638837699043
9	888	456.32864226177	16.160107720599
9	901	462.72567528272	8.595842010417
9	908	465.68021187959	8.760462254043
9	936	475.575066738085	0
9	949	481.66247384959	0
9	1037	529.363795203813	0
9	1127	584.416114377	0
9	1142	587.079441199911	1.240692022675
9	1162	593.947198987396	0
9	1176	608.007949756293	0
9	1190	614.1204663414	0
9	1210	623.834025602935	0
9	1213	625.377337782795	1.292515144828
9	1233	639.00794735542	0
9	1313	674.70415647296	0
9	1366	702.954039033118	0
9	1375	709.22268454666	6.253784209349
9	1422	735.672623382651	0
9	1443	749.488498887528	0.972816053718
9	1499	776.100012512802	0
9	1506	781.472660343133	4.223177104723
9	1546	804.993313502554	0
9	1561	811.726371954708	0
9	1571	818.644944725254	0
9	1578	821.452724249978	0
9	1585	826.253561734463	0
9	1598	837.309678788863	0
9	1607	841.680683169716	0
9	1624	850.496167358395	3.621682830894
9	1629	851.651387977719	0
9	1632	855.313365915939	2.089579974
9	1643	862.593004226458	6.031988992257
9	1644	862.974968266861	4.36276210829
9	1655	870.2177938402	7.813967963179
9	1658	872.412439377441	7.378270839898
9	1673	884.028088052173	1.66794243389
9	1760	933.3111399493	0
9	1776	949.584048235385	0
9	1791	956.668352809985	0
9	1845	985.701626492795	0
9	1850	986.862622583165	0
9	1871	1007.601162300481	17.875858135368
9	1884	1017.08692903067	24.482724405656
9	1885	1019.573875429124	22.459270299673
9	1890	1028.384666129641	26.733688725433
9	1903	1036.32531506471	0
9	1950	1062.97531012197	0
9	1971	1074.015980210701	10.838243367835
9	1974	1075.236845585249	10.25550671011
9	1975	1078.042674878044	5.149373889358
9	2002	1091.925199967271	0
9	2015	1099.491579988349	5.229689618756
9	2073	1137.19853982467	0
9	2091	1144.968976359244	0
9	2172	1192.663347825109	0
9	2179	1198.633828654633	0
9	2216	1214.346252638278	0
9	2231	1223.338501478389	0
9	2247	1229.561789018947	0
9	2266	1239.041648715109	0
9	2275	1240.310655287596	0
9	2288	1248.156099017203	3.083290396229
9	2302	1256.883612050674	0
9	2330	1270.950188041304	0
9	2341	1272.720903372168	0
9	2349	1281.369211278621	0
9	2362	1287.983260269121	2.31731805206
9	2365	1289.504947949951	1.876632529235
9	2366	1290.349514551581	1.952651817631
9	2407	1309.763817422496	0
9	2428	1319.653010771915	0
9	2436	1323.309539619604	0
9	2449	1327.836430920512	0
9	2467	1338.998275130363	0
9	2482	1352.023198427264	0
9	2493	1360.247711208694	4.820334143085
9	2496	1363.317983365644	2.693300689849
9	2509	1367.7189706682	0
9	2563	1401.44401709206	0
9	2590	1422.666581735727	0
9	2641	1449.38345629173	0
9	2648	1453.711019802976	4.003681250904
9	2655	1458.24957046259	0.130128674167
9	2686	1475.694977609272	0
9	2691	1479.689822411835	3.828128628615
9	2699	1485.079482648377	0
9	2712	1492.802818212137	5.676458818771
9	2713	1492.8673561799	4.527169890616
9	2740	1507.828857706241	0
9	2747	1512.020924814503	0
9	2759	1516.514951708228	0
9	2768	1523.383138890444	0
9	2781	1528.367190962693	0
9	2790	1538.792962857273	8.177820022499
9	2802	1550.891592076641	0
9	2805	1551.425059152605	0
9	2827	1565.087328054997	0
9	2840	1574.272422514945	0
9	2855	1583.628898938228	0
9	2879	1595.366087872998	0
9	2900	1606.484639987444	10.124960045323
9	2909	1614.628997935681	14.056559386877
9	2910	1614.937118582414	9.087752082536
9	2911	1615.19522053087	7.71348206928
9	2918	1620.718551307365	7.742404348628
9	2941	1639.130407531736	12.764312429855
9	2967	1649.107345387332	0
9	3001	1664.76616500472	0
9	3018	1673.710093124838	0
9	3036	1687.718218579655	0
9	3094	1717.860084487008	0
9	3113	1735.337833299459	0
9	3158	1760.093563397213	0
9	3189	1771.939486414876	0
9	3196	1779.745792188873	5.886457814427
9	3212	1790.197548638572	0
9	3230	1799.082551592275	0
9	3285	1824.547384183146	0
9	3294	1830.487454031388	0
9	3340	1850.774691568217	0
9	3359	1864.105605006786	12.401755567418
9	3383	1876.983866604634	0
9	3393	1883.917162888571	0
9	3398	1885.739235452781	0.2675408567
9	3401	1889.816020961048	0
9	3404	1892.107145887099	1.403837792216
9	3407	1897.16606143355	0.698219029964
9	3440	1911.510753942028	0
9	3489	1934.946251040907	0
9	3506	1946.422946246093	0
9	3541	1966.772003204867	0
9	3570	1986.511940956345	0
9	3583	1990.919395328466	0
9	3596	1998.582909763137	6.947727868249
9	3601	1998.9503034693	0
10	23	10.30039657289	2.970660945698
10	53	23.380256553373	1.329381798689
10	97	47.679432351203	6.442004321404
10	111	53.77337800543	2.595185773703
10	123	59.827713045597	1.669030834958
10	135	66.299603283733	2.445244124662
10	146	69.41852464561	5.197506143614
10	151	71.420451315041	3.483333973693
10	206	99.684190706708	6.27265023363
10	214	103.947240331208	0.730974973262
10	237	118.703777946746	5.693288111288
10	240	120.666984611882	3.066938686459
10	241	120.81398380579	0.440857309664
10	268	135.736837756422	0.196139207236
10	277	143.597743681278	2.341257018353
10	284	147.908945899016	3.945476362422
10	289	152.794213788851	5.85440642479
10	299	158.659676746028	5.015710047327
10	311	163.219551206932	3.207243338099
10	316	174.989455656332	14.946569066255
10	321	178.636811815587	15.848580881818
10	324	179.309998187427	14.515728377008
10	335	185.825678077855	19.672301580544
10	338	189.063942044094	6.521917715473
10	348	192.06103641437	1.512242010238
10	379	205.364634633373	0.244957896808
10	380	207.487586239635	2.287449204826
10	386	208.899551200823	0.246713936187
10	483	270.694209456645	9.01195849685
10	492	275.575612255001	13.4293907144
10	497	276.989559011451	6.281706673181
10	549	296.429469431836	0.543052488069
10	562	302.154738998658	5.755682759574
10	563	302.354499817822	5.793819133835
10	595	319.606023097072	1.910324901548
10	689	359.316342140171	0.913401862884
10	707	367.988612881527	1.126359955186
10	750	384.847848341312	5.474964401303
10	753	385.741749602869	3.511814609816
10	799	409.466147403368	10.938919932
10	804	410.748350646797	10.206921685125
10	812	412.696545418297	0.545150553554
10	834	424.232041762328	1.923688431252
10	865	439.725168607131	3.416546036996
10	888	456.32864226177	18.242311353682
10	901	462.72567528272	22.557140741549
10	908	465.68021187959	11.550378607287
10	915	468.707363316062	11.787613690515
10	941	478.272482600013	2.697415861928
10	960	491.531765597637	9.869291748047
10	1040	531.913828623203	2.55003341939
10	1142	587.079441199911	2.663326822911
10	1143	587.655946641917	1.817197464681
10	1163	597.865372137769	3.918173150373
10	1183	612.437491936119	4.429542179826
10	1199	620.577420630194	6.456954288794
10	1213	625.377337782795	1.54331217986
10	1218	633.555655548075	9.470832910108
10	1242	643.390540269209	4.382592913789
10	1318	677.94998252159	3.24582604863
10	1375	709.22268454666	6.268645513542
10	1376	709.60597864608	6.637078308769
10	1443	749.488498887528	13.815875504877
10	1444	749.952417961968	1.436735128158
10	1506	781.472660343133	5.372647830331
10	1509	786.167621010174	8.918137771764
10	1547	805.972340237851	0.979026735297
10	1562	815.479720568105	3.753348613397
10	1572	819.139215809595	0.494271084341
10	1579	822.583539678177	1.130815428199
10	1586	826.300475729554	0.046913995091
10	1603	840.458594724349	3.148915935486
10	1624	850.496167358395	8.815484188679
10	1627	851.400588443069	4.526103915568
10	1632	855.313365915939	3.66197793822
10	1643	862.593004226458	9.369218284519
10	1644	862.974968266861	6.41395303266
10	1655	870.2177938402	11.605587681629
10	1658	872.412439377441	10.00861350042
10	1673	884.028088052173	18.99391951463
10	1674	884.709586581415	2.349440963132
10	1773	947.600634042458	14.289494093158
10	1781	952.395934965686	2.811886730301
10	1798	959.556905600366	2.888552790381
10	1846	985.958474580387	0.256848087592
10	1871	1007.601162300481	20.738539717316
10	1884	1017.08692903067	27.361624865557
10	1885	1019.573875429124	26.96967080411
10	1890	1028.384666129641	31.27006100019
10	1901	1036.317215869647	34.666238465439
10	1912	1045.028622535895	8.703307471185
10	1971	1074.015980210701	11.040670088731
10	1974	1075.236845585249	12.059108742383
10	1975	1078.042674878044	13.061336002905
10	1976	1078.358783947028	5.465482958342
10	2015	1099.491579988349	7.566380021078
10	2016	1102.691794077655	8.429903708062
10	2076	1139.901633710329	2.703093885659
10	2098	1149.076078175886	4.107101816642
10	2173	1197.734593247571	5.071245422462
10	2182	1199.069274334882	0.435445680249
10	2219	1216.507350703584	2.161098065306
10	2232	1224.289577469062	0.951075990673
10	2248	1230.018837024231	0.457048005284
10	2267	1239.236647443757	0.194998728648
10	2288	1248.156099017203	7.845443729607
10	2289	1248.746876222514	3.67406760154
10	2303	1257.591935236787	0.708323186113
10	2335	1271.580405092498	0.630217051194
10	2346	1279.143150523776	6.422247151608
10	2362	1287.983260269121	6.6140489905
10	2365	1289.504947949951	3.83900573289
10	2366	1290.349514551581	2.721199130865
10	2369	1290.795338138382	2.398475404432
10	2410	1312.151567199678	2.387749777182
10	2433	1322.373036822861	2.720026050946
10	2437	1324.617660177137	1.308120557533
10	2452	1330.496142833019	2.659711912507
10	2480	1351.605348303682	12.607073173319
10	2493	1360.247711208694	8.22451278143
10	2496	1363.317983365644	7.890606300035
10	2499	1364.423833777059	3.799151101264
10	2510	1369.45058984092	1.73161917272
10	2564	1402.53347068913	1.08945359707
10	2601	1429.511204138453	6.844622402726
10	2648	1453.711019802976	4.327563511246
10	2655	1458.24957046259	8.542231910518
10	2660	1463.319991352712	5.200549564289
10	2691	1479.689822411835	3.994844802563
10	2692	1480.47056596794	4.60887218472
10	2712	1492.802818212137	7.72333556376
10	2713	1492.8673561799	5.740996786534
10	2714	1494.675627894981	6.335441605697
10	2741	1508.840266242752	1.011408536511
10	2750	1514.482860061537	2.461935247034
10	2762	1518.790284432677	2.275332724449
10	2773	1526.078850771334	2.69571188089
10	2790	1538.792962857273	10.42577189458
10	2791	1541.474395462564	10.85925262779
10	2803	1551.394756498159	0.503164421518
10	2806	1557.471113046647	6.046053894042
10	2828	1568.438760007242	3.351431952245
10	2847	1579.039065440847	4.766642925902
10	2858	1585.266778805328	1.6378798671
10	2900	1606.484639987444	11.118552114446
10	2909	1614.628997935681	18.26931799356
10	2910	1614.937118582414	14.36468003361
10	2911	1615.19522053087	9.345854030992
10	2918	1620.718551307365	13.236812845775
10	2941	1639.130407531736	26.154260572999
10	2944	1641.391294789906	15.025199688025
10	2994	1660.839556552238	11.732211164906
10	3002	1667.621355829728	2.855190825008
10	3025	1676.145715591682	2.435622466844
10	3039	1688.721900687652	1.003682107997
10	3105	1730.975094781107	13.115010294099
10	3116	1736.980172833469	1.64233953401
10	3159	1761.15569712846	1.062133731247
10	3196	1779.745792188873	7.806305773997
10	3205	1786.541754027241	12.682419652795
10	3213	1791.606177607954	1.408628969382
10	3233	1802.444500200008	3.361948607733
10	3286	1824.913020894823	0.365636711677
10	3301	1834.178888520027	3.691434488639
10	3359	1864.105605006786	13.330913438569
10	3360	1865.978441398947	14.274591959579
10	3390	1881.01674835484	4.032881750206
10	3398	1885.739235452781	1.82207256421
10	3399	1888.867557455569	3.395862859488
10	3404	1892.107145887099	2.291124926051
10	3407	1897.16606143355	6.462753338667
10	3412	1900.59207186114	4.124229457554
10	3441	1911.670355693972	0.159601751944
10	3492	1938.75743539811	3.811184357203
10	3507	1946.673452808648	0.250506562555
10	3542	1967.293219967057	0.52121676219
10	3571	1987.420859746176	0.908918789831
10	3596	1998.582909763137	7.663514434671
10	3597	1998.622114967377	6.986933072489
11	3602	2000	0.508
12	3602	2000	0.0895

