file 220058 1671138826                                          
version 2
run Continuity_test_mean_response_time-172-20221215-22:13:46-14232
attr configname Continuity_test_mean_response_time
attr datetime 20221215-22:13:46
attr experiment Continuity_test_mean_response_time
attr inifile omnetpp.ini
attr iterationvars $0=5.1
attr iterationvarsf 5.1-
attr measurement $0=5.1
attr network Network
attr processid 14232
attr repetition 72
attr replication #72
attr resultdir results
attr runnumber 172
attr seedset 72
param *.minion.arrival_mean 2
param *.minion.service_mean 1
param *.boss.arrival_mean 10
param *.boss.service_mean 5.1
param *.player.recover_rate_x 100
param **.minion.arrival_distribution 0
param **.minion.service_distribution 0
param **.boss.arrival_distribution 0
param **.boss.service_distribution 0

vector 0 Network.player minion_jobs_number_stat:vector ETV
attr source signal_minion_jobs_number
vector 1 Network.player minion_jobs_queue_number_stat:vector ETV
attr source signal_minion_jobs_queue_number
vector 2 Network.player minion_recovered_stat:vector ETV
attr source signal_minion_recovered
vector 3 Network.player minion_defeated_stat:vector ETV
attr source signal_minion_defeated
vector 4 Network.player boss_jobs_number_stat:vector ETV
attr source signal_boss_jobs_number
vector 5 Network.player boss_jobs_queue_number_stat:vector ETV
attr source signal_boss_jobs_queue_number
vector 6 Network.player boss_defeated_stat:vector ETV
attr source signal_boss_defeated
vector 7 Network.player minion_waiting_time_stat:vector ETV
attr source signal_minion_waiting_time
vector 8 Network.player minion_response_time_stat:vector ETV
attr source signal_minion_response_time
vector 9 Network.player boss_waiting_time_stat:vector ETV
attr source signal_boss_waiting_time
vector 10 Network.player boss_response_time_stat:vector ETV
attr source signal_boss_response_time
vector 11 Network.player minion_throughput:vector ETV
attr source signal_minion_throughput
vector 12 Network.player boss_throughput:vector ETV
attr source signal_boss_throughput
0	2003 27287 0 3532 0 1998.235088699689 998 0 171 83870 9783456
1	29290 50752 0 3533 0 1998.248413468192 1856 0 170 156155 18347857
2	80042 2898 0 3502 0 1984.057836889497 108 0 107 5778 414090
3	82940 23928 0 3533 0 1998.248413468192 859 0 858 368511 210911129
4	106868 5908 0 3502 0 1984.057836889497 228 0 7 478 1480
5	112776 11810 0 3511 0 1992.321513288131 455 0 6 502 1502
6	124586 6256 0 3511 0 1992.321513288131 228 0 227 25878 3924830
7	130842 38383 2 3533 1.611600276125 1998.248413468192 966 0 330.51380206932 148935.03004364 32086401.459822
8	169225 34191 5 3533 2.910365658743 1998.248413468192 858 0.131088519568 331.58145458865 133920.38548363 29127588.54372
9	203416 7467 8 3502 3.193964736883 1984.057836889497 227 0 47.571739274263 1329.0609769846 29262.687162915
10	210883 9135 9 3511 3.721789647309 1992.321513288131 227 0.019900398911 52.439140235465 2471.983451029 55539.095273211
11	220018 19 3534 3534 2000 2000 1 0.429 0.429 0.429 0.184041
12	220037 20 3534 3534 2000 2000 1 0.1135 0.1135 0.1135 0.01288225

