version 2
run Continuity_test_mean_response_time-137-20221216-15:31:08-5847
attr configname Continuity_test_mean_response_time
attr datetime 20221216-15:31:08
attr experiment Continuity_test_mean_response_time
attr inifile omnetpp.ini
attr iterationvars $0=5.2
attr iterationvarsf 5.2-
attr measurement $0=5.2
attr network Network
attr processid 5847
attr repetition 37
attr replication #37
attr resultdir results
attr runnumber 137
attr seedset 37
param *.minion.arrival_mean 2
param *.minion.service_mean 1
param *.boss.arrival_mean 10
param *.boss.service_mean 5.2
param *.player.recover_rate_x 100
param **.minion.arrival_distribution 0
param **.minion.service_distribution 0
param **.boss.arrival_distribution 0
param **.boss.service_distribution 0

scalar Network.player boss_throughput:mean 0.1
attr source signal_boss_throughput
scalar Network.player boss_throughput:last 0.1
attr source signal_boss_throughput
scalar Network.player boss_defeated_stat:count 201
attr source signal_boss_defeated
scalar Network.player boss_defeated_stat:mean 100
attr source signal_boss_defeated
scalar Network.player boss_waiting_time_stat:mean 5.9264170661264
attr source signal_boss_waiting_time
scalar Network.player boss_response_time_stat:mean 11.692264667605
attr source signal_boss_response_time
scalar Network.player minion_throughput:mean 0.3685
attr source signal_minion_throughput
scalar Network.player minion_throughput:last 0.3685
attr source signal_minion_throughput
scalar Network.player minion_recovered_stat:count 82
attr source signal_minion_recovered
scalar Network.player minion_recovered_stat:mean 40.5
attr source signal_minion_recovered
scalar Network.player minion_defeated_stat:count 738
attr source signal_minion_defeated
scalar Network.player minion_defeated_stat:mean 368.5
attr source signal_minion_defeated
scalar Network.player minion_waiting_time_stat:mean 243.07000777515
attr source signal_minion_waiting_time
scalar Network.player minion_response_time_stat:mean 244.63770528692
attr source signal_minion_response_time

