version 2
run Continuity_test_mean_response_time-90-20221216-15:30:59-5610
attr configname Continuity_test_mean_response_time
attr datetime 20221216-15:30:59
attr experiment Continuity_test_mean_response_time
attr inifile omnetpp.ini
attr iterationvars $0=5.1
attr iterationvarsf 5.1-
attr measurement $0=5.1
attr network Network
attr processid 5610
attr repetition 40
attr replication #40
attr resultdir results
attr runnumber 90
attr seedset 40
param *.minion.arrival_mean 2
param *.minion.service_mean 1
param *.boss.arrival_mean 10
param *.boss.service_mean 5.1
param *.player.recover_rate_x 100
param **.minion.arrival_distribution 0
param **.minion.service_distribution 0
param **.boss.arrival_distribution 0
param **.boss.service_distribution 0

vector 0 Network.player minion_jobs_number_stat:vector ETV
attr source signal_minion_jobs_number
vector 1 Network.player minion_jobs_queue_number_stat:vector ETV
attr source signal_minion_jobs_queue_number
vector 2 Network.player minion_recovered_stat:vector ETV
attr source signal_minion_recovered
vector 3 Network.player minion_defeated_stat:vector ETV
attr source signal_minion_defeated
vector 4 Network.player boss_jobs_number_stat:vector ETV
attr source signal_boss_jobs_number
vector 5 Network.player boss_jobs_queue_number_stat:vector ETV
attr source signal_boss_jobs_queue_number
vector 6 Network.player boss_defeated_stat:vector ETV
attr source signal_boss_defeated
vector 7 Network.player minion_waiting_time_stat:vector ETV
attr source signal_minion_waiting_time
vector 8 Network.player boss_waiting_time_stat:vector ETV
attr source signal_boss_waiting_time
vector 9 Network.player boss_response_time_stat:vector ETV
attr source signal_boss_response_time
vector 10 Network.player minion_response_time_stat:vector ETV
attr source signal_minion_response_time
vector 11 Network.player minion_throughput:vector ETV
attr source signal_minion_throughput
vector 12 Network.player boss_throughput:vector ETV
attr source signal_boss_throughput
0	0	0	0
0	2	3.584232943272	1
0	6	4.877745395585	2
0	8	5.65919763807	3
0	10	8.879959561233	4
0	13	9.835495066951	5
0	15	12.203502296372	6
0	19	12.935698549633	5
0	24	14.29559289866	3
0	29	15.967815214914	1
0	31	15.974442933326	2
0	37	18.373317555454	1
0	39	18.684311244031	2
0	41	19.074987871291	3
0	43	19.628442841396	4
0	46	20.623235712582	5
0	53	29.118358540673	1
0	56	29.839657243977	1
0	58	30.57434803716	2
0	63	33.222296235893	2
0	65	33.873632738304	3
0	74	39.304692797636	1
0	76	39.374079438797	2
0	80	43.251607646246	1
0	83	48.385711725418	1
0	85	49.418091294217	2
0	89	52.29199956056	1
0	91	52.405491253006	2
0	95	56.032673952598	1
0	97	56.192162085848	2
0	99	56.432978806908	3
0	105	61.461268979024	3
0	108	63.421973371523	3
0	111	64.964635155544	3
0	114	65.86230153173	3
0	118	67.120232681753	2
0	125	72.106637867249	1
0	127	72.670350880524	2
0	129	72.785984426142	3
0	132	74.070544171371	3
0	135	76.188441515089	3
0	140	78.429838591274	1
0	143	82.054287361064	1
0	151	89.682681769504	1
0	153	89.816152149253	2
0	158	96.878614156041	1
0	163	107.046964538003	1
0	168	108.531724731437	2
0	170	108.998349998564	3
0	176	113.386609270137	1
0	178	115.717328713043	2
0	182	119.172868375317	1
0	185	120.535140530828	1
0	188	123.711559750306	1
0	191	124.942353264604	1
0	194	126.613759975135	1
0	196	126.945371289441	2
0	200	128.922500811806	1
0	202	129.62300552831	2
0	205	130.636980465329	2
0	209	131.498385623887	1
0	215	133.196339312026	1
0	217	133.285607236794	2
0	221	135.36918227249	1
0	224	140.379678318667	1
0	226	140.761293826944	2
0	229	141.614208479606	2
0	232	142.82846091952	2
0	235	143.066874838867	2
0	239	147.034032950678	1
0	241	147.616145684715	2
0	244	148.821640497516	2
0	250	153.825139539614	1
0	252	157.552321250528	2
0	257	160.304386239426	1
0	259	160.45710598017	2
0	263	164.446918717591	1
0	268	173.942050100402	1
0	272	177.543846351532	1
0	274	177.939945086901	2
0	276	179.604529009947	3
0	281	181.595533038906	1
0	283	183.813986362426	2
0	285	184.208101485452	3
0	291	188.351104946	2
0	293	188.99796934879	3
0	295	189.102214663797	4
0	299	190.326719058725	5
0	302	191.460860256007	6
0	306	194.231760744942	7
0	309	195.796130404331	8
0	316	198.408163409078	8
0	318	199.03467504525	9
0	323	200.784585945194	9
0	326	201.588868186519	10
0	328	201.725763738545	11
0	330	202.471468843233	12
0	332	202.659533270206	13
0	336	204.559501645401	12
0	338	204.740741481236	13
0	341	209.616247883642	13
0	346	212.424548573387	13
0	348	215.06311292979	14
0	353	215.887773424002	13
0	356	217.216623039396	13
0	363	217.925344933694	12
0	365	218.130523758338	13
0	367	218.849491431531	14
0	370	221.080573208884	14
0	381	229.445141821478	11
0	383	230.349218855532	12
0	385	231.852376522892	13
0	387	232.872068653725	14
0	390	234.049801613415	15
0	392	234.599234583983	16
0	395	237.530352233501	16
0	397	237.609106193725	17
0	401	238.813659919945	16
0	403	241.942205274488	17
0	413	246.971936578837	10
0	415	248.244890597867	11
0	421	254.885024300949	8
0	423	255.700124973905	9
0	426	257.362470216173	9
0	428	257.667080213683	10
0	430	259.737824229715	11
0	436	261.596679060003	8
0	438	261.96092049185	9
0	440	262.026766981496	10
0	443	262.332827216139	10
0	445	262.893676226384	11
0	447	263.409526121893	12
0	453	266.568742926032	9
0	455	266.903319755124	10
0	459	267.806279771072	9
0	462	269.874116567314	9
0	467	273.649460666234	7
0	470	276.843675043769	7
0	472	277.72133483359	8
0	477	282.999567594529	6
0	480	284.269676276122	6
0	485	289.256227732575	4
0	487	290.022050173347	5
0	489	290.120186813296	6
0	491	290.913927752572	7
0	498	291.87206717395	3
0	500	291.876048819	4
0	503	292.159067783529	4
0	505	292.258268287948	5
0	507	293.276500625488	6
0	514	296.007418959353	2
0	518	297.831759824228	3
0	520	298.203204268533	4
0	523	299.871168477095	5
0	533	305.84485435319	1
0	536	307.916735454108	1
0	539	308.623672376691	1
0	542	314.873621112867	1
0	544	315.027470268565	2
0	548	316.973900486355	1
0	551	322.491949513431	1
0	554	325.19652616184	1
0	557	327.99013065456	1
0	560	329.694084535834	1
0	563	331.935206160533	1
0	565	334.325448044475	2
0	568	336.697245441772	2
0	573	340.479063620766	2
0	575	346.271973529237	3
0	577	346.784119408641	4
0	580	347.577444921223	5
0	582	348.240201308315	6
0	584	348.563290643685	7
0	586	349.017386700627	8
0	588	349.236813254682	9
0	593	351.771042110256	7
0	605	359.730346164703	1
0	608	363.764184285806	1
0	611	371.695542569217	1
0	619	378.381480597369	2
0	622	380.571008254379	3
0	625	383.577419636419	4
0	627	384.241177474346	5
0	629	385.033247656913	6
0	631	386.766174516132	7
0	636	390.687144932687	8
0	638	392.733255818306	9
0	640	392.902992731872	10
0	642	395.039359932725	11
0	644	395.139647644682	12
0	646	395.567616954037	13
0	649	396.937734870905	14
0	661	401.337218133341	7
0	663	406.657928098343	8
0	665	406.753320401468	9
0	674	414.951163483629	10
0	676	416.449684069308	11
0	678	418.678136893735	12
0	680	419.028364081435	13
0	682	419.632321248922	14
0	684	419.826704029673	15
0	686	420.388311572042	16
0	690	421.150022348956	17
0	696	428.071064817708	18
0	701	432.828434522293	19
0	703	436.49340310781	20
0	705	436.679189477234	21
0	707	439.308566427168	22
0	712	443.527053463104	23
0	715	444.864581072134	24
0	717	447.574606654172	25
0	719	450.424563848003	26
0	721	450.719114809852	27
0	723	453.046910365269	28
0	726	454.408354744731	29
0	728	454.851816559122	30
0	730	456.448981296985	31
0	732	456.699213234008	32
0	736	457.161215342003	33
0	739	457.518780970473	34
0	741	458.766020333842	35
0	743	459.698760788785	36
0	745	460.160141774876	37
0	747	461.498053716119	38
0	749	462.699727992927	39
0	751	464.53017103383	40
0	753	464.669221883342	41
0	755	466.421876097832	42
0	760	468.444548572781	43
0	762	469.246318650188	44
0	767	471.063014606218	43
0	769	471.066883475624	44
0	775	473.228372758187	41
0	780	476.079355417147	39
0	782	477.594763460846	40
0	785	479.018749678111	40
0	789	480.591941505586	39
0	791	480.8903221891	40
0	797	484.89276412155	37
0	800	486.183211268268	37
0	802	486.436968771006	38
0	804	487.978747187854	39
0	810	491.025935777482	36
0	813	491.957176133128	36
0	816	492.525572275122	36
0	822	498.20813096274	33
0	824	501.120811521201	34
0	826	501.868008364569	35
0	832	506.933416635831	32
0	837	509.466139009093	30
0	840	510.765668366083	30
0	844	512.744244866059	29
0	847	512.976767918765	29
0	852	514.760560596363	27
0	858	517.088544922023	24
0	869	521.114422524235	19
0	873	523.8311822958	18
0	875	523.948202320891	19
0	882	529.552764427667	15
0	886	530.39972190278	14
0	888	530.47259172264	15
0	890	530.877106304859	16
0	892	532.610308370478	17
0	894	532.876027227262	18
0	900	534.788121760794	19
0	904	535.788742940838	20
0	907	538.112714278704	21
0	911	539.721071115786	22
0	914	540.853495396255	23
0	916	541.928628205412	24
0	918	542.707741311727	25
0	921	542.831274667778	26
0	923	543.827543038192	27
0	925	544.236735260061	28
0	932	550.938590576925	25
0	934	551.726927208963	26
0	937	552.397443668965	26
0	939	552.553276618422	27
0	944	553.711080215328	27
0	948	555.489152264825	27
0	950	555.962490871052	28
0	957	562.932197128324	24
0	960	563.101482486644	24
0	965	565.636289918093	22
0	967	566.838888470522	23
0	973	570.02510369023	20
0	978	571.894373506472	18
0	983	573.867571223167	18
0	985	574.598670085442	19
0	992	578.980025158756	16
0	997	580.473436114371	14
0	999	580.734922543008	15
0	1005	583.22804837188	12
0	1009	587.45334877581	13
0	1011	589.688779004269	14
0	1013	589.998773304372	15
0	1015	592.048988096943	16
0	1017	592.645012194997	17
0	1019	597.164980352571	18
0	1026	601.268708143723	15
0	1033	607.296112039301	11
0	1039	610.535398167233	10
0	1041	610.587309417737	11
0	1043	610.668741952512	12
0	1055	615.521306533332	10
0	1060	617.772002038213	11
0	1064	620.259734991649	10
0	1066	620.287847679504	11
0	1075	630.575984837694	8
0	1077	631.154605247747	9
0	1082	633.248008145315	7
0	1084	633.586881672642	8
0	1087	634.618460210097	8
0	1093	637.571093694478	5
0	1095	638.779183243408	6
0	1097	640.231050648287	7
0	1099	640.376925473433	8
0	1101	641.42998688878	9
0	1107	644.997529637507	6
0	1109	645.301154740497	7
0	1111	645.480533320195	8
0	1113	645.499933604304	9
0	1115	645.70452123731	10
0	1117	645.73691785977	11
0	1127	650.453502823926	6
0	1129	650.902001516008	7
0	1136	664.840123454586	8
0	1138	665.308158636306	9
0	1140	667.313389197769	10
0	1142	668.237550399252	11
0	1144	668.890951787705	12
0	1146	671.720665789474	13
0	1148	671.969735200662	14
0	1151	675.41806095943	15
0	1153	676.314198789273	16
0	1155	679.306576797722	17
0	1160	681.30109262811	16
0	1166	685.299485501197	15
0	1168	685.665026445653	16
0	1170	686.597921819935	17
0	1172	687.767000188052	18
0	1174	687.984268847855	19
0	1176	688.185249348347	20
0	1184	692.945723508846	19
0	1189	693.753509096802	17
0	1192	694.240292364282	17
0	1194	696.362416469655	18
0	1201	699.088459154103	16
0	1203	699.935939546863	17
0	1213	705.297486875136	11
0	1218	706.971669033785	9
0	1220	707.238045692499	10
0	1222	707.372776302521	11
0	1227	708.201490384444	9
0	1233	710.321313963894	6
0	1237	713.467924000692	5
0	1239	713.561494596175	6
0	1244	716.557402768586	6
0	1248	717.245573905629	7
0	1250	718.163021105082	8
0	1253	719.239234378314	9
0	1255	719.585889363493	10
0	1257	720.398540982999	11
0	1261	721.239749572979	12
0	1263	724.550264989663	13
0	1265	725.473143811696	14
0	1267	727.640488348418	15
0	1272	730.110946756562	16
0	1274	731.503300242865	17
0	1276	734.271009295785	18
0	1278	737.114840159338	19
0	1280	737.137251509974	20
0	1284	738.787035255739	21
0	1286	741.873951549615	22
0	1288	743.570947422867	23
0	1290	744.606570953497	24
0	1292	744.638033954668	25
0	1295	745.608952415151	26
0	1297	747.143201333323	27
0	1299	748.089904332234	28
0	1301	749.085468346844	29
0	1306	753.703760109038	30
0	1308	755.719431179083	31
0	1310	755.823695062006	32
0	1313	757.840365932739	33
0	1315	760.217053088978	34
0	1317	763.170475882973	35
0	1319	767.391685624389	36
0	1323	768.173358655499	36
0	1326	768.597322792389	36
0	1330	771.751031916493	35
0	1336	773.403431017843	32
0	1338	774.734979200206	33
0	1340	776.127626295006	34
0	1342	776.163610853189	35
0	1344	776.997572408073	36
0	1346	777.535393824831	37
0	1348	777.813774618312	38
0	1355	781.657046275814	34
0	1365	789.546560524094	32
0	1367	790.580249628024	33
0	1369	791.098884932342	34
0	1376	794.733633588583	31
0	1379	795.797334690402	31
0	1392	808.19286744104	27
0	1394	808.424729586846	28
0	1398	810.66378798166	27
0	1400	810.953961689426	28
0	1403	812.537921866726	28
0	1406	812.796342126774	28
0	1409	813.525761667385	28
0	1413	813.878817360942	29
0	1415	817.200895236352	30
0	1420	819.371051271465	29
0	1427	821.890196183303	25
0	1433	825.885275015729	24
0	1435	826.182595596246	25
0	1437	827.907602523231	26
0	1439	828.966715792909	27
0	1443	831.820937708715	27
0	1446	832.608797493683	27
0	1450	834.793985549553	26
0	1453	836.419946771119	26
0	1456	837.322678110284	26
0	1458	837.360780329095	27
0	1460	839.599181251238	28
0	1462	839.858542554774	29
0	1465	842.191565799868	29
0	1469	844.434878008294	28
0	1471	844.519166734478	29
0	1473	845.359324378871	30
0	1475	846.733706483722	31
0	1479	847.03704740993	30
0	1481	848.129963765921	31
0	1485	849.61405516912	30
0	1493	855.738289076306	25
0	1497	859.478776424908	26
0	1502	861.239441463425	25
0	1506	861.835370367876	24
0	1518	870.427144030476	18
0	1523	873.639908237017	18
0	1525	875.242186961806	19
0	1527	875.296932270453	20
0	1529	876.186827324658	21
0	1531	878.039290818474	22
0	1535	878.306922031811	23
0	1537	879.832056408779	24
0	1542	883.045534229178	25
0	1547	886.459881601945	26
0	1551	889.560575796311	27
0	1553	891.123806174144	28
0	1557	892.575720798908	29
0	1559	893.85867541212	30
0	1563	895.761591826924	31
0	1566	899.052180741186	32
0	1571	900.844412897846	33
0	1574	905.252291785723	34
0	1576	907.868168662024	35
0	1578	910.514988522386	36
0	1581	912.967235797976	37
0	1585	914.629765738083	38
0	1587	919.997706935579	39
0	1592	926.645793111857	40
0	1594	928.356308702303	41
0	1596	928.57498071587	42
0	1598	929.639819400257	43
0	1601	930.314940386998	44
0	1603	932.118596918373	45
0	1609	934.793174956632	46
0	1611	936.414764053601	47
0	1621	942.909409289599	41
0	1625	943.379589045277	40
0	1627	944.18166590636	41
0	1633	946.511269134257	38
0	1639	951.540926399432	35
0	1650	954.49921674659	27
0	1654	957.04892960735	28
0	1656	959.63600714136	29
0	1658	963.582537401672	30
0	1660	967.997131028462	31
0	1665	970.308911274182	30
0	1667	970.45722455775	31
0	1671	972.41540635706	30
0	1673	973.638088950202	31
0	1678	975.15318390252	29
0	1682	978.171832852759	28
0	1684	979.604208753191	29
0	1689	982.86053752844	27
0	1694	986.229799350233	25
0	1698	987.105764037062	24
0	1701	988.566298027107	24
0	1706	992.055512395185	22
0	1713	994.526979281562	18
0	1715	994.951662400398	19
0	1719	997.85777202899	18
0	1723	998.828336084874	17
0	1727	1003.566104117524	18
0	1729	1005.236388710498	19
0	1732	1008.177979590248	20
0	1735	1010.866825156856	20
0	1739	1011.160368256824	21
0	1741	1011.212418265947	22
0	1745	1013.984624169292	23
0	1747	1014.618461162964	24
0	1752	1020.09802990138	25
0	1756	1022.164517820836	26
0	1760	1023.270512360608	27
0	1767	1031.371006839981	28
0	1774	1033.524083664254	29
0	1780	1036.582199249855	29
0	1787	1037.757066079196	25
0	1789	1037.959745909673	26
0	1792	1038.769653318676	26
0	1797	1042.134912808706	24
0	1803	1046.216610424283	21
0	1809	1046.802982286085	18
0	1812	1047.39632451186	18
0	1817	1048.857399504577	18
0	1819	1048.972243570589	19
0	1821	1049.31552587065	20
0	1825	1053.286779502061	20
0	1828	1053.6044342725	20
0	1830	1054.102127532459	21
0	1837	1056.594081563028	17
0	1843	1058.798367488812	16
0	1845	1060.245092453043	17
0	1847	1061.505461793393	18
0	1849	1061.599523751489	19
0	1851	1062.299640188174	20
0	1853	1062.700741400565	21
0	1855	1065.956602044116	22
0	1858	1067.35210947191	23
0	1868	1070.399143204788	23
0	1870	1070.85896499673	24
0	1876	1073.823182264884	25
0	1880	1075.281299497299	26
0	1885	1080.280284340385	27
0	1888	1084.242585922362	28
0	1896	1090.514190591674	29
0	1898	1091.892470115246	30
0	1900	1091.986425489652	31
0	1902	1094.057520613546	32
0	1904	1094.530942863314	33
0	1911	1097.108142954036	34
0	1913	1098.120396103965	35
0	1915	1098.932879478345	36
0	1917	1102.387031369945	37
0	1919	1105.607810242929	38
0	1921	1107.991401639957	39
0	1923	1108.18654436779	40
0	1925	1108.483010119272	41
0	1927	1108.647859776239	42
0	1932	1109.919308006144	43
0	1934	1110.977803884733	44
0	1936	1112.714903611466	45
0	1938	1115.361564483081	46
0	1940	1116.088403793973	47
0	1942	1116.569123510654	48
0	1944	1116.703100351647	49
0	1946	1118.13247698247	50
0	1950	1122.202798745975	51
0	1952	1122.728519730389	52
0	1954	1123.064165301447	53
0	1961	1125.514501736574	49
0	1964	1126.356234806674	49
0	1967	1126.732030356643	49
0	1971	1129.745734564369	48
0	1974	1130.380534688099	48
0	1977	1132.306842635553	48
0	1981	1133.761571374998	47
0	1985	1136.218634004633	46
0	1989	1136.565927521073	45
0	1992	1136.74700465722	45
0	1995	1138.02483711822	45
0	1997	1138.139846484839	46
0	1999	1138.543233952564	47
0	2001	1139.262327822012	48
0	2003	1139.349833848156	49
0	2006	1140.061056296397	49
0	2008	1141.074549719348	50
0	2013	1144.36405485807	48
0	2018	1149.559965046874	48
0	2021	1150.274274138408	49
0	2024	1151.62217482512	49
0	2029	1153.824565451906	49
0	2031	1154.765490063379	50
0	2033	1155.721257294295	51
0	2039	1163.644806032032	52
0	2041	1164.109335939857	53
0	2044	1166.431125055522	54
0	2046	1166.880319255263	55
0	2048	1167.591890695002	56
0	2053	1171.261266331348	57
0	2057	1175.37999519429	58
0	2059	1176.865590213231	59
0	2063	1181.132676744288	60
0	2065	1181.957983830998	61
0	2067	1182.306625172986	62
0	2069	1182.534193250086	63
0	2073	1183.679690606842	64
0	2075	1183.803885843844	65
0	2077	1184.720171637718	66
0	2079	1185.013234028593	67
0	2081	1186.349360864118	68
0	2086	1191.412908256603	69
0	2088	1195.019535826815	70
0	2093	1196.164329424353	71
0	2095	1199.504696049763	72
0	2098	1202.09524488158	73
0	2105	1207.349728587768	74
0	2107	1207.701834383405	75
0	2109	1208.640474950521	76
0	2111	1213.355670615169	77
0	2113	1215.864768440606	78
0	2117	1220.5700430715	79
0	2119	1224.346853580529	80
0	2123	1226.486788413115	81
0	2125	1228.352895684115	82
0	2127	1229.004157119854	83
0	2131	1233.628166157506	84
0	2133	1234.196625999835	85
0	2136	1235.297464379051	86
0	2138	1235.685384485394	87
0	2144	1246.213100628566	88
0	2146	1246.459348259568	89
0	2148	1247.252458179585	90
0	2150	1248.234024511536	91
0	2152	1248.283581186512	92
0	2154	1248.482385349269	93
0	2156	1249.236249692844	94
0	2158	1249.788674349838	95
0	2160	1249.938933866365	96
0	2163	1252.046060068673	97
0	2169	1259.222581250497	98
0	2171	1260.389576389155	99
0	2173	1261.487834340217	100
0	2182	1268.394713559932	98
0	2184	1269.29865106285	99
0	2191	1271.9826483449	97
0	2193	1272.226420704924	98
0	2195	1272.304769583154	99
0	2202	1273.86045169043	96
0	2205	1274.428123734186	96
0	2207	1275.591770371992	97
0	2213	1278.012282199385	94
0	2218	1279.103335627672	94
0	2220	1279.185723098323	95
0	2222	1279.801201565704	96
0	2224	1280.558622986985	97
0	2230	1285.966167205531	95
0	2233	1287.832620492101	95
0	2236	1288.534341387975	95
0	2240	1289.401949448179	94
0	2243	1290.186245652342	94
0	2249	1294.072418018669	91
0	2252	1295.86781307552	91
0	2254	1297.094059060764	92
0	2260	1299.457512441521	89
0	2264	1300.999721380257	88
0	2266	1301.233020416095	89
0	2272	1303.550510474818	86
0	2275	1304.500447810607	86
0	2280	1307.648918173347	84
0	2284	1308.452273305621	83
0	2289	1311.097850235353	84
0	2291	1311.890922774509	85
0	2293	1311.897120521836	86
0	2295	1313.221167317157	87
0	2297	1313.404017808553	88
0	2299	1313.579320949189	89
0	2303	1314.633529167375	88
0	2306	1318.792050308205	88
0	2312	1321.235720842425	88
0	2314	1321.530880839251	89
0	2316	1321.624380925025	90
0	2319	1322.850376408155	90
0	2322	1323.856788787035	90
0	2327	1332.7670737197	90
0	2329	1335.828375116537	91
0	2331	1337.527069976409	92
0	2333	1338.623509202458	93
0	2337	1343.278901298125	94
0	2339	1343.66955416852	95
0	2343	1348.29563171566	96
0	2345	1348.829346074632	97
0	2348	1351.335619274706	97
0	2353	1353.838738425564	95
0	2356	1355.52718803555	95
0	2363	1358.59892013793	96
0	2370	1362.241922912363	93
0	2376	1366.717679258122	93
0	2379	1367.145174037423	93
0	2381	1367.459026649732	94
0	2384	1373.169284824655	94
0	2386	1373.466302245405	95
0	2388	1374.661450143248	96
0	2392	1375.017772716422	95
0	2395	1375.834293770132	95
0	2397	1377.758667632923	96
0	2401	1379.30612243077	95
0	2403	1380.228855290127	96
0	2405	1380.502192389605	97
0	2407	1380.680856386017	98
0	2421	1391.593489422615	89
0	2423	1393.011661377341	90
0	2425	1393.900996357998	91
0	2427	1393.909304577285	92
0	2438	1399.120993535847	88
0	2440	1400.181590466981	89
0	2444	1402.418462629077	88
0	2446	1402.479621678729	89
0	2451	1404.237637584132	87
0	2453	1405.408320789638	88
0	2461	1410.821736894862	85
0	2463	1410.993914190612	86
0	2467	1411.4113372655	86
0	2473	1418.804104757535	83
0	2477	1420.812944773673	84
0	2481	1425.44666917205	85
0	2485	1428.919912911469	86
0	2490	1431.859288224033	87
0	2492	1433.457955861924	88
0	2496	1436.143229852442	89
0	2499	1436.85217022512	90
0	2503	1439.402727681251	89
0	2505	1439.482483649479	90
0	2509	1441.425377566874	89
0	2511	1441.79456000859	90
0	2514	1443.714433954693	90
0	2519	1445.99616781136	88
0	2522	1446.725449955398	88
0	2531	1450.289819091439	82
0	2533	1450.429765820168	83
0	2537	1453.546437301518	82
0	2540	1457.498598145281	82
0	2542	1458.53843080616	83
0	2546	1459.968648593976	82
0	2552	1463.036128170613	79
0	2555	1464.289665778883	79
0	2557	1465.073796051187	80
0	2562	1467.090658060798	78
0	2564	1469.078956520848	79
0	2570	1471.952358748139	80
0	2572	1472.161281288854	81
0	2574	1479.962601986125	82
0	2578	1481.943250674229	83
0	2584	1486.120840376838	84
0	2588	1486.801793432872	85
0	2590	1487.48810478547	86
0	2592	1489.122232845552	87
0	2595	1495.052909401562	88
0	2600	1498.553010412607	89
0	2602	1499.004869208197	90
0	2606	1500.587981363291	91
0	2609	1501.521036019798	92
0	2612	1501.778101652076	93
0	2615	1502.401308943601	94
0	2617	1502.491771254036	95
0	2621	1505.060569163336	94
0	2623	1505.637808497323	95
0	2626	1507.023188324398	95
0	2630	1508.403014278208	94
0	2632	1509.410197531289	95
0	2636	1511.323976966274	94
0	2639	1512.626648453433	94
0	2642	1515.023699860222	94
0	2644	1515.209670272494	95
0	2646	1515.60142743198	96
0	2651	1517.733918470214	96
0	2655	1520.640004325521	96
0	2660	1521.553174921068	94
0	2663	1522.809657518182	94
0	2669	1524.614573643273	93
0	2671	1527.891275886608	94
0	2673	1528.780675574747	95
0	2675	1531.656682060526	96
0	2677	1533.938535401511	97
0	2679	1536.462290714722	98
0	2681	1538.609297959903	99
0	2683	1540.143760295056	100
0	2685	1540.177031362796	101
0	2689	1541.549535650907	101
0	2691	1542.097341997544	102
0	2697	1546.592623300602	99
0	2700	1547.5052438201	99
0	2707	1550.332924636018	95
0	2712	1551.37023824845	93
0	2721	1558.055014777069	90
0	2725	1559.22524285964	89
0	2727	1561.48002254428	90
0	2733	1562.742621117123	87
0	2737	1566.3624565643	86
0	2740	1567.262407055695	86
0	2749	1571.83876870076	80
0	2751	1572.378241730796	81
0	2753	1572.97156108801	82
0	2762	1576.659032615801	76
0	2764	1578.317250172093	77
0	2766	1578.527158439557	78
0	2769	1582.521772610964	78
0	2771	1582.828340346633	79
0	2773	1583.227912530014	80
0	2777	1583.883705315933	79
0	2786	1588.872848418783	76
0	2788	1589.19592563361	77
0	2794	1590.909449567397	74
0	2797	1593.887633854779	74
0	2805	1596.796156442719	72
0	2807	1598.365100922797	73
0	2809	1598.3882564424	74
0	2811	1599.319109835831	75
0	2820	1605.122109386596	72
0	2822	1606.370389443766	73
0	2827	1608.883542107745	71
0	2830	1611.585014094162	71
0	2835	1614.000811500845	71
0	2837	1615.040694068757	72
0	2839	1615.646398199772	73
0	2841	1619.258504551941	74
0	2843	1620.72496364861	75
0	2845	1624.423428742124	76
0	2847	1626.257445446903	77
0	2852	1628.339085041193	76
0	2858	1629.374437215026	77
0	2860	1629.965647433517	78
0	2862	1632.841343699718	79
0	2864	1634.285247435098	80
0	2866	1634.427614302448	81
0	2868	1635.392940481635	82
0	2870	1636.11776311028	83
0	2875	1638.990284411406	84
0	2877	1640.898495632933	85
0	2879	1641.44691472697	86
0	2882	1642.341788604755	87
0	2884	1642.462544138167	88
0	2886	1645.347716080791	89
0	2888	1648.576627558919	90
0	2892	1651.867816798388	91
0	2897	1655.187981573428	92
0	2900	1660.943683590374	93
0	2904	1666.412406405758	94
0	2906	1667.746208368813	95
0	2908	1671.373271763491	96
0	2910	1673.160814833702	97
0	2912	1675.539364396507	98
0	2914	1676.785498244001	99
0	2916	1677.424423674402	100
0	2919	1678.741248440789	101
0	2921	1678.77283569623	102
0	2927	1682.521343732358	103
0	2930	1684.082913051048	104
0	2937	1691.062237585869	105
0	2939	1691.911764424807	106
0	2941	1691.923731283737	107
0	2943	1694.736652629612	108
0	2945	1695.534061140861	109
0	2948	1697.595975078354	110
0	2951	1699.164887640168	111
0	2953	1700.07227670749	112
0	2955	1700.089575309968	113
0	2957	1700.118163831377	114
0	2959	1700.365726419899	115
0	2961	1701.351092737932	116
0	2964	1702.352189805287	117
0	2968	1704.90809285848	118
0	2970	1706.92342710123	119
0	2972	1707.047551397569	120
0	2974	1708.217512664204	121
0	2976	1709.433112201433	122
0	2978	1709.961663780131	123
0	2980	1710.974387898728	124
0	2982	1711.292689776334	125
0	2984	1711.643706901867	126
0	2986	1712.975216488791	127
0	2988	1713.348364988633	128
0	2993	1718.470408901591	129
0	2995	1720.857657492224	130
0	3000	1723.018353928202	129
0	3002	1723.378255339566	130
0	3006	1724.462050403641	129
0	3010	1726.214552249897	130
0	3016	1728.68874757947	131
0	3019	1729.754142515973	131
0	3022	1730.719189243683	131
0	3025	1731.039448832235	131
0	3032	1733.950303319981	127
0	3037	1734.855296562468	125
0	3039	1735.315903418828	126
0	3043	1736.499834368382	125
0	3045	1737.171992181794	126
0	3048	1738.119981179106	126
0	3054	1739.705769588368	123
0	3058	1740.819065262039	122
0	3061	1741.472187079429	122
0	3068	1744.555840746703	118
0	3073	1748.29075652949	116
0	3079	1749.929696993304	113
0	3082	1751.081021223793	113
0	3086	1753.224432643531	112
0	3090	1755.383596333152	113
0	3094	1758.932697171239	114
0	3097	1761.242703428237	115
0	3099	1763.295009343472	116
0	3103	1765.584344080769	116
0	3105	1766.346433424374	117
0	3108	1768.131708372843	117
0	3110	1768.182017609615	118
0	3112	1769.096737212526	119
0	3117	1772.445041683604	117
0	3119	1772.978806970395	118
0	3124	1776.020265828029	116
0	3127	1778.676525293393	116
0	3132	1782.053722348621	116
0	3134	1786.344869469763	117
0	3136	1788.247496962765	118
0	3141	1789.406139525373	117
0	3144	1791.45404184434	117
0	3146	1791.744377881983	118
0	3150	1793.902671303644	119
0	3153	1797.473993724015	120
0	3155	1798.804670391137	121
0	3157	1799.081075749857	122
0	3159	1799.348892067511	123
0	3162	1800.735442799051	123
0	3166	1803.120277874566	122
0	3168	1803.53384576062	123
0	3171	1804.079363088602	123
0	3174	1805.846127440321	123
0	3176	1805.916730796411	124
0	3179	1807.471621881423	124
0	3183	1809.374237068416	123
0	3191	1813.441521082064	118
0	3193	1814.137796168737	119
0	3196	1815.533322382987	119
0	3198	1815.824005909397	120
0	3201	1817.974680981777	120
0	3203	1818.838045965583	121
0	3205	1820.452816091054	122
0	3207	1821.678124446948	123
0	3218	1829.372838350865	118
0	3223	1832.549039619022	116
0	3227	1833.205569274109	115
0	3234	1837.048502768209	114
0	3236	1837.203802274264	115
0	3240	1840.096037545112	116
0	3242	1840.628786807738	117
0	3246	1844.603484699217	118
0	3248	1844.850291817685	119
0	3250	1844.890286808303	120
0	3253	1845.435951915626	121
0	3255	1846.654229503477	122
0	3257	1847.988179131884	123
0	3259	1847.989515592214	124
0	3262	1849.749414672565	125
0	3264	1851.13871847213	126
0	3269	1851.70533720732	124
0	3275	1854.208230698201	123
0	3279	1857.137729558589	123
0	3281	1857.409634023927	124
0	3284	1859.27226839921	124
0	3286	1859.332540055287	125
0	3297	1864.936684725	117
0	3299	1864.947569085176	118
0	3301	1864.953328449204	119
0	3307	1866.752850298764	116
0	3309	1866.935326918237	117
0	3313	1867.804511038654	116
0	3316	1868.248485899563	116
0	3319	1869.679586346332	116
0	3321	1870.012469896718	117
0	3328	1878.547451739601	113
0	3335	1879.246961723137	112
0	3337	1879.476759174973	113
0	3340	1880.924426368621	113
0	3342	1881.247295398074	114
0	3349	1884.291673657801	110
0	3351	1884.533466151149	111
0	3353	1884.811589698005	112
0	3363	1895.186139243956	107
0	3365	1896.465757711403	108
0	3370	1901.354168554543	109
0	3372	1903.536841274467	110
0	3374	1904.135471359856	111
0	3376	1905.842255794305	112
0	3378	1907.825826224883	113
0	3380	1910.322782421842	114
0	3382	1911.849615440735	115
0	3384	1912.897358058951	116
0	3388	1916.590831521615	117
0	3393	1921.384911014019	118
0	3395	1922.710194445097	119
0	3398	1929.630929880148	120
0	3401	1933.229154579634	121
0	3414	1941.800697131703	111
0	3417	1943.501901602376	111
0	3423	1949.323843774973	110
0	3428	1954.571798651812	111
0	3430	1955.258780843762	112
0	3432	1955.474819055429	113
0	3440	1962.710826816774	114
0	3442	1965.768288346316	115
0	3444	1965.976249254751	116
0	3448	1966.898815382514	117
0	3452	1968.293232619657	118
0	3459	1972.60007066421	119
0	3461	1977.372696586974	120
0	3463	1977.435617067901	121
0	3467	1979.726493889678	122
0	3469	1980.844750192806	123
0	3473	1982.188642653093	124
0	3475	1983.322699626074	125
0	3477	1983.555367540581	126
0	3479	1985.415324481278	127
0	3483	1991.297770018769	128
0	3485	1995.717631445475	129
0	3487	1996.305623441104	130
0	3489	1997.46098189853	131
1	0	0	0
1	2	3.584232943272	0
1	6	4.877745395585	1
1	8	5.65919763807	2
1	10	8.879959561233	3
1	13	9.835495066951	4
1	15	12.203502296372	5
1	16	12.622876521001	5
1	17	12.778941235857	4
1	19	12.935698549633	4
1	20	13.211584684538	4
1	21	13.222258140893	3
1	22	13.707481430263	2
1	24	14.29559289866	2
1	25	14.405402950932	2
1	26	14.505428391136	1
1	27	14.550126745907	0
1	29	15.967815214914	0
1	31	15.974442933326	1
1	32	16.225342718403	1
1	33	17.920150766451	0
1	37	18.373317555454	0
1	39	18.684311244031	1
1	41	19.074987871291	2
1	43	19.628442841396	3
1	46	20.623235712582	4
1	47	20.822079266107	4
1	48	21.719439877601	3
1	49	24.294590300616	2
1	50	25.352669539845	1
1	51	28.309851157814	0
1	53	29.118358540673	0
1	54	29.356434149683	0
1	56	29.839657243977	0
1	58	30.57434803716	1
1	59	31.096732770078	1
1	63	33.222296235893	1
1	65	33.873632738304	2
1	67	35.697760833181	2
1	68	35.933106626032	1
1	72	38.183342212246	0
1	74	39.304692797636	0
1	76	39.374079438797	1
1	77	40.071591021923	1
1	78	40.239446100384	0
1	80	43.251607646246	0
1	81	43.483688042315	0
1	83	48.385711725418	0
1	85	49.418091294217	1
1	86	50.250255762863	1
1	87	51.550765897642	0
1	89	52.29199956056	0
1	91	52.405491253006	1
1	92	53.660632404178	1
1	93	54.636465621485	0
1	95	56.032673952598	0
1	97	56.192162085848	1
1	99	56.432978806908	2
1	103	61.193637559521	2
1	105	61.461268979024	2
1	106	61.997229209717	2
1	108	63.421973371523	2
1	109	63.804940161112	2
1	111	64.964635155544	2
1	112	65.757879654163	2
1	114	65.86230153173	2
1	115	66.049993109425	2
1	116	66.630041953831	1
1	118	67.120232681753	1
1	119	67.616707844249	1
1	120	69.118858015711	0
1	125	72.106637867249	0
1	127	72.670350880524	1
1	129	72.785984426142	2
1	130	74.056158084686	2
1	132	74.070544171371	2
1	133	74.843534225872	2
1	135	76.188441515089	2
1	136	76.26890414111	2
1	137	76.48983195073	1
1	138	76.812414003116	0
1	140	78.429838591274	0
1	141	79.274877852116	0
1	143	82.054287361064	0
1	144	82.082509585185	0
1	151	89.682681769504	0
1	153	89.816152149253	1
1	155	95.580018392136	1
1	156	96.360853809785	0
1	158	96.878614156041	0
1	159	97.374944513308	0
1	163	107.046964538003	0
1	168	108.531724731437	1
1	170	108.998349998564	2
1	172	111.030049131721	2
1	173	112.184637806077	1
1	174	112.235629560204	0
1	176	113.386609270137	0
1	178	115.717328713043	1
1	179	115.759574683939	1
1	180	115.817645431805	0
1	182	119.172868375317	0
1	183	119.482880126433	0
1	185	120.535140530828	0
1	186	122.555027273977	0
1	188	123.711559750306	0
1	189	124.285416392145	0
1	191	124.942353264604	0
1	192	125.048449974886	0
1	194	126.613759975135	0
1	196	126.945371289441	1
1	197	127.974100722894	1
1	198	128.284828783491	0
1	200	128.922500811806	0
1	202	129.62300552831	1
1	203	130.308847502517	1
1	205	130.636980465329	1
1	206	130.932964696901	1
1	207	131.267453880509	0
1	209	131.498385623887	0
1	213	132.713953708236	0
1	215	133.196339312026	0
1	217	133.285607236794	1
1	218	134.612973436792	1
1	219	135.289668815801	0
1	221	135.36918227249	0
1	222	136.418061022912	0
1	224	140.379678318667	0
1	226	140.761293826944	1
1	227	140.783718802425	1
1	229	141.614208479606	1
1	230	141.712467114529	1
1	232	142.82846091952	1
1	233	142.982749597447	1
1	235	143.066874838867	1
1	236	143.735633620606	1
1	237	144.053314896473	0
1	239	147.034032950678	0
1	241	147.616145684715	1
1	242	147.828567260153	1
1	244	148.821640497516	1
1	245	149.32760761835	1
1	246	149.431720069455	0
1	250	153.825139539614	0
1	252	157.552321250528	1
1	254	159.644602392064	1
1	255	159.951958752193	0
1	257	160.304386239426	0
1	259	160.45710598017	1
1	260	160.531361048422	1
1	261	161.588716879465	0
1	263	164.446918717591	0
1	264	164.807257792152	0
1	268	173.942050100402	0
1	270	175.328446638792	0
1	272	177.543846351532	0
1	274	177.939945086901	1
1	276	179.604529009947	2
1	277	179.866861128102	2
1	278	180.117780100392	1
1	279	180.401287586311	0
1	281	181.595533038906	0
1	283	183.813986362426	1
1	285	184.208101485452	2
1	286	184.789400390414	2
1	287	185.08334672141	1
1	291	188.351104946	1
1	293	188.99796934879	2
1	295	189.102214663797	3
1	299	190.326719058725	4
1	302	191.460860256007	5
1	306	194.231760744942	6
1	309	195.796130404331	7
1	314	197.636195143861	7
1	316	198.408163409078	7
1	318	199.03467504525	8
1	319	199.191499407389	8
1	323	200.784585945194	8
1	326	201.588868186519	9
1	328	201.725763738545	10
1	330	202.471468843233	11
1	332	202.659533270206	12
1	333	203.51105939579	12
1	334	203.81824594948	11
1	336	204.559501645401	11
1	338	204.740741481236	12
1	339	207.937928086272	12
1	341	209.616247883642	12
1	342	211.106512819316	12
1	346	212.424548573387	12
1	348	215.06311292979	13
1	350	215.557843949221	13
1	351	215.646416077575	12
1	353	215.887773424002	12
1	354	217.125927766492	12
1	356	217.216623039396	12
1	360	217.576110519174	12
1	361	217.840900831158	11
1	363	217.925344933694	11
1	365	218.130523758338	12
1	367	218.849491431531	13
1	368	219.691301983143	13
1	370	221.080573208884	13
1	371	221.564251149947	13
1	372	221.703922147616	12
1	373	222.090677325309	11
1	374	223.081308152571	10
1	381	229.445141821478	10
1	383	230.349218855532	11
1	385	231.852376522892	12
1	387	232.872068653725	13
1	390	234.049801613415	14
1	392	234.599234583983	15
1	393	237.043815979976	15
1	395	237.530352233501	15
1	397	237.609106193725	16
1	398	237.669582565022	16
1	399	238.728076891692	15
1	401	238.813659919945	15
1	403	241.942205274488	16
1	404	241.957476238804	16
1	405	242.032846239366	15
1	406	242.052697136632	14
1	407	242.941115198636	13
1	408	243.948589621561	12
1	409	245.513364514791	11
1	410	245.896149307013	10
1	411	246.097010285253	9
1	413	246.971936578837	9
1	415	248.244890597867	10
1	416	248.950428910853	10
1	417	250.962956202291	9
1	418	251.242491927847	8
1	419	251.627058342057	7
1	421	254.885024300949	7
1	423	255.700124973905	8
1	424	257.007156247385	8
1	426	257.362470216173	8
1	428	257.667080213683	9
1	430	259.737824229715	10
1	431	260.059929876465	10
1	432	260.192131514237	9
1	433	260.795762849505	8
1	434	261.226123202222	7
1	436	261.596679060003	7
1	438	261.96092049185	8
1	440	262.026766981496	9
1	441	262.252877363088	9
1	443	262.332827216139	9
1	445	262.893676226384	10
1	447	263.409526121893	11
1	448	263.456174340863	11
1	449	263.937396980143	10
1	450	264.34072190997	9
1	451	265.848819909684	8
1	453	266.568742926032	8
1	455	266.903319755124	9
1	456	267.071055781986	9
1	457	267.684742374507	8
1	459	267.806279771072	8
1	460	269.230091988232	8
1	462	269.874116567314	8
1	463	270.647138075499	8
1	464	270.903680176332	7
1	465	272.61568040144	6
1	467	273.649460666234	6
1	468	275.079539147966	6
1	470	276.843675043769	6
1	472	277.72133483359	7
1	473	279.409819092837	7
1	474	281.427900663647	6
1	475	281.534241404294	5
1	477	282.999567594529	5
1	478	283.603097820849	5
1	480	284.269676276122	5
1	481	284.336826596183	5
1	482	286.518712647514	4
1	483	286.949194046603	3
1	485	289.256227732575	3
1	487	290.022050173347	4
1	489	290.120186813296	5
1	491	290.913927752572	6
1	492	291.31521933221	6
1	493	291.369114363903	5
1	494	291.535820375777	4
1	495	291.748679030249	3
1	496	291.771697125671	2
1	498	291.87206717395	2
1	500	291.876048819	3
1	501	292.122557620235	3
1	503	292.159067783529	3
1	505	292.258268287948	4
1	507	293.276500625488	5
1	508	293.926234643063	5
1	509	294.666092053685	4
1	510	294.724075527845	3
1	511	294.924394973338	2
1	512	295.747668680884	1
1	514	296.007418959353	1
1	518	297.831759824228	2
1	520	298.203204268533	3
1	523	299.871168477095	4
1	524	299.91399088501	4
1	525	300.045231541943	3
1	526	300.416431026891	2
1	530	303.573595110789	1
1	531	303.737663641292	0
1	533	305.84485435319	0
1	534	307.027519956455	0
1	536	307.916735454108	0
1	537	308.088509115088	0
1	539	308.623672376691	0
1	540	310.678916833629	0
1	542	314.873621112867	0
1	544	315.027470268565	1
1	545	315.684037509933	1
1	546	316.14254065298	0
1	548	316.973900486355	0
1	549	317.306182933206	0
1	551	322.491949513431	0
1	552	325.030900199638	0
1	554	325.19652616184	0
1	555	325.70737997349	0
1	557	327.99013065456	0
1	558	328.518034319417	0
1	560	329.694084535834	0
1	561	330.394892401085	0
1	563	331.935206160533	0
1	565	334.325448044475	1
1	566	335.345631962276	1
1	568	336.697245441772	1
1	569	336.873349095424	1
1	573	340.479063620766	1
1	575	346.271973529237	2
1	577	346.784119408641	3
1	580	347.577444921223	4
1	582	348.240201308315	5
1	584	348.563290643685	6
1	586	349.017386700627	7
1	588	349.236813254682	8
1	589	350.925435967789	8
1	590	351.632946146954	7
1	591	351.717136226474	6
1	593	351.771042110256	6
1	594	352.2947995322	6
1	595	352.479198485024	5
1	599	353.635982739744	4
1	600	355.854640244942	3
1	601	356.155780533856	2
1	602	358.308537477087	1
1	603	359.286086611701	0
1	605	359.730346164703	0
1	606	362.485646142379	0
1	608	363.764184285806	0
1	609	365.10771645971	0
1	611	371.695542569217	0
1	619	378.381480597369	1
1	622	380.571008254379	2
1	625	383.577419636419	3
1	627	384.241177474346	4
1	629	385.033247656913	5
1	631	386.766174516132	6
1	636	390.687144932687	7
1	638	392.733255818306	8
1	640	392.902992731872	9
1	642	395.039359932725	10
1	644	395.139647644682	11
1	646	395.567616954037	12
1	649	396.937734870905	13
1	650	397.236612566893	13
1	651	397.336719856526	12
1	652	397.366503399875	11
1	653	397.414404044103	10
1	654	398.54244560107	9
1	655	398.707273701457	8
1	656	398.964919755656	7
1	657	399.225308968201	6
1	661	401.337218133341	6
1	663	406.657928098343	7
1	665	406.753320401468	8
1	674	414.951163483629	9
1	676	416.449684069308	10
1	678	418.678136893735	11
1	680	419.028364081435	12
1	682	419.632321248922	13
1	684	419.826704029673	14
1	686	420.388311572042	15
1	690	421.150022348956	16
1	696	428.071064817708	17
1	701	432.828434522293	18
1	703	436.49340310781	19
1	705	436.679189477234	20
1	707	439.308566427168	21
1	712	443.527053463104	22
1	715	444.864581072134	23
1	717	447.574606654172	24
1	719	450.424563848003	25
1	721	450.719114809852	26
1	723	453.046910365269	27
1	726	454.408354744731	28
1	728	454.851816559122	29
1	730	456.448981296985	30
1	732	456.699213234008	31
1	736	457.161215342003	32
1	739	457.518780970473	33
1	741	458.766020333842	34
1	743	459.698760788785	35
1	745	460.160141774876	36
1	747	461.498053716119	37
1	749	462.699727992927	38
1	751	464.53017103383	39
1	753	464.669221883342	40
1	755	466.421876097832	41
1	760	468.444548572781	42
1	762	469.246318650188	43
1	764	470.006964294637	43
1	765	470.081490313499	42
1	767	471.063014606218	42
1	769	471.066883475624	43
1	770	471.486866822605	43
1	771	471.859973862795	42
1	772	472.925798208082	41
1	773	473.020511328878	40
1	775	473.228372758187	40
1	776	473.433506721536	40
1	777	474.949056402684	39
1	778	475.047792201743	38
1	780	476.079355417147	38
1	782	477.594763460846	39
1	783	478.308366413167	39
1	785	479.018749678111	39
1	786	479.593256988661	39
1	787	480.332182613073	38
1	789	480.591941505586	38
1	791	480.8903221891	39
1	792	483.314038616845	39
1	793	484.053181772891	38
1	794	484.277057098854	37
1	795	484.423001885605	36
1	797	484.89276412155	36
1	798	485.219428335609	36
1	800	486.183211268268	36
1	802	486.436968771006	37
1	804	487.978747187854	38
1	805	488.000453067023	38
1	806	489.566115027988	37
1	807	490.439442836672	36
1	808	490.687361723225	35
1	810	491.025935777482	35
1	811	491.371566595942	35
1	813	491.957176133128	35
1	814	492.262080672453	35
1	816	492.525572275122	35
1	817	492.749974205879	35
1	818	496.215321837453	34
1	819	496.550518672858	33
1	820	498.106492736491	32
1	822	498.20813096274	32
1	824	501.120811521201	33
1	826	501.868008364569	34
1	827	502.703083028325	34
1	828	505.712637421347	33
1	829	506.051697878221	32
1	830	506.256795528924	31
1	832	506.933416635831	31
1	833	506.962495878715	31
1	834	507.983944781035	30
1	835	509.07903469165	29
1	837	509.466139009093	29
1	838	509.726415875206	29
1	840	510.765668366083	29
1	841	511.925576719206	29
1	842	512.236715535852	28
1	844	512.744244866059	28
1	845	512.94152181758	28
1	847	512.976767918765	28
1	848	514.662272181812	28
1	849	514.664848241859	27
1	850	514.711151314134	26
1	852	514.760560596363	26
1	853	515.829944209528	26
1	854	516.001565050557	25
1	855	516.96650210006	24
1	856	517.058839226872	23
1	858	517.088544922023	23
1	859	517.104362779413	23
1	860	517.385071782484	22
1	861	518.002506518472	21
1	862	518.767005370303	20
1	863	519.520730233173	19
1	864	519.731140166567	18
1	869	521.114422524235	18
1	870	522.926259082127	18
1	871	523.788194379013	17
1	873	523.8311822958	17
1	875	523.948202320891	18
1	876	525.211957570284	18
1	877	527.162227216597	17
1	878	527.657811203957	16
1	879	528.803181532278	15
1	880	528.804512362841	14
1	882	529.552764427667	14
1	883	529.592620381525	14
1	884	530.302578991582	13
1	886	530.39972190278	13
1	888	530.47259172264	14
1	890	530.877106304859	15
1	892	532.610308370478	16
1	894	532.876027227262	17
1	900	534.788121760794	18
1	904	535.788742940838	19
1	907	538.112714278704	20
1	911	539.721071115786	21
1	914	540.853495396255	22
1	916	541.928628205412	23
1	918	542.707741311727	24
1	921	542.831274667778	25
1	923	543.827543038192	26
1	925	544.236735260061	27
1	927	547.6574242148	27
1	928	547.755658424342	26
1	929	548.164290831039	25
1	930	548.460682811374	24
1	932	550.938590576925	24
1	934	551.726927208963	25
1	935	552.330018659624	25
1	937	552.397443668965	25
1	939	552.553276618422	26
1	940	553.279337685663	26
1	944	553.711080215328	26
1	946	555.145299953673	26
1	948	555.489152264825	26
1	950	555.962490871052	27
1	951	557.124272673365	27
1	952	558.620136561709	26
1	953	558.769481408721	25
1	954	560.696158205661	24
1	955	560.891605907988	23
1	957	562.932197128324	23
1	958	563.00209373096	23
1	960	563.101482486644	23
1	961	564.568172491165	23
1	962	565.158134844812	22
1	963	565.394946700479	21
1	965	565.636289918093	21
1	967	566.838888470522	22
1	968	569.092302066383	22
1	969	569.689996069734	21
1	970	569.758830124235	20
1	971	569.917942495801	19
1	973	570.02510369023	19
1	974	570.057173378905	19
1	975	571.142711218671	18
1	976	571.392326215689	17
1	978	571.894373506472	17
1	979	573.290360869257	17
1	983	573.867571223167	17
1	985	574.598670085442	18
1	987	576.10803592234	18
1	988	576.527973215131	17
1	989	577.626886500862	16
1	990	578.181488431163	15
1	992	578.980025158756	15
1	993	579.232564030065	15
1	994	579.661047153542	14
1	995	579.852002153606	13
1	997	580.473436114371	13
1	999	580.734922543008	14
1	1000	581.201103117284	14
1	1001	581.366758224435	13
1	1002	581.983499759577	12
1	1003	582.257609086717	11
1	1005	583.22804837188	11
1	1009	587.45334877581	12
1	1011	589.688779004269	13
1	1013	589.998773304372	14
1	1015	592.048988096943	15
1	1017	592.645012194997	16
1	1019	597.164980352571	17
1	1021	599.779130167359	17
1	1022	599.809081749789	16
1	1023	600.290566056872	15
1	1024	600.452989425626	14
1	1026	601.268708143723	14
1	1027	602.143382567809	14
1	1028	602.449286725242	13
1	1029	602.652370139922	12
1	1030	606.990265932162	11
1	1031	607.018045592772	10
1	1033	607.296112039301	10
1	1034	607.672882188284	10
1	1035	607.711182938102	9
1	1039	610.535398167233	9
1	1041	610.587309417737	10
1	1043	610.668741952512	11
1	1045	611.10896311592	11
1	1046	611.457603730699	10
1	1053	615.427601242647	9
1	1055	615.521306533332	9
1	1060	617.772002038213	10
1	1061	618.007462534521	10
1	1062	618.922226696117	9
1	1064	620.259734991649	9
1	1066	620.287847679504	10
1	1067	621.003200426523	10
1	1068	621.478054648264	9
1	1069	624.454450439231	8
1	1070	624.519164173637	7
1	1075	630.575984837694	7
1	1077	631.154605247747	8
1	1078	631.57072547435	8
1	1079	632.096866749691	7
1	1080	633.06176988916	6
1	1082	633.248008145315	6
1	1084	633.586881672642	7
1	1085	633.89602276608	7
1	1087	634.618460210097	7
1	1088	634.887946089001	7
1	1089	635.245169376417	6
1	1090	636.954555751162	5
1	1091	637.407626727607	4
1	1093	637.571093694478	4
1	1095	638.779183243408	5
1	1097	640.231050648287	6
1	1099	640.376925473433	7
1	1101	641.42998688878	8
1	1102	641.565020327841	8
1	1103	642.187535294109	7
1	1104	642.411840035981	6
1	1105	642.592786888524	5
1	1107	644.997529637507	5
1	1109	645.301154740497	6
1	1111	645.480533320195	7
1	1113	645.499933604304	8
1	1115	645.70452123731	9
1	1117	645.73691785977	10
1	1118	645.773142150509	10
1	1119	645.898319295515	9
1	1120	646.513628243076	8
1	1121	647.189585436142	7
1	1122	647.519223500783	6
1	1123	649.269241797935	5
1	1127	650.453502823926	5
1	1129	650.902001516008	6
1	1136	664.840123454586	7
1	1138	665.308158636306	8
1	1140	667.313389197769	9
1	1142	668.237550399252	10
1	1144	668.890951787705	11
1	1146	671.720665789474	12
1	1148	671.969735200662	13
1	1151	675.41806095943	14
1	1153	676.314198789273	15
1	1155	679.306576797722	16
1	1157	680.663790740624	16
1	1158	680.773705596856	15
1	1160	681.30109262811	15
1	1161	682.046673378026	15
1	1162	682.873530922188	14
1	1166	685.299485501197	14
1	1168	685.665026445653	15
1	1170	686.597921819935	16
1	1172	687.767000188052	17
1	1174	687.984268847855	18
1	1176	688.185249348347	19
1	1178	689.995089155898	19
1	1179	690.713703426916	18
1	1184	692.945723508846	18
1	1185	693.196097964688	18
1	1186	693.315092199956	17
1	1187	693.731038829631	16
1	1189	693.753509096802	16
1	1190	693.947599214319	16
1	1192	694.240292364282	16
1	1194	696.362416469655	17
1	1195	696.532508845564	17
1	1196	698.034499926428	16
1	1197	698.320642589644	15
1	1201	699.088459154103	15
1	1203	699.935939546863	16
1	1205	700.832284781354	16
1	1206	702.424744842899	15
1	1207	703.276852089257	14
1	1208	704.37281838604	13
1	1209	705.154044572926	12
1	1210	705.167234275182	11
1	1211	705.230559171373	10
1	1213	705.297486875136	10
1	1214	706.292459345043	10
1	1215	706.887281989738	9
1	1216	706.969788263576	8
1	1218	706.971669033785	8
1	1220	707.238045692499	9
1	1222	707.372776302521	10
1	1223	707.530936772522	10
1	1224	708.057340974929	9
1	1225	708.086096266163	8
1	1227	708.201490384444	8
1	1228	708.211390502464	8
1	1229	709.261408909867	7
1	1230	709.792649102867	6
1	1231	710.174179637247	5
1	1233	710.321313963894	5
1	1234	712.480210321526	5
1	1235	712.7732638638	4
1	1237	713.467924000692	4
1	1239	713.561494596175	5
1	1240	713.562541870891	5
1	1244	716.557402768586	5
1	1248	717.245573905629	6
1	1250	718.163021105082	7
1	1253	719.239234378314	8
1	1255	719.585889363493	9
1	1257	720.398540982999	10
1	1261	721.239749572979	11
1	1263	724.550264989663	12
1	1265	725.473143811696	13
1	1267	727.640488348418	14
1	1272	730.110946756562	15
1	1274	731.503300242865	16
1	1276	734.271009295785	17
1	1278	737.114840159338	18
1	1280	737.137251509974	19
1	1284	738.787035255739	20
1	1286	741.873951549615	21
1	1288	743.570947422867	22
1	1290	744.606570953497	23
1	1292	744.638033954668	24
1	1295	745.608952415151	25
1	1297	747.143201333323	26
1	1299	748.089904332234	27
1	1301	749.085468346844	28
1	1306	753.703760109038	29
1	1308	755.719431179083	30
1	1310	755.823695062006	31
1	1313	757.840365932739	32
1	1315	760.217053088978	33
1	1317	763.170475882973	34
1	1319	767.391685624389	35
1	1321	767.637468637902	35
1	1323	768.173358655499	35
1	1324	768.235615148024	35
1	1326	768.597322792389	35
1	1327	769.866218750819	35
1	1328	771.458163035983	34
1	1330	771.751031916493	34
1	1331	771.770680971638	34
1	1332	772.664430140766	33
1	1333	773.142575682134	32
1	1334	773.366380418832	31
1	1336	773.403431017843	31
1	1338	774.734979200206	32
1	1340	776.127626295006	33
1	1342	776.163610853189	34
1	1344	776.997572408073	35
1	1346	777.535393824831	36
1	1348	777.813774618312	37
1	1349	778.259281471073	37
1	1350	778.574874562786	36
1	1351	779.433860597404	35
1	1352	779.468563679114	34
1	1353	780.12168436496	33
1	1355	781.657046275814	33
1	1356	782.062196319827	33
1	1360	787.201281365543	32
1	1361	787.545761015969	31
1	1365	789.546560524094	31
1	1367	790.580249628024	32
1	1369	791.098884932342	33
1	1371	791.141964973252	33
1	1372	791.694045257983	32
1	1373	793.277644086725	31
1	1374	793.837977623907	30
1	1376	794.733633588583	30
1	1377	795.12675017499	30
1	1379	795.797334690402	30
1	1380	796.972990654276	30
1	1387	804.69994101289	29
1	1388	805.558013425596	28
1	1389	805.845334311949	27
1	1390	807.295865250876	26
1	1392	808.19286744104	26
1	1394	808.424729586846	27
1	1395	809.101586490631	27
1	1396	810.050549251699	26
1	1398	810.66378798166	26
1	1400	810.953961689426	27
1	1401	812.257401496345	27
1	1403	812.537921866726	27
1	1404	812.748155882716	27
1	1406	812.796342126774	27
1	1407	812.845294259718	27
1	1409	813.525761667385	27
1	1413	813.878817360942	28
1	1415	817.200895236352	29
1	1417	818.471659333247	29
1	1418	818.949633604397	28
1	1420	819.371051271465	28
1	1421	819.624221831792	28
1	1422	819.934948872642	27
1	1423	820.174482918904	26
1	1424	820.52552942922	25
1	1425	820.76698328441	24
1	1427	821.890196183303	24
1	1428	821.926896674788	24
1	1429	822.381811491138	23
1	1433	825.885275015729	23
1	1435	826.182595596246	24
1	1437	827.907602523231	25
1	1439	828.966715792909	26
1	1441	831.563710412486	26
1	1443	831.820937708715	26
1	1444	832.007864518632	26
1	1446	832.608797493683	26
1	1447	834.243785756964	26
1	1448	834.53218681577	25
1	1450	834.793985549553	25
1	1451	834.811379414781	25
1	1453	836.419946771119	25
1	1454	837.038567895189	25
1	1456	837.322678110284	25
1	1458	837.360780329095	26
1	1460	839.599181251238	27
1	1462	839.858542554774	28
1	1463	839.948082950311	28
1	1465	842.191565799868	28
1	1466	842.266665865472	28
1	1467	842.489829349849	27
1	1469	844.434878008294	27
1	1471	844.519166734478	28
1	1473	845.359324378871	29
1	1475	846.733706483722	30
1	1476	846.78391823388	30
1	1477	847.018541634287	29
1	1479	847.03704740993	29
1	1481	848.129963765921	30
1	1482	848.430505137434	30
1	1483	849.499070241138	29
1	1485	849.61405516912	29
1	1486	850.224093836888	29
1	1487	851.333953354484	28
1	1488	852.672165396132	27
1	1489	853.699917194689	26
1	1490	854.920117725651	25
1	1491	855.468695989166	24
1	1493	855.738289076306	24
1	1497	859.478776424908	25
1	1499	860.859070201314	25
1	1500	861.056518152698	24
1	1502	861.239441463425	24
1	1503	861.739113611155	24
1	1504	861.751605950275	23
1	1506	861.835370367876	23
1	1510	866.389201719779	23
1	1511	867.466958790711	22
1	1512	868.022820536739	21
1	1513	868.171232692124	20
1	1514	868.567102499069	19
1	1515	868.712056573975	18
1	1516	869.212629193432	17
1	1518	870.427144030476	17
1	1519	871.807799539347	17
1	1523	873.639908237017	17
1	1525	875.242186961806	18
1	1527	875.296932270453	19
1	1529	876.186827324658	20
1	1531	878.039290818474	21
1	1535	878.306922031811	22
1	1537	879.832056408779	23
1	1542	883.045534229178	24
1	1547	886.459881601945	25
1	1551	889.560575796311	26
1	1553	891.123806174144	27
1	1557	892.575720798908	28
1	1559	893.85867541212	29
1	1563	895.761591826924	30
1	1566	899.052180741186	31
1	1571	900.844412897846	32
1	1574	905.252291785723	33
1	1576	907.868168662024	34
1	1578	910.514988522386	35
1	1581	912.967235797976	36
1	1585	914.629765738083	37
1	1587	919.997706935579	38
1	1592	926.645793111857	39
1	1594	928.356308702303	40
1	1596	928.57498071587	41
1	1598	929.639819400257	42
1	1601	930.314940386998	43
1	1603	932.118596918373	44
1	1609	934.793174956632	45
1	1611	936.414764053601	46
1	1613	938.128419505319	46
1	1614	938.458413653318	45
1	1615	940.377363359279	44
1	1616	940.823437575294	43
1	1617	940.929350980973	42
1	1618	941.160570339883	41
1	1619	942.864589221842	40
1	1621	942.909409289599	40
1	1622	943.080705302957	40
1	1623	943.325633743657	39
1	1625	943.379589045277	39
1	1627	944.18166590636	40
1	1628	945.683420497083	40
1	1629	945.87231667213	39
1	1630	945.888701502673	38
1	1631	946.118386362009	37
1	1633	946.511269134257	37
1	1634	947.031688455693	37
1	1635	949.149720739787	36
1	1636	951.399434357008	35
1	1637	951.465032839748	34
1	1639	951.540926399432	34
1	1640	952.868394027044	34
1	1641	952.946298651171	33
1	1642	953.222471866268	32
1	1643	953.388451915054	31
1	1644	953.417278430515	30
1	1645	953.553943713325	29
1	1646	953.834154388443	28
1	1647	953.990549978008	27
1	1648	954.321451794569	26
1	1650	954.49921674659	26
1	1654	957.04892960735	27
1	1656	959.63600714136	28
1	1658	963.582537401672	29
1	1660	967.997131028462	30
1	1662	968.839860904934	30
1	1663	969.97640035889	29
1	1665	970.308911274182	29
1	1667	970.45722455775	30
1	1668	970.80220487678	30
1	1669	971.229776315457	29
1	1671	972.41540635706	29
1	1673	973.638088950202	30
1	1674	974.454341584794	30
1	1675	974.722679129611	29
1	1676	974.874294910651	28
1	1678	975.15318390252	28
1	1679	975.563107468991	28
1	1680	975.687238406946	27
1	1682	978.171832852759	27
1	1684	979.604208753191	28
1	1685	979.808565124696	28
1	1686	980.91057806821	27
1	1687	980.937735923488	26
1	1689	982.86053752844	26
1	1690	983.304096918836	26
1	1691	983.613850927662	25
1	1692	985.723617737876	24
1	1694	986.229799350233	24
1	1695	986.32606406621	24
1	1696	986.682805301292	23
1	1698	987.105764037062	23
1	1699	987.798358961053	23
1	1701	988.566298027107	23
1	1702	988.652916801752	23
1	1703	990.933638779719	22
1	1704	991.667151010759	21
1	1706	992.055512395185	21
1	1707	992.214435789166	21
1	1708	992.256030979407	20
1	1709	993.342932275244	19
1	1710	993.38670437195	18
1	1711	994.236326586954	17
1	1713	994.526979281562	17
1	1715	994.951662400398	18
1	1716	996.207707361295	18
1	1717	997.757660923299	17
1	1719	997.85777202899	17
1	1720	998.068967140708	17
1	1721	998.315396350225	16
1	1723	998.828336084874	16
1	1727	1003.566104117524	17
1	1729	1005.236388710498	18
1	1732	1008.177979590248	19
1	1733	1009.141019211944	19
1	1735	1010.866825156856	19
1	1739	1011.160368256824	20
1	1741	1011.212418265947	21
1	1745	1013.984624169292	22
1	1747	1014.618461162964	23
1	1752	1020.09802990138	24
1	1756	1022.164517820836	25
1	1760	1023.270512360608	26
1	1767	1031.371006839981	27
1	1774	1033.524083664254	28
1	1778	1035.662818785632	28
1	1780	1036.582199249855	28
1	1781	1036.722668434932	28
1	1782	1036.756691890867	27
1	1783	1036.981621463259	26
1	1784	1037.340735912879	25
1	1785	1037.685077033883	24
1	1787	1037.757066079196	24
1	1789	1037.959745909673	25
1	1790	1038.127389089861	25
1	1792	1038.769653318676	25
1	1793	1039.527554633858	25
1	1794	1040.660839882538	24
1	1795	1041.574622843893	23
1	1797	1042.134912808706	23
1	1798	1043.089009527375	23
1	1799	1043.959290723042	22
1	1800	1045.768420949171	21
1	1801	1046.043771091419	20
1	1803	1046.216610424283	20
1	1804	1046.254316200051	20
1	1805	1046.357666290721	19
1	1806	1046.454885649935	18
1	1807	1046.575524720428	17
1	1809	1046.802982286085	17
1	1810	1046.996358373825	17
1	1812	1047.39632451186	17
1	1813	1047.592934235239	17
1	1817	1048.857399504577	17
1	1819	1048.972243570589	18
1	1821	1049.31552587065	19
1	1823	1053.045623995063	19
1	1825	1053.286779502061	19
1	1826	1053.40186636512	19
1	1828	1053.6044342725	19
1	1830	1054.102127532459	20
1	1831	1054.114361127206	20
1	1832	1055.347878420364	19
1	1833	1055.635895817397	18
1	1834	1055.696370085446	17
1	1835	1056.583223576424	16
1	1837	1056.594081563028	16
1	1838	1056.709885795382	16
1	1839	1057.558822617122	15
1	1843	1058.798367488812	15
1	1845	1060.245092453043	16
1	1847	1061.505461793393	17
1	1849	1061.599523751489	18
1	1851	1062.299640188174	19
1	1853	1062.700741400565	20
1	1855	1065.956602044116	21
1	1858	1067.35210947191	22
1	1862	1068.617717924475	22
1	1868	1070.399143204788	22
1	1870	1070.85896499673	23
1	1876	1073.823182264884	24
1	1880	1075.281299497299	25
1	1885	1080.280284340385	26
1	1888	1084.242585922362	27
1	1896	1090.514190591674	28
1	1898	1091.892470115246	29
1	1900	1091.986425489652	30
1	1902	1094.057520613546	31
1	1904	1094.530942863314	32
1	1911	1097.108142954036	33
1	1913	1098.120396103965	34
1	1915	1098.932879478345	35
1	1917	1102.387031369945	36
1	1919	1105.607810242929	37
1	1921	1107.991401639957	38
1	1923	1108.18654436779	39
1	1925	1108.483010119272	40
1	1927	1108.647859776239	41
1	1932	1109.919308006144	42
1	1934	1110.977803884733	43
1	1936	1112.714903611466	44
1	1938	1115.361564483081	45
1	1940	1116.088403793973	46
1	1942	1116.569123510654	47
1	1944	1116.703100351647	48
1	1946	1118.13247698247	49
1	1950	1122.202798745975	50
1	1952	1122.728519730389	51
1	1954	1123.064165301447	52
1	1955	1123.460258001356	52
1	1956	1123.59692149175	51
1	1957	1123.668844212899	50
1	1958	1124.259879199648	49
1	1959	1125.221243278379	48
1	1961	1125.514501736574	48
1	1962	1125.549500044506	48
1	1964	1126.356234806674	48
1	1965	1126.384706271364	48
1	1967	1126.732030356643	48
1	1968	1128.035953383319	48
1	1969	1129.689560216736	47
1	1971	1129.745734564369	47
1	1972	1130.360417756041	47
1	1974	1130.380534688099	47
1	1975	1130.926349583537	47
1	1977	1132.306842635553	47
1	1978	1132.348834507989	47
1	1979	1132.636132300253	46
1	1981	1133.761571374998	46
1	1982	1133.8071618174	46
1	1983	1134.273515424775	45
1	1985	1136.218634004633	45
1	1986	1136.265560365435	45
1	1987	1136.368121907013	44
1	1989	1136.565927521073	44
1	1990	1136.574451171749	44
1	1992	1136.74700465722	44
1	1993	1137.85336918104	44
1	1995	1138.02483711822	44
1	1997	1138.139846484839	45
1	1999	1138.543233952564	46
1	2001	1139.262327822012	47
1	2003	1139.349833848156	48
1	2004	1139.618942288104	48
1	2006	1140.061056296397	48
1	2008	1141.074549719348	49
1	2009	1141.342300418008	49
1	2010	1141.529760724154	48
1	2011	1143.520113973322	47
1	2013	1144.36405485807	47
1	2014	1145.854605438075	47
1	2018	1149.559965046874	47
1	2021	1150.274274138408	48
1	2022	1151.258153770138	48
1	2024	1151.62217482512	48
1	2025	1151.897008444004	48
1	2029	1153.824565451906	48
1	2031	1154.765490063379	49
1	2033	1155.721257294295	50
1	2039	1163.644806032032	51
1	2041	1164.109335939857	52
1	2044	1166.431125055522	53
1	2046	1166.880319255263	54
1	2048	1167.591890695002	55
1	2053	1171.261266331348	56
1	2057	1175.37999519429	57
1	2059	1176.865590213231	58
1	2063	1181.132676744288	59
1	2065	1181.957983830998	60
1	2067	1182.306625172986	61
1	2069	1182.534193250086	62
1	2073	1183.679690606842	63
1	2075	1183.803885843844	64
1	2077	1184.720171637718	65
1	2079	1185.013234028593	66
1	2081	1186.349360864118	67
1	2086	1191.412908256603	68
1	2088	1195.019535826815	69
1	2093	1196.164329424353	70
1	2095	1199.504696049763	71
1	2098	1202.09524488158	72
1	2105	1207.349728587768	73
1	2107	1207.701834383405	74
1	2109	1208.640474950521	75
1	2111	1213.355670615169	76
1	2113	1215.864768440606	77
1	2117	1220.5700430715	78
1	2119	1224.346853580529	79
1	2123	1226.486788413115	80
1	2125	1228.352895684115	81
1	2127	1229.004157119854	82
1	2131	1233.628166157506	83
1	2133	1234.196625999835	84
1	2136	1235.297464379051	85
1	2138	1235.685384485394	86
1	2144	1246.213100628566	87
1	2146	1246.459348259568	88
1	2148	1247.252458179585	89
1	2150	1248.234024511536	90
1	2152	1248.283581186512	91
1	2154	1248.482385349269	92
1	2156	1249.236249692844	93
1	2158	1249.788674349838	94
1	2160	1249.938933866365	95
1	2163	1252.046060068673	96
1	2169	1259.222581250497	97
1	2171	1260.389576389155	98
1	2173	1261.487834340217	99
1	2178	1267.623172316563	99
1	2179	1267.635514984928	98
1	2180	1268.107385086261	97
1	2182	1268.394713559932	97
1	2184	1269.29865106285	98
1	2185	1269.703743211407	98
1	2186	1270.272147324845	97
1	2187	1271.347702128359	96
1	2191	1271.9826483449	96
1	2193	1272.226420704924	97
1	2195	1272.304769583154	98
1	2197	1272.864881312344	98
1	2198	1273.553413355263	97
1	2199	1273.671672629552	96
1	2200	1273.684067299822	95
1	2202	1273.86045169043	95
1	2203	1274.16656566094	95
1	2205	1274.428123734186	95
1	2207	1275.591770371992	96
1	2208	1275.865545574081	96
1	2209	1276.10132785499	95
1	2210	1276.228601798496	94
1	2211	1277.588988444939	93
1	2213	1278.012282199385	93
1	2214	1278.298697308656	93
1	2218	1279.103335627672	93
1	2220	1279.185723098323	94
1	2222	1279.801201565704	95
1	2224	1280.558622986985	96
1	2226	1284.306726763412	96
1	2227	1285.25938544957	95
1	2228	1285.448959358257	94
1	2230	1285.966167205531	94
1	2231	1286.189283193284	94
1	2233	1287.832620492101	94
1	2234	1288.438592349567	94
1	2236	1288.534341387975	94
1	2237	1288.98216282911	94
1	2238	1289.199253202407	93
1	2240	1289.401949448179	93
1	2241	1289.678839432905	93
1	2243	1290.186245652342	93
1	2244	1291.239620285071	93
1	2245	1292.429945450658	92
1	2246	1292.823856546355	91
1	2247	1293.063772457792	90
1	2249	1294.072418018669	90
1	2250	1295.847756114505	90
1	2252	1295.86781307552	90
1	2254	1297.094059060764	91
1	2255	1297.321517680733	91
1	2256	1297.403117912918	90
1	2257	1297.681644649159	89
1	2258	1298.35381098073	88
1	2260	1299.457512441521	88
1	2261	1299.643749534276	88
1	2262	1299.861644209032	87
1	2264	1300.999721380257	87
1	2266	1301.233020416095	88
1	2267	1301.475306568296	88
1	2268	1303.214304007852	87
1	2269	1303.239580827403	86
1	2270	1303.498590783327	85
1	2272	1303.550510474818	85
1	2273	1304.118655713172	85
1	2275	1304.500447810607	85
1	2276	1305.889154679039	85
1	2277	1306.858759295386	84
1	2278	1307.053019358357	83
1	2280	1307.648918173347	83
1	2281	1307.696903909088	83
1	2282	1307.755090244958	82
1	2284	1308.452273305621	82
1	2289	1311.097850235353	83
1	2291	1311.890922774509	84
1	2293	1311.897120521836	85
1	2295	1313.221167317157	86
1	2297	1313.404017808553	87
1	2299	1313.579320949189	88
1	2300	1313.662000775655	88
1	2301	1314.580157411265	87
1	2303	1314.633529167375	87
1	2304	1318.171480520223	87
1	2306	1318.792050308205	87
1	2310	1320.631394937563	87
1	2312	1321.235720842425	87
1	2314	1321.530880839251	88
1	2316	1321.624380925025	89
1	2317	1321.924163152695	89
1	2319	1322.850376408155	89
1	2320	1323.323593169935	89
1	2322	1323.856788787035	89
1	2323	1324.074755230922	89
1	2327	1332.7670737197	89
1	2329	1335.828375116537	90
1	2331	1337.527069976409	91
1	2333	1338.623509202458	92
1	2337	1343.278901298125	93
1	2339	1343.66955416852	94
1	2343	1348.29563171566	95
1	2345	1348.829346074632	96
1	2346	1351.150784614403	96
1	2348	1351.335619274706	96
1	2349	1351.641541356603	96
1	2350	1352.3399982945	95
1	2351	1352.409361812311	94
1	2353	1353.838738425564	94
1	2354	1355.494790662847	94
1	2356	1355.52718803555	94
1	2363	1358.59892013793	95
1	2365	1360.800950343062	95
1	2366	1360.99191930461	94
1	2367	1361.071960479289	93
1	2368	1361.078268538131	92
1	2370	1362.241922912363	92
1	2371	1364.780221814701	92
1	2376	1366.717679258122	92
1	2377	1366.779907471087	92
1	2379	1367.145174037423	92
1	2381	1367.459026649732	93
1	2382	1368.777528127256	93
1	2384	1373.169284824655	93
1	2386	1373.466302245405	94
1	2388	1374.661450143248	95
1	2389	1374.778200006732	95
1	2390	1374.914577362536	94
1	2392	1375.017772716422	94
1	2393	1375.805603892287	94
1	2395	1375.834293770132	94
1	2397	1377.758667632923	95
1	2398	1378.197851911959	95
1	2399	1378.67126976674	94
1	2401	1379.30612243077	94
1	2403	1380.228855290127	95
1	2405	1380.502192389605	96
1	2407	1380.680856386017	97
1	2408	1382.698929348734	97
1	2409	1383.098171200496	96
1	2410	1383.825141155932	95
1	2411	1384.065634301697	94
1	2412	1384.620413769211	93
1	2413	1386.443032897617	92
1	2414	1386.505224808201	91
1	2415	1387.432395283981	90
1	2416	1388.014236191617	89
1	2417	1388.023940603099	88
1	2421	1391.593489422615	88
1	2423	1393.011661377341	89
1	2425	1393.900996357998	90
1	2427	1393.909304577285	91
1	2432	1396.910570366091	91
1	2433	1397.044476708955	90
1	2434	1397.275274362862	89
1	2435	1398.287016352853	88
1	2436	1398.304435398713	87
1	2438	1399.120993535847	87
1	2440	1400.181590466981	88
1	2441	1401.770929775064	88
1	2442	1402.280549753746	87
1	2444	1402.418462629077	87
1	2446	1402.479621678729	88
1	2447	1402.550514450212	88
1	2448	1402.640436698385	87
1	2449	1403.252832609799	86
1	2451	1404.237637584132	86
1	2453	1405.408320789638	87
1	2454	1405.861153938507	87
1	2455	1406.740405419523	86
1	2456	1407.209826650793	85
1	2457	1407.674698277312	84
1	2461	1410.821736894862	84
1	2463	1410.993914190612	85
1	2465	1411.131306827684	85
1	2467	1411.4113372655	85
1	2468	1411.68918395761	85
1	2469	1416.511204781258	84
1	2470	1416.684592624962	83
1	2471	1418.299947706439	82
1	2473	1418.804104757535	82
1	2477	1420.812944773673	83
1	2481	1425.44666917205	84
1	2485	1428.919912911469	85
1	2490	1431.859288224033	86
1	2492	1433.457955861924	87
1	2496	1436.143229852442	88
1	2499	1436.85217022512	89
1	2500	1437.216399322992	89
1	2501	1437.429881059459	88
1	2503	1439.402727681251	88
1	2505	1439.482483649479	89
1	2506	1441.090484330626	89
1	2507	1441.305622817369	88
1	2509	1441.425377566874	88
1	2511	1441.79456000859	89
1	2512	1443.595155887363	89
1	2514	1443.714433954693	89
1	2515	1444.234291713647	89
1	2516	1445.076939273442	88
1	2517	1445.234497983216	87
1	2519	1445.99616781136	87
1	2520	1446.27430903799	87
1	2522	1446.725449955398	87
1	2523	1447.765226796956	87
1	2524	1448.772854943661	86
1	2525	1449.235595325234	85
1	2526	1449.321705629715	84
1	2527	1449.496533331244	83
1	2528	1449.525624109896	82
1	2529	1449.923121930795	81
1	2531	1450.289819091439	81
1	2533	1450.429765820168	82
1	2534	1450.836068698594	82
1	2535	1453.379130553997	81
1	2537	1453.546437301518	81
1	2538	1455.043395119314	81
1	2540	1457.498598145281	81
1	2542	1458.53843080616	82
1	2543	1459.353666942828	82
1	2544	1459.380918503897	81
1	2546	1459.968648593976	81
1	2547	1460.436782084653	81
1	2548	1460.518821025979	80
1	2549	1460.724356042762	79
1	2550	1462.161021648282	78
1	2552	1463.036128170613	78
1	2553	1463.136122155776	78
1	2555	1464.289665778883	78
1	2557	1465.073796051187	79
1	2558	1466.23295004939	79
1	2559	1466.337861283031	78
1	2560	1466.579733545152	77
1	2562	1467.090658060798	77
1	2564	1469.078956520848	78
1	2570	1471.952358748139	79
1	2572	1472.161281288854	80
1	2574	1479.962601986125	81
1	2578	1481.943250674229	82
1	2584	1486.120840376838	83
1	2588	1486.801793432872	84
1	2590	1487.48810478547	85
1	2592	1489.122232845552	86
1	2595	1495.052909401562	87
1	2600	1498.553010412607	88
1	2602	1499.004869208197	89
1	2606	1500.587981363291	90
1	2609	1501.521036019798	91
1	2612	1501.778101652076	92
1	2615	1502.401308943601	93
1	2617	1502.491771254036	94
1	2618	1503.125098185843	94
1	2619	1503.595209141619	93
1	2621	1505.060569163336	93
1	2623	1505.637808497323	94
1	2624	1506.626869947767	94
1	2626	1507.023188324398	94
1	2627	1508.223386864756	94
1	2628	1508.274877950493	93
1	2630	1508.403014278208	93
1	2632	1509.410197531289	94
1	2633	1510.200032518052	94
1	2634	1510.847392537035	93
1	2636	1511.323976966274	93
1	2637	1512.25914780516	93
1	2639	1512.626648453433	93
1	2640	1513.80518742146	93
1	2642	1515.023699860222	93
1	2644	1515.209670272494	94
1	2646	1515.60142743198	95
1	2647	1516.041971803094	95
1	2651	1517.733918470214	95
1	2653	1520.192988993205	95
1	2655	1520.640004325521	95
1	2656	1520.926317695329	95
1	2657	1521.003219417829	94
1	2658	1521.044571555712	93
1	2660	1521.553174921068	93
1	2661	1521.75523848539	93
1	2663	1522.809657518182	93
1	2664	1523.049938065076	93
1	2665	1523.346207851351	92
1	2669	1524.614573643273	92
1	2671	1527.891275886608	93
1	2673	1528.780675574747	94
1	2675	1531.656682060526	95
1	2677	1533.938535401511	96
1	2679	1536.462290714722	97
1	2681	1538.609297959903	98
1	2683	1540.143760295056	99
1	2685	1540.177031362796	100
1	2687	1540.975025310205	100
1	2689	1541.549535650907	100
1	2691	1542.097341997544	101
1	2692	1543.713047594237	101
1	2693	1544.239698187693	100
1	2694	1544.285261006432	99
1	2695	1545.255349698255	98
1	2697	1546.592623300602	98
1	2698	1546.730588286006	98
1	2700	1547.5052438201	98
1	2701	1547.656818402691	98
1	2702	1547.970012102718	97
1	2703	1548.365700235444	96
1	2704	1549.087842315037	95
1	2705	1550.187874741405	94
1	2707	1550.332924636018	94
1	2708	1550.496490344058	94
1	2709	1550.780938161024	93
1	2710	1551.162928771426	92
1	2712	1551.37023824845	92
1	2716	1554.354823050295	92
1	2717	1555.39862956636	91
1	2718	1556.21963403458	90
1	2719	1556.824640718233	89
1	2721	1558.055014777069	89
1	2722	1558.434854730677	89
1	2723	1558.686795232542	88
1	2725	1559.22524285964	88
1	2727	1561.48002254428	89
1	2728	1561.711884548157	89
1	2729	1561.780020531705	88
1	2730	1561.803394230647	87
1	2731	1562.122447857817	86
1	2733	1562.742621117123	86
1	2734	1564.014866982476	86
1	2735	1564.665044189596	85
1	2737	1566.3624565643	85
1	2738	1566.436287931539	85
1	2740	1567.262407055695	85
1	2741	1567.545297973162	85
1	2742	1568.036149592489	84
1	2743	1568.096773672771	83
1	2744	1568.315205389739	82
1	2745	1569.91021505489	81
1	2746	1570.607132774959	80
1	2747	1571.236222370699	79
1	2749	1571.83876870076	79
1	2751	1572.378241730796	80
1	2753	1572.97156108801	81
1	2754	1573.084081221819	81
1	2755	1573.475879899501	80
1	2756	1573.996400191187	79
1	2757	1574.330677860346	78
1	2758	1575.029370242535	77
1	2759	1575.032660039703	76
1	2760	1575.989235866768	75
1	2762	1576.659032615801	75
1	2764	1578.317250172093	76
1	2766	1578.527158439557	77
1	2767	1581.487764950665	77
1	2769	1582.521772610964	77
1	2771	1582.828340346633	78
1	2773	1583.227912530014	79
1	2774	1583.244787095304	79
1	2775	1583.268351486917	78
1	2777	1583.883705315933	78
1	2778	1584.171206403845	78
1	2782	1586.223112073976	77
1	2783	1588.342801282052	76
1	2784	1588.475044614808	75
1	2786	1588.872848418783	75
1	2788	1589.19592563361	76
1	2789	1589.389090704218	76
1	2790	1589.780910431406	75
1	2791	1590.632121543333	74
1	2792	1590.893558580687	73
1	2794	1590.909449567397	73
1	2795	1591.240672558539	73
1	2797	1593.887633854779	73
1	2798	1594.679527361667	73
1	2799	1595.032366231946	72
1	2803	1596.690417722662	71
1	2805	1596.796156442719	71
1	2807	1598.365100922797	72
1	2809	1598.3882564424	73
1	2811	1599.319109835831	74
1	2812	1600.146499755717	74
1	2813	1600.208365056677	73
1	2814	1600.608569334237	72
1	2815	1601.094686885593	71
1	2820	1605.122109386596	71
1	2822	1606.370389443766	72
1	2823	1606.380523971013	72
1	2824	1607.715357185736	71
1	2825	1607.916757931472	70
1	2827	1608.883542107745	70
1	2828	1610.492631992504	70
1	2830	1611.585014094162	70
1	2831	1612.163614782967	70
1	2835	1614.000811500845	70
1	2837	1615.040694068757	71
1	2839	1615.646398199772	72
1	2841	1619.258504551941	73
1	2843	1620.72496364861	74
1	2845	1624.423428742124	75
1	2847	1626.257445446903	76
1	2849	1627.458307617241	76
1	2850	1627.586903491102	75
1	2852	1628.339085041193	75
1	2858	1629.374437215026	76
1	2860	1629.965647433517	77
1	2862	1632.841343699718	78
1	2864	1634.285247435098	79
1	2866	1634.427614302448	80
1	2868	1635.392940481635	81
1	2870	1636.11776311028	82
1	2875	1638.990284411406	83
1	2877	1640.898495632933	84
1	2879	1641.44691472697	85
1	2882	1642.341788604755	86
1	2884	1642.462544138167	87
1	2886	1645.347716080791	88
1	2888	1648.576627558919	89
1	2892	1651.867816798388	90
1	2897	1655.187981573428	91
1	2900	1660.943683590374	92
1	2904	1666.412406405758	93
1	2906	1667.746208368813	94
1	2908	1671.373271763491	95
1	2910	1673.160814833702	96
1	2912	1675.539364396507	97
1	2914	1676.785498244001	98
1	2916	1677.424423674402	99
1	2919	1678.741248440789	100
1	2921	1678.77283569623	101
1	2927	1682.521343732358	102
1	2930	1684.082913051048	103
1	2937	1691.062237585869	104
1	2939	1691.911764424807	105
1	2941	1691.923731283737	106
1	2943	1694.736652629612	107
1	2945	1695.534061140861	108
1	2948	1697.595975078354	109
1	2951	1699.164887640168	110
1	2953	1700.07227670749	111
1	2955	1700.089575309968	112
1	2957	1700.118163831377	113
1	2959	1700.365726419899	114
1	2961	1701.351092737932	115
1	2964	1702.352189805287	116
1	2968	1704.90809285848	117
1	2970	1706.92342710123	118
1	2972	1707.047551397569	119
1	2974	1708.217512664204	120
1	2976	1709.433112201433	121
1	2978	1709.961663780131	122
1	2980	1710.974387898728	123
1	2982	1711.292689776334	124
1	2984	1711.643706901867	125
1	2986	1712.975216488791	126
1	2988	1713.348364988633	127
1	2993	1718.470408901591	128
1	2995	1720.857657492224	129
1	2997	1721.561979581886	129
1	2998	1722.53723676955	128
1	3000	1723.018353928202	128
1	3002	1723.378255339566	129
1	3003	1723.868631606912	129
1	3004	1724.337124321203	128
1	3006	1724.462050403641	128
1	3010	1726.214552249897	129
1	3016	1728.68874757947	130
1	3017	1729.246523573732	130
1	3019	1729.754142515973	130
1	3020	1729.850248745685	130
1	3022	1730.719189243683	130
1	3023	1730.877782540017	130
1	3025	1731.039448832235	130
1	3026	1731.382874986427	130
1	3027	1732.035521183076	129
1	3028	1732.342352856436	128
1	3029	1733.473266330905	127
1	3030	1733.60639678892	126
1	3032	1733.950303319981	126
1	3033	1734.089004470798	126
1	3034	1734.19025380522	125
1	3035	1734.702907742501	124
1	3037	1734.855296562468	124
1	3039	1735.315903418828	125
1	3040	1735.517446388381	125
1	3041	1736.326047874947	124
1	3043	1736.499834368382	124
1	3045	1737.171992181794	125
1	3046	1737.492309343023	125
1	3048	1738.119981179106	125
1	3049	1738.156878717502	125
1	3050	1738.968768692364	124
1	3051	1739.490797872597	123
1	3052	1739.661343729038	122
1	3054	1739.705769588368	122
1	3055	1740.194480590282	122
1	3056	1740.446047411288	121
1	3058	1740.819065262039	121
1	3059	1741.342298621495	121
1	3061	1741.472187079429	121
1	3062	1742.799098938637	121
1	3063	1742.800541912205	120
1	3064	1742.934811341319	119
1	3065	1743.321511602563	118
1	3066	1744.165269414093	117
1	3068	1744.555840746703	117
1	3069	1746.618044556188	117
1	3070	1747.083581519307	116
1	3071	1747.544453477493	115
1	3073	1748.29075652949	115
1	3074	1748.467655759514	115
1	3075	1749.250096702562	114
1	3076	1749.269893695247	113
1	3077	1749.44634872394	112
1	3079	1749.929696993304	112
1	3080	1750.94456065464	112
1	3082	1751.081021223793	112
1	3083	1752.623336470254	112
1	3084	1753.049885939059	111
1	3086	1753.224432643531	111
1	3090	1755.383596333152	112
1	3094	1758.932697171239	113
1	3097	1761.242703428237	114
1	3099	1763.295009343472	115
1	3101	1765.213857134621	115
1	3103	1765.584344080769	115
1	3105	1766.346433424374	116
1	3106	1767.763131236968	116
1	3108	1768.131708372843	116
1	3110	1768.182017609615	117
1	3112	1769.096737212526	118
1	3113	1769.133139845332	118
1	3114	1770.478725369705	117
1	3115	1771.938549776739	116
1	3117	1772.445041683604	116
1	3119	1772.978806970395	117
1	3120	1774.806775642845	117
1	3121	1774.865947470729	116
1	3122	1775.416567331661	115
1	3124	1776.020265828029	115
1	3125	1777.952869561658	115
1	3127	1778.676525293393	115
1	3128	1780.15383474967	115
1	3132	1782.053722348621	115
1	3134	1786.344869469763	116
1	3136	1788.247496962765	117
1	3138	1789.177759289173	117
1	3139	1789.260966386159	116
1	3141	1789.406139525373	116
1	3142	1791.42112407775	116
1	3144	1791.45404184434	116
1	3146	1791.744377881983	117
1	3150	1793.902671303644	118
1	3153	1797.473993724015	119
1	3155	1798.804670391137	120
1	3157	1799.081075749857	121
1	3159	1799.348892067511	122
1	3160	1799.394281404546	122
1	3162	1800.735442799051	122
1	3163	1800.853269826615	122
1	3164	1802.998728079509	121
1	3166	1803.120277874566	121
1	3168	1803.53384576062	122
1	3169	1803.685278976746	122
1	3171	1804.079363088602	122
1	3172	1805.325824229242	122
1	3174	1805.846127440321	122
1	3176	1805.916730796411	123
1	3177	1805.971647746468	123
1	3179	1807.471621881423	123
1	3180	1807.812202850632	123
1	3181	1808.649786837094	122
1	3183	1809.374237068416	122
1	3184	1809.668184121277	122
1	3185	1809.837586374675	121
1	3186	1812.134669866887	120
1	3187	1812.550269257707	119
1	3188	1813.114520045938	118
1	3189	1813.367736824036	117
1	3191	1813.441521082064	117
1	3193	1814.137796168737	118
1	3194	1814.856262201088	118
1	3196	1815.533322382987	118
1	3198	1815.824005909397	119
1	3199	1816.473074169104	119
1	3201	1817.974680981777	119
1	3203	1818.838045965583	120
1	3205	1820.452816091054	121
1	3207	1821.678124446948	122
1	3208	1821.944008335111	122
1	3209	1823.25599439424	121
1	3210	1823.560366068097	120
1	3211	1823.588829119553	119
1	3212	1824.225685605908	118
1	3213	1825.205290242501	117
1	3218	1829.372838350865	117
1	3219	1831.893241702672	117
1	3220	1831.904128159217	116
1	3221	1832.140666703769	115
1	3223	1832.549039619022	115
1	3224	1832.79710213741	115
1	3225	1832.927743160087	114
1	3227	1833.205569274109	114
1	3228	1833.52376099234	114
1	3232	1836.798337372461	113
1	3234	1837.048502768209	113
1	3236	1837.203802274264	114
1	3240	1840.096037545112	115
1	3242	1840.628786807738	116
1	3246	1844.603484699217	117
1	3248	1844.850291817685	118
1	3250	1844.890286808303	119
1	3253	1845.435951915626	120
1	3255	1846.654229503477	121
1	3257	1847.988179131884	122
1	3259	1847.989515592214	123
1	3262	1849.749414672565	124
1	3264	1851.13871847213	125
1	3265	1851.285216098458	125
1	3266	1851.421751174029	124
1	3267	1851.581149698888	123
1	3269	1851.70533720732	123
1	3270	1853.003427462161	123
1	3271	1853.156826072181	122
1	3275	1854.208230698201	122
1	3277	1856.794887082622	122
1	3279	1857.137729558589	122
1	3281	1857.409634023927	123
1	3282	1858.567805133695	123
1	3284	1859.27226839921	123
1	3286	1859.332540055287	124
1	3287	1859.567938291728	124
1	3288	1860.873025138958	123
1	3289	1861.489994203104	122
1	3290	1861.74855029324	121
1	3291	1861.915787715948	120
1	3292	1862.133244099292	119
1	3293	1863.725840699574	118
1	3294	1863.862075325348	117
1	3295	1864.010641333649	116
1	3297	1864.936684725	116
1	3299	1864.947569085176	117
1	3301	1864.953328449204	118
1	3302	1865.628590933286	118
1	3303	1866.253173980747	117
1	3304	1866.486180272352	116
1	3305	1866.531962095623	115
1	3307	1866.752850298764	115
1	3309	1866.935326918237	116
1	3310	1867.011162503302	116
1	3311	1867.610737525781	115
1	3313	1867.804511038654	115
1	3314	1867.827234386009	115
1	3316	1868.248485899563	115
1	3317	1868.340955659256	115
1	3319	1869.679586346332	115
1	3321	1870.012469896718	116
1	3322	1871.159470519916	116
1	3323	1872.902477127156	115
1	3324	1873.756188112723	114
1	3325	1874.489381281685	113
1	3326	1874.660237630064	112
1	3328	1878.547451739601	112
1	3332	1878.9651914439	112
1	3333	1879.201470551427	111
1	3335	1879.246961723137	111
1	3337	1879.476759174973	112
1	3338	1880.724127428636	112
1	3340	1880.924426368621	112
1	3342	1881.247295398074	113
1	3343	1881.271522374104	113
1	3344	1881.51944696014	112
1	3345	1881.635756378064	111
1	3346	1882.070861845858	110
1	3347	1883.993498678253	109
1	3349	1884.291673657801	109
1	3351	1884.533466151149	110
1	3353	1884.811589698005	111
1	3354	1885.359551291738	111
1	3355	1887.719686902415	110
1	3356	1887.813049482339	109
1	3357	1888.723015079905	108
1	3358	1889.158468796091	107
1	3359	1892.129438850702	106
1	3363	1895.186139243956	106
1	3365	1896.465757711403	107
1	3370	1901.354168554543	108
1	3372	1903.536841274467	109
1	3374	1904.135471359856	110
1	3376	1905.842255794305	111
1	3378	1907.825826224883	112
1	3380	1910.322782421842	113
1	3382	1911.849615440735	114
1	3384	1912.897358058951	115
1	3388	1916.590831521615	116
1	3393	1921.384911014019	117
1	3395	1922.710194445097	118
1	3398	1929.630929880148	119
1	3401	1933.229154579634	120
1	3402	1933.279714175866	120
1	3403	1934.336696337195	119
1	3404	1934.738631775604	118
1	3405	1934.967230296446	117
1	3406	1936.877058117368	116
1	3407	1937.93372645613	115
1	3408	1938.65270250301	114
1	3409	1939.153774397455	113
1	3410	1939.711389614528	112
1	3411	1940.933881861915	111
1	3412	1941.337402262156	110
1	3414	1941.800697131703	110
1	3415	1942.406448987674	110
[...]
10	1489	853.699917194689	40.174155527304
10	1490	854.920117725651	41.193162568954
10	1491	855.468695989166	41.589878628224
10	1499	860.859070201314	41.488018929849
10	1500	861.056518152698	39.166321969395
10	1503	861.739113611155	38.82451094869
10	1504	861.751605950275	35.866330934546
10	1510	866.389201719779	38.481599196548
10	1511	867.466958790711	38.500242997802
10	1512	868.022820536739	36.201882828024
10	1513	868.171232692124	35.562435198441
10	1514	868.567102499069	33.773116949516
10	1515	868.712056573975	32.292109802856
10	1516	869.212629193432	31.889951083148
10	1519	871.807799539347	34.447019210252
10	1613	938.128419505319	95.936853705451
10	1614	938.458413653318	94.023535645024
10	1615	940.377363359279	95.858196624801
10	1616	940.823437575294	95.464113196423
10	1617	940.929350980973	94.195644497251
10	1618	941.160570339883	94.123522929953
10	1619	942.864589221842	94.734625455921
10	1622	943.080705302957	93.466650133837
10	1623	943.325633743657	87.587344667351
10	1628	945.683420497083	89.048346328131
10	1629	945.87231667213	86.393540247222
10	1630	945.888701502673	84.649260039248
10	1631	946.118386362009	84.283015994133
10	1634	947.031688455693	83.557428112095
10	1635	949.149720739787	78.722576709311
10	1636	951.399434357008	78.893005921121
10	1637	951.465032839748	77.825124602731
10	1640	952.868394027044	77.626207065238
10	1641	952.946298651171	77.649366380718
10	1642	953.222471866268	77.03564454161
10	1643	953.388451915054	75.34916109658
10	1644	953.417278430515	75.110356398704
10	1645	953.553943713325	73.721887304546
10	1646	953.834154388443	70.788620159265
10	1647	953.990549978008	67.530668376063
10	1648	954.321451794569	64.760875998258
10	1662	968.839860904934	76.264140106026
10	1663	969.97640035889	76.11772494677
10	1668	970.80220487678	75.040613049856
10	1669	971.229776315457	72.177595574271
10	1674	974.454341584794	73.609928686948
10	1675	974.722679129611	69.470387343888
10	1676	974.874294910651	67.006126248627
10	1679	975.563107468991	65.048118946605
10	1680	975.687238406946	62.72000260897
10	1685	979.808565124696	65.178799386613
10	1686	980.91057806821	60.912871132631
10	1687	980.937735923488	54.291942811631
10	1690	983.304096918836	54.947788216533
10	1691	983.613850927662	55.038870211792
10	1692	985.723617737876	56.083798337619
10	1695	986.32606406621	56.011123679212
10	1696	986.682805301292	54.564208382919
10	1699	987.798358961053	54.005641936462
10	1702	988.652916801752	53.85974184512
10	1703	990.933638779719	54.518874726118
10	1704	991.667151010759	48.75774172116
10	1707	992.214435789166	48.834846743889
10	1708	992.256030979407	48.074365073047
10	1709	993.342932275244	46.831663140987
10	1710	993.38670437195	41.845777972518
10	1711	994.236326586954	39.737109840364
10	1716	996.207707361295	41.199381572427
10	1717	997.757660923299	40.708731315949
10	1720	998.068967140708	38.432959999348
10	1721	998.315396350225	34.732858948553
10	1733	1009.141019211944	38.832107937762
10	1778	1035.662818785632	63.247412428572
10	1781	1036.722668434932	63.08457948473
10	1782	1036.756691890867	61.603507988347
10	1783	1036.981621463259	58.8097886105
10	1784	1037.340735912879	57.736527159688
10	1785	1037.685077033883	54.824539505443
10	1790	1038.127389089861	51.897589739628
10	1793	1039.527554633858	52.421790596796
10	1794	1040.660839882538	52.094541855431
10	1795	1041.574622843893	49.519110448708
10	1798	1043.089009527375	48.562030245813
10	1799	1043.959290723042	49.007628322644
10	1800	1045.768420949171	47.910648920181
10	1801	1046.043771091419	47.215435006545
10	1804	1046.254316200051	46.912485516611
10	1805	1046.357666290721	42.791562173197
10	1806	1046.454885649935	41.218496939437
10	1807	1046.575524720428	38.39754513018
10	1810	1046.996358373825	36.129533216969
10	1813	1047.592934235239	36.657701648273
10	1823	1053.045623995063	41.833205729116
10	1826	1053.40186636512	39.417242195828
10	1831	1054.114361127206	39.495899964242
10	1832	1055.347878420364	35.249848518984
10	1833	1055.635895817397	33.471377996561
10	1834	1055.696370085446	32.425857724838
10	1835	1056.583223576424	25.212216736443
10	1838	1056.709885795382	23.185802131128
10	1839	1057.558822617122	20.976623367267
10	1862	1068.617717924475	29.848064605799
10	1955	1123.460258001356	77.243647577073
10	1956	1123.59692149175	76.793939205665
10	1957	1123.668844212899	76.272519701039
10	1958	1124.259879199648	76.522307145294
10	1959	1125.221243278379	76.363843773802
10	1962	1125.549500044506	76.577256473917
10	1965	1126.384706271364	77.069180400714
10	1968	1128.035953383319	74.749173881258
10	1969	1129.689560216736	76.085125944236
10	1972	1130.360417756041	76.258290223582
10	1975	1130.926349583537	74.332268020509
10	1978	1132.348834507989	74.782337976587
10	1979	1132.636132300253	73.837764811441
10	1982	1133.8071618174	73.562069364357
10	1983	1134.273515424775	72.768053631382
10	1986	1136.265560365435	74.666036613946
10	1987	1136.368121907013	74.068481718839
10	1990	1136.574451171749	73.873709771184
10	1993	1137.85336918104	71.896767136924
10	2004	1139.618942288104	72.266832816194
10	2009	1141.342300418008	73.664388391603
10	2010	1141.529760724154	72.12280941997
10	2011	1143.520113973322	73.120970768534
10	2014	1145.854605438075	74.995640441345
10	2022	1151.258153770138	75.976854272839
10	2025	1151.897008444004	71.616724103619
10	2178	1267.623172316563	175.73070220132
10	2179	1267.635514984928	175.64908949528
10	2180	1268.107385086261	174.04986447272
10	2185	1269.703743211407	175.17280034809
10	2186	1270.272147324845	173.16400437081
10	2187	1271.347702128359	173.22730602439
10	2197	1272.864881312344	170.4778499424
10	2198	1273.553413355263	167.94560311233
10	2199	1273.671672629552	165.68027098959
10	2200	1273.684067299822	165.49752293203
10	2203	1274.16656566094	165.68355554167
10	2208	1275.865545574081	167.21768579784
10	2209	1276.10132785499	166.18201984885
10	2210	1276.228601798496	165.25079791376
10	2211	1277.588988444939	164.87408483347
10	2214	1278.298697308656	162.93713282557
10	2226	1284.306726763412	167.73760325276
10	2227	1285.25938544957	168.55628509792
10	2228	1285.448959358257	167.31648237579
10	2231	1286.189283193284	163.98648444731
10	2234	1288.438592349567	165.71007261918
10	2237	1288.98216282911	165.91799752766
10	2238	1289.199253202407	163.68475146583
10	2241	1289.678839432905	163.32260462623
10	2244	1291.239620285071	164.50758992843
10	2245	1292.429945450658	162.68421088629
10	2246	1292.823856546355	162.44332185826
10	2247	1293.063772457792	160.75692982224
10	2250	1295.847756114505	162.08618473951
10	2255	1297.321517680733	161.1028836761
10	2256	1297.403117912918	160.83719039184
10	2257	1297.681644649159	160.93463999194
10	2258	1298.35381098073	160.32897386251
10	2261	1299.643749534276	161.50390304944
10	2262	1299.861644209032	161.31841025647
10	2267	1301.475306568296	162.21297874628
10	2268	1303.214304007852	163.8644701597
10	2269	1303.239580827403	163.17852453101
10	2270	1303.498590783327	162.42404106398
10	2273	1304.118655713172	159.7546008551
10	2276	1305.889154679039	159.93217815037
10	2277	1306.858759295386	157.29879424851
10	2278	1307.053019358357	156.77874521995
10	2281	1307.696903909088	156.07472908397
10	2282	1307.755090244958	154.79445056889
10	2300	1313.662000775655	158.89651071228
10	2301	1314.580157411265	158.85890011697
10	2304	1318.171480520223	154.52667448819
10	2310	1320.631394937563	154.20026988204
10	2317	1321.924163152695	155.04384389743
10	2320	1323.323593169935	155.73170247493
10	2323	1324.074755230922	152.81348889957
10	2346	1351.150784614403	174.28519440117
10	2349	1351.641541356603	170.50886461231
10	2350	1352.3399982945	170.3820144635
10	2351	1352.409361812311	170.10273663933
10	2354	1355.494790662847	172.96059741276
10	2365	1360.800950343062	176.08077870534
10	2366	1360.99191930461	175.97868527602
10	2367	1361.071960479289	174.72259961517
10	2368	1361.078268538131	169.66536028153
10	2371	1364.780221814701	169.76068598789
10	2377	1366.779907471087	167.27521142132
10	2382	1368.777528127256	166.68228324568
10	2389	1374.778200006732	167.42847141896
10	2390	1374.914577362536	167.21274297913
10	2393	1375.805603892287	167.16512894177
10	2398	1378.197851911959	164.84218129679
10	2399	1378.67126976674	162.80650132613
10	2408	1382.698929348734	162.12888627723
10	2409	1383.098171200496	158.75131761997
10	2410	1383.825141155932	157.33835274282
10	2411	1384.065634301697	155.71273861758
10	2412	1384.620413769211	155.61625664936
10	2413	1386.443032897617	152.81486674011
10	2414	1386.505224808201	152.30859880837
10	2415	1387.432395283981	152.13493090493
10	2416	1388.014236191617	152.32885170622
10	2417	1388.023940603099	141.81083997453
10	2432	1396.910570366091	149.65811218651
10	2433	1397.044476708955	148.81045219742
10	2434	1397.275274362862	148.99169317635
10	2435	1398.287016352853	149.80463100358
10	2436	1398.304435398713	149.06818570587
10	2441	1401.770929775064	151.98225542523
10	2442	1402.280549753746	152.34161588738
10	2447	1402.550514450212	150.50445438154
10	2448	1402.640436698385	143.41785544789
10	2449	1403.252832609799	142.86325622064
10	2454	1405.861153938507	144.37331959829
10	2455	1406.740405419523	139.2010519123
10	2456	1407.209826650793	138.81511309086
10	2457	1407.674698277312	138.37604721446
10	2465	1411.131306827684	139.14865848278
10	2468	1411.68918395761	139.46276325269
10	2469	1416.511204781258	144.2064351981
10	2470	1416.684592624962	142.82414093453
10	2471	1418.299947706439	143.87182397225
10	2500	1437.216399322992	159.20411712361
10	2501	1437.429881059459	159.07564619024
10	2506	1441.090484330626	161.98714870295
10	2507	1441.305622817369	162.11989971905
10	2512	1443.595155887363	163.79395432166
10	2515	1444.234291713647	163.67566872666
10	2516	1445.076939273442	159.11077206791
10	2517	1445.234497983216	157.40187749111
10	2520	1446.27430903799	157.73996765001
10	2523	1447.765226796956	158.36327734878
10	2524	1448.772854943661	158.58660929132
10	2525	1449.235595325234	155.16317730656
10	2526	1449.321705629715	153.45389255419
10	2527	1449.496533331244	152.40247427048
10	2528	1449.525624109896	150.06811166837
10	2529	1449.923121930795	148.92340055054
10	2534	1450.836068698594	149.6030482825
10	2535	1453.379130553997	149.82862007918
10	2538	1455.043395119314	150.54294730871
10	2543	1459.353666942828	151.70474876948
10	2544	1459.380918503897	150.92864519828
10	2547	1460.436782084653	151.2071048886
10	2548	1460.518821025979	149.42097079063
10	2549	1460.724356042762	148.83343326825
10	2550	1462.161021648282	150.26390112645
10	2553	1463.136122155776	149.91495483862
10	2558	1466.23295004939	152.82893224084
10	2559	1466.337861283031	152.75854033384
10	2560	1466.579733545152	151.94620437778
10	2618	1503.125098185843	183.84837282784
10	2619	1503.595209141619	182.35948829919
10	2624	1506.626869947767	185.09598910852
10	2627	1508.223386864756	186.59900593973
10	2628	1508.274877950493	185.42450154234
10	2633	1510.200032518052	186.34324373102
10	2634	1510.847392537035	183.70464855465
10	2637	1512.25914780516	179.49207408546
10	2640	1513.80518742146	177.97681230492
10	2647	1516.041971803094	178.51490182668
10	2653	1520.192988993205	176.91408769508
10	2656	1520.926317695329	177.25676352681
10	2657	1521.003219417829	172.70758770217
10	2658	1521.044571555712	172.21522548108
10	2661	1521.75523848539	170.41961921068
10	2664	1523.049938065076	169.21119963951
10	2665	1523.346207851351	167.8190198158
10	2687	1540.975025310205	183.64471091054
10	2692	1543.713047594237	185.11412745631
10	2693	1544.239698187693	181.99777527533
10	2694	1544.285261006432	178.20578419905
10	2695	1545.255349698255	178.53767044013
10	2698	1546.730588286006	179.58541424858
10	2701	1547.656818402691	180.19779175296
10	2702	1547.970012102718	174.80072727806
10	2703	1548.365700235444	174.89939799004
10	2704	1549.087842315037	174.42639217179
10	2705	1550.187874741405	175.17010202498
10	2708	1550.496490344058	174.66219657393
10	2709	1550.780938161024	173.0222705281
10	2710	1551.162928771426	171.85680634066
10	2716	1554.354823050295	173.85263066069
10	2717	1555.39862956636	174.71777318034
10	2718	1556.21963403458	168.11199217804
10	2719	1556.824640718233	165.23115129562
10	2722	1558.434854730677	165.42319335334
10	2723	1558.686795232542	164.78579887454
10	2728	1561.711884548157	167.80257997087
10	2729	1561.780020531705	162.65902699586
10	2730	1561.803394230647	161.62180376367
10	2731	1562.122447857817	159.70398522874
10	2734	1564.014866982476	161.53524530375
10	2735	1564.665044189596	160.42740660546
10	2738	1566.436287931539	161.0279671419
10	2741	1567.545297973162	159.71073938442
10	2742	1568.036149592489	157.21441269763
10	2743	1568.096773672771	157.10285948216
10	2744	1568.315205389739	156.90386812424
10	2745	1569.91021505489	151.10611029736
10	2746	1570.607132774959	151.79447289219
10	2747	1571.236222370699	150.42327759703
10	2754	1573.084081221819	147.63741204977
10	2755	1573.475879899501	144.55596698803
10	2756	1573.996400191187	142.13711196715
10	2757	1574.330677860346	140.87272199842
10	2758	1575.029370242535	138.88614039009
10	2759	1575.032660039703	138.18048981458
10	2760	1575.989235866768	136.58650818552
10	2767	1581.487764950665	142.00528130119
10	2774	1583.244787095304	141.81940952843
10	2775	1583.268351486917	141.47379147833
10	2778	1584.171206403845	140.45677244915
10	2782	1586.223112073976	139.49766211858
10	2783	1588.342801282052	138.05298219061
10	2784	1588.475044614808	138.04527879464
10	2789	1589.389090704218	135.8426534027
10	2790	1589.780910431406	132.28231228613
10	2791	1590.632121543333	132.09369073717
10	2792	1590.893558580687	130.92490998671
10	2795	1591.240672558539	128.20454438793
10	2798	1594.679527361667	130.38986158278
10	2799	1595.032366231946	129.95857018076
10	2803	1596.690417722662	127.61146120181
10	2812	1600.146499755717	130.83572119163
10	2813	1600.208365056677	128.25600630854
10	2814	1600.608569334237	128.44728804538
10	2815	1601.094686885593	121.13208489947
10	2823	1606.380523971013	120.25968359418
10	2824	1607.715357185736	120.91356375286
10	2825	1607.916757931472	120.428653146
10	2828	1610.492631992504	121.37039914695
10	2831	1612.163614782967	117.1107053814
10	2849	1627.458307617241	128.45343840904
10	2850	1627.586903491102	126.99892212781
10	2997	1721.561979581886	219.16067063828
10	2998	1722.53723676955	220.04546551551
10	3003	1723.868631606912	218.80806244358
10	3004	1724.337124321203	218.69931582388
10	3017	1729.246523573732	219.83632604244
10	3020	1729.850248745685	218.52627177941
10	3023	1730.877782540017	218.25113408658
10	3026	1731.382874986427	216.35917512621
10	3027	1732.035521183076	216.82585091058
10	3028	1732.342352856436	216.74092542446
10	3029	1733.473266330905	216.04347538722
10	3030	1733.60639678892	215.87247831871
10	3033	1734.089004470798	213.44900014528
10	3034	1734.19025380522	212.63707888415
10	3035	1734.702907742501	211.89325022432
10	3040	1735.517446388381	211.68233108091
10	3041	1736.326047874947	211.71147423167
10	3046	1737.492309343023	209.60103345641
10	3049	1738.156878717502	209.37620314276
10	3050	1738.968768692364	207.31208663184
10	3051	1739.490797872597	205.55226247109
10	3052	1739.661343729038	203.19905301432
10	3055	1740.194480590282	201.58518263038
10	3056	1740.446047411288	200.30228711623
10	3059	1741.342298621495	201.1652672587
10	3062	1742.799098938637	201.24956328773
10	3063	1742.800541912205	200.70319991466
10	3064	1742.934811341319	196.34218804072
10	3065	1743.321511602563	195.81626778246
10	3066	1744.165269414093	193.83234477807
10	3069	1746.618044556188	195.24780630774
10	3070	1747.083581519307	195.55264734644
10	3071	1747.544453477493	189.48943870042
10	3074	1748.467655759514	189.24241289987
10	3075	1749.250096702562	187.77007415828
10	3076	1749.269893695247	186.52727257812
10	3077	1749.44634872394	183.08389215964
10	3080	1750.94456065464	183.68215359895
10	3083	1752.623336470254	180.78456776949
10	3084	1753.049885939059	180.67164420826
10	3101	1765.213857134621	188.55482451882
10	3106	1767.763131236968	189.44588106488
10	3113	1769.133139845332	190.60598140577
10	3114	1770.478725369705	187.95695275874
10	3115	1771.938549776739	189.11020943011
10	3120	1774.806775642845	191.57886311283
10	3121	1774.865947470729	190.9822421548
10	3122	1775.416567331661	190.07126020642
10	3125	1777.952869561658	189.08002114287
10	3128	1780.15383474967	190.95790911606
10	3138	1789.177759289173	195.29012543439
10	3139	1789.260966386159	194.17900086115
10	3142	1791.42112407775	194.62496763503
10	3160	1799.394281404546	201.00602496215
10	3163	1800.853269826615	201.53415999078
10	3164	1802.998728079509	200.68508776581
10	3169	1803.685278976746	198.56316959015
10	3172	1805.325824229242	198.95543478548
10	3177	1805.971647746468	197.08810563872
10	3180	1807.812202850632	196.22718875647
10	3181	1808.649786837094	196.45055082602
10	3184	1809.668184121277	195.66737262043
10	3185	1809.837586374675	194.79689230592
10	3186	1812.134669866887	196.48827166711
10	3187	1812.550269257707	193.29176470577
10	3188	1813.114520045938	192.38955639733
10	3189	1813.367736824036	188.94430808191
10	3194	1814.856262201088	188.59881675419
10	3199	1816.473074169104	188.13398912791
10	3208	1821.944008335111	192.61047444043
10	3209	1823.25599439424	193.88155717921
10	3210	1823.560366068097	193.59471863458
10	3211	1823.588829119553	190.74748541983
10	3212	1824.225685605908	189.94043817081
10	3213	1825.205290242501	190.77767594005
10	3219	1831.893241702672	195.77547859239
10	3220	1831.904128159217	192.91384374781
10	3221	1832.140666703769	191.24217107084
10	3224	1832.79710213741	191.35018741044
10	3225	1832.927743160087	190.58595455533
10	3228	1833.52376099234	191.06121685417
10	3232	1836.798337372461	188.22170981354
10	3265	1851.285216098458	196.09723452503
10	3266	1851.421751174029	190.47806758365
10	3267	1851.581149698888	185.16874329313
10	3270	1853.003427462161	185.25721909335
10	3271	1853.156826072181	181.78355430869
10	3277	1856.794887082622	181.25552268612
10	3282	1858.567805133695	181.78230688969
10	3287	1859.567938291728	182.14351461733
10	3288	1860.873025138958	182.13177669817
10	3289	1861.489994203104	182.71715850687
10	3290	1861.74855029324	179.22720656088
10	3291	1861.915787715948	177.8328746649
10	3292	1862.133244099292	171.07100651342
10	3293	1863.725840699574	171.81407627477
10	3294	1863.862075325348	171.93834404161
10	3295	1864.010641333649	169.27398870404
10	3302	1865.628590933286	170.09452979242
10	3303	1866.253173980747	168.65719890239
10	3304	1866.486180272352	167.32129263218
10	3305	1866.531962095623	166.45968538813
10	3310	1867.011162503302	166.92158719333
10	3311	1867.610737525781	167.4925736944
10	3314	1867.827234386009	167.46150796611
10	3317	1868.340955659256	166.98986292132
10	3322	1871.159470519916	168.80728071463
10	3323	1872.902477127156	170.4828503835
10	3324	1873.756188112723	168.84809525424
10	3325	1874.489381281685	167.56595418046
10	3326	1874.660237630064	167.6126862325
10	3332	1878.9651914439	169.53207924247
10	3333	1879.201470551427	169.2398067713
10	3338	1880.724127428636	169.74973952991
10	3343	1881.271522374104	169.97883259777
10	3344	1881.51944696014	169.87574005827
10	3345	1881.635756378064	168.66053988927
10	3346	1882.070861845858	168.72249685722
10	3347	1883.993498678253	165.52308977666
10	3354	1885.359551291738	164.50189379951
10	3355	1887.719686902415	164.70133297421
10	3356	1887.813049482339	164.43479414277
10	3357	1888.723015079905	164.26096467626
10	3358	1889.158468796091	164.49844634204
10	3359	1892.129438850702	165.91488660081
10	3402	1933.279714175866	204.5909665964
10	3403	1934.336696337195	204.58255382122
10	3404	1934.738631775604	204.01944253192
10	3405	1934.967230296446	203.92778146421
10	3406	1936.877058117368	202.92675479739
10	3407	1937.93372645613	203.07842989366
10	3408	1938.65270250301	203.33679908418
10	3409	1939.153774397455	202.65394002907
10	3410	1939.711389614528	202.53939743273
10	3411	1940.933881861915	202.81390068281
10	3412	1941.337402262156	201.63163267379
10	3415	1942.406448987674	201.58738372563
10	3418	1944.277945550629	202.8057584712
10	3419	1944.812380512572	200.25653976587
11	3491	2000	0.4425
12	3491	2000	0.0945

