version 2
run Continuity_test_mean_response_time-79-20221216-15:30:56-5555
attr configname Continuity_test_mean_response_time
attr datetime 20221216-15:30:56
attr experiment Continuity_test_mean_response_time
attr inifile omnetpp.ini
attr iterationvars $0=5.1
attr iterationvarsf 5.1-
attr measurement $0=5.1
attr network Network
attr processid 5555
attr repetition 29
attr replication #29
attr resultdir results
attr runnumber 79
attr seedset 29
param *.minion.arrival_mean 2
param *.minion.service_mean 1
param *.boss.arrival_mean 10
param *.boss.service_mean 5.1
param *.player.recover_rate_x 100
param **.minion.arrival_distribution 0
param **.minion.service_distribution 0
param **.boss.arrival_distribution 0
param **.boss.service_distribution 0

vector 0 Network.player minion_jobs_number_stat:vector ETV
attr source signal_minion_jobs_number
vector 1 Network.player minion_jobs_queue_number_stat:vector ETV
attr source signal_minion_jobs_queue_number
vector 2 Network.player minion_recovered_stat:vector ETV
attr source signal_minion_recovered
vector 3 Network.player minion_defeated_stat:vector ETV
attr source signal_minion_defeated
vector 4 Network.player boss_jobs_number_stat:vector ETV
attr source signal_boss_jobs_number
vector 5 Network.player boss_jobs_queue_number_stat:vector ETV
attr source signal_boss_jobs_queue_number
vector 6 Network.player boss_defeated_stat:vector ETV
attr source signal_boss_defeated
vector 7 Network.player minion_waiting_time_stat:vector ETV
attr source signal_minion_waiting_time
vector 8 Network.player minion_response_time_stat:vector ETV
attr source signal_minion_response_time
vector 9 Network.player boss_waiting_time_stat:vector ETV
attr source signal_boss_waiting_time
vector 10 Network.player boss_response_time_stat:vector ETV
attr source signal_boss_response_time
vector 11 Network.player minion_throughput:vector ETV
attr source signal_minion_throughput
vector 12 Network.player boss_throughput:vector ETV
attr source signal_boss_throughput
0	0	0	0
0	2	0.940546959721	1
0	5	2.660769914769	1
0	7	3.518362486366	2
0	11	12.94375859539	1
0	14	18.223891613344	1
0	17	19.638285089342	1
0	19	19.697426604138	2
0	22	20.781551379889	2
0	24	20.786540620191	3
0	26	21.774507173782	4
0	31	24.838651780023	2
0	33	26.775145965039	3
0	36	26.860461346994	3
0	38	27.046812619425	4
0	40	28.346964833336	5
0	42	28.571520032493	6
0	46	29.469488024248	7
0	50	32.356719985099	8
0	60	42.238619826097	9
0	63	44.893832646121	10
0	67	45.36310883049	11
0	69	48.298347563424	12
0	71	53.014503343331	13
0	73	53.036164991064	14
0	75	54.257590028168	15
0	77	54.35854086709	16
0	84	57.349790272414	15
0	87	58.402049306923	15
0	89	58.450617278932	16
0	93	60.857831931091	15
0	95	61.90181537861	16
0	99	62.647475846305	15
0	101	62.770631436096	16
0	103	64.461103166138	17
0	105	65.167943809469	18
0	109	66.130498362875	17
0	117	75.921619062674	16
0	120	77.031408406712	17
0	122	79.845646729899	18
0	126	85.258883550577	19
0	128	88.732056546106	20
0	130	89.776554069921	21
0	132	91.62747548537	22
0	134	93.165303787714	23
0	137	98.966651115921	24
0	140	99.964533949445	25
0	146	109.041945423998	22
0	149	111.26531274389	22
0	154	114.44835132063	20
0	157	115.172755848841	20
0	159	115.576366593659	21
0	166	123.721292462515	17
0	168	124.258017927535	18
0	170	124.917916329019	19
0	173	125.431961723374	19
0	178	127.231346839293	19
0	181	127.739117726611	20
0	183	127.900782475448	21
0	185	128.330321022554	22
0	190	129.689313004669	20
0	196	131.309949962152	17
0	202	135.879276915052	14
0	205	136.594623904173	14
0	209	138.987502993277	13
0	213	141.926438853816	12
0	215	142.351762588341	13
0	217	142.949012656489	14
0	231	156.105200787015	6
0	233	156.408830582671	7
0	236	157.023740465095	7
0	238	157.365786492105	8
0	240	158.44234708065	9
0	242	158.930178749253	10
0	244	159.2329291438	11
0	247	159.583841457663	11
0	250	160.13183531139	11
0	252	160.429112213702	12
0	256	162.201036995767	11
0	268	167.520270029131	6
0	274	168.561778482562	5
0	277	170.17184514764	5
0	279	170.414536497774	6
0	282	171.231991689217	6
0	290	175.55461471751	1
0	293	178.729435833157	1
0	295	179.288754726125	2
0	298	179.921170003876	2
0	302	181.298030964566	3
0	304	181.769174986639	4
0	306	181.813755496121	5
0	309	182.181339639168	6
0	311	182.700224160724	7
0	314	184.691314194576	7
0	324	190.779365334053	4
0	326	191.156926621354	5
0	329	191.880585674905	6
0	331	193.531099626097	7
0	335	195.545505394921	7
0	339	197.296669083911	6
0	341	198.53096848748	7
0	344	200.092437316372	7
0	347	201.235345388643	7
0	350	203.48548141133	7
0	353	204.666637177062	7
0	357	207.115011523184	6
0	360	207.279508578545	6
0	363	208.414261419499	6
0	367	210.662391120181	5
0	371	213.725634009113	6
0	373	213.747450478184	7
0	375	215.311689866155	8
0	377	217.053984115731	9
0	379	218.100763310172	10
0	383	221.75121928499	11
0	385	221.802808030358	12
0	387	222.365023455226	13
0	389	223.437615145653	14
0	391	223.714668207365	15
0	393	226.02520536139	16
0	395	229.188899473297	17
0	402	238.214861383371	15
0	410	244.863574239203	10
0	416	247.883059992476	7
0	418	248.263845295661	8
0	420	249.339669676615	9
0	422	249.815048011125	10
0	426	252.445736425674	9
0	431	256.291317266463	7
0	435	257.173723692823	6
0	439	257.599182014261	5
0	442	258.021002888416	5
0	445	259.4128230051	5
0	449	261.850200666442	4
0	455	264.594076294882	4
0	459	265.410858579239	5
0	462	267.485274696262	6
0	464	267.91413056514	7
0	467	270.714776234573	7
0	470	270.903317018522	7
0	482	284.369063907446	1
0	485	286.615491172922	1
0	487	286.914113386908	2
0	489	287.340174661992	3
0	493	288.85983421849	2
0	497	290.316731978151	1
0	500	292.428134153886	1
0	505	297.31022385952	1
0	507	299.24478148831	2
0	509	304.736964839758	3
0	513	307.166016785669	4
0	517	310.431056030152	5
0	520	313.822722363615	6
0	522	314.919424520652	7
0	524	315.556724482945	8
0	527	317.600196000226	9
0	529	318.519230471166	10
0	540	327.311837636424	5
0	542	328.128219247858	6
0	544	330.183683810598	7
0	548	332.757140963024	8
0	550	333.400860830126	9
0	553	334.928999383703	10
0	555	335.081373637729	11
0	557	336.724275041194	12
0	559	338.374151789127	13
0	568	344.064326788827	11
0	571	345.64840942433	11
0	576	346.660895525044	9
0	578	347.224638106639	10
0	580	347.381952686257	11
0	583	349.008825341938	11
0	585	349.712845816235	12
0	587	349.853932209214	13
0	589	350.668882302003	14
0	594	353.683198644321	12
0	600	356.841802052955	9
0	604	360.035735475457	8
0	607	360.191667233207	8
0	609	360.592714581835	9
0	613	361.734971458757	10
0	619	364.614070362039	8
0	621	364.783203198425	9
0	623	366.848584726573	10
0	634	376.934842285166	7
0	639	379.586988661364	6
0	641	379.804281875695	7
0	644	381.654341201425	7
0	647	382.379085871016	7
0	649	382.944877762822	8
0	651	383.898198244567	9
0	653	384.648352483691	10
0	657	387.384876517674	9
0	663	392.300304585219	6
0	666	393.043332309156	6
0	669	395.228651936587	6
0	671	395.421217022839	7
0	678	400.409833337335	6
0	683	402.964960994828	4
0	685	405.287166380586	5
0	687	405.349323855658	6
0	690	406.855357604069	6
0	695	408.166426861699	6
0	697	408.346300394764	7
0	699	408.878835112759	8
0	701	411.508014282839	9
0	703	412.935729885819	10
0	707	420.128688018161	10
0	713	421.947077820763	7
0	716	422.911037311367	7
0	719	423.940017674541	7
0	727	428.250470791719	2
0	731	429.042993422276	1
0	736	431.245163911144	1
0	741	432.560367238352	2
0	743	435.279913559328	3
0	751	441.280043630944	4
0	753	442.582085204468	5
0	755	444.764504787807	6
0	757	445.90367654874	7
0	759	447.471305377074	8
0	765	448.433879467455	8
0	767	449.962366036139	9
0	771	452.135429512146	10
0	774	455.276271469814	11
0	782	459.918731563398	7
0	785	461.183511981903	7
0	787	461.609994512247	8
0	791	462.260041733491	9
0	793	462.303462665607	10
0	795	463.420797774657	11
0	797	464.250505895589	12
0	799	464.978892016257	13
0	804	469.031742088382	12
0	816	478.696903371179	8
0	820	481.805402526208	8
0	822	482.906869328089	9
0	824	483.780538408517	10
0	826	483.898683386297	11
0	828	486.433137062031	12
0	831	487.477309575346	12
0	834	487.863037529357	12
0	837	492.242015590941	12
0	839	492.720148890137	13
0	842	492.97732302569	13
0	848	500.016899499876	10
0	850	500.16823929309	11
0	852	500.272158667196	12
0	857	501.756411121305	10
0	861	505.340380326676	9
0	869	509.808322518055	9
0	874	512.768027034959	8
0	878	514.52933499364	7
0	885	518.77089417765	3
0	887	519.039360249338	4
0	891	522.782319276971	5
0	893	523.448676744571	6
0	897	527.255271954043	6
0	900	529.396297025613	6
0	902	530.324315947513	7
0	904	532.257082641619	8
0	907	532.904222183789	8
0	911	534.536496582174	7
0	915	536.344906213496	6
0	917	536.787219496914	7
0	923	538.926394715657	4
0	928	540.496744681824	2
0	932	540.890536314168	1
0	934	542.022401752815	2
0	937	543.912501381914	2
0	939	544.411247333694	3
0	942	545.353886449571	3
0	946	549.106992405773	2
0	950	551.090048105702	1
0	953	553.240210365155	1
0	956	553.447417953317	1
0	958	553.750991574297	2
0	960	553.948974788088	3
0	963	557.311151268367	3
0	968	560.540872372002	1
0	973	563.512057523117	1
0	975	564.091196563125	2
0	977	566.83163214672	3
0	981	567.146927825556	4
0	985	568.284969730727	5
0	987	568.329233723339	6
0	989	568.617767071514	7
0	991	568.887837030287	8
0	993	569.112467794096	9
0	996	572.85172908405	10
0	998	574.022258579698	11
0	1002	577.854759981643	12
0	1005	578.909518531972	13
0	1011	582.534444362685	14
0	1013	583.789502554647	15
0	1015	585.08022670341	16
0	1017	586.386035189233	17
0	1019	586.57497450055	18
0	1023	587.694004074607	19
0	1026	589.702416940186	20
0	1029	592.036078556242	21
0	1031	598.208398400256	22
0	1033	598.497331369528	23
0	1038	603.573742735297	24
0	1046	607.404533846474	19
0	1049	608.8778875459	19
0	1052	611.038888658468	19
0	1064	617.502056539928	13
0	1067	619.501161136865	13
0	1069	619.877608879569	14
0	1071	621.242127096726	15
0	1073	622.108082882387	16
0	1075	623.521163657157	17
0	1081	625.806250028108	14
0	1085	628.715098848801	13
0	1090	631.457830384864	13
0	1092	632.787373921162	14
0	1096	633.632344219899	14
0	1101	636.038098731266	12
0	1103	636.18669138862	13
0	1110	639.758269929707	11
0	1112	640.144756732864	12
0	1116	644.510389477042	13
0	1124	649.185527658254	14
0	1126	650.103248217508	15
0	1130	652.414804817877	16
0	1132	653.426139682935	17
0	1134	654.71582341445	18
0	1138	654.997747250613	19
0	1141	658.440675154275	20
0	1144	659.991396825641	21
0	1146	661.251516361079	22
0	1148	664.113152285961	23
0	1150	668.936096649742	24
0	1155	678.021075541789	25
0	1158	678.907065322161	26
0	1162	689.158277263477	27
0	1164	692.950230658163	28
0	1171	701.526501553233	29
0	1173	704.158728280156	30
0	1175	704.949407552948	31
0	1177	705.103171706973	32
0	1179	706.555558687204	33
0	1181	706.958750943358	34
0	1185	711.789236957378	35
0	1188	713.074753223255	36
0	1192	715.277426426435	35
0	1200	718.191410462644	30
0	1203	720.41841146946	30
0	1208	722.791365203484	28
0	1215	725.269486821274	26
0	1217	725.369835617983	27
0	1219	729.441362452899	28
0	1221	731.365281956341	29
0	1224	733.336411084174	30
0	1233	738.243204592191	24
0	1239	739.369535535905	21
0	1245	743.8871018246	18
0	1248	744.546221324827	18
0	1251	745.79532483684	18
0	1254	746.529742598516	18
0	1256	746.657303200635	19
0	1265	753.59465474281	13
0	1269	757.337404028442	12
0	1273	758.682128233724	11
0	1285	765.245135582277	2
0	1289	768.556542234461	1
0	1293	773.540506602795	2
0	1295	774.958025066678	3
0	1297	776.934754852217	4
0	1299	778.389682476312	5
0	1301	779.073145479341	6
0	1303	780.700985754905	7
0	1305	780.999002692411	8
0	1310	786.3017345743	7
0	1313	788.05853375112	7
0	1316	790.029007065485	7
0	1327	797.43730204989	4
0	1329	799.583759764157	5
0	1331	800.177437608294	6
0	1333	801.617444299831	7
0	1335	802.540733780286	8
0	1337	802.823386434866	9
0	1339	803.425128769913	10
0	1341	803.462137521251	11
0	1343	803.665923448838	12
0	1348	805.602944059336	11
0	1355	808.218124981703	11
0	1357	808.402245192134	12
0	1359	808.686078634735	13
0	1361	809.312998457285	14
0	1365	813.892161929399	15
0	1372	816.895547823052	15
0	1374	817.889844962813	16
0	1377	821.481610987503	17
0	1379	822.414004727721	18
0	1384	824.361759111404	17
0	1388	826.312631337729	16
0	1394	827.90735131971	15
0	1400	829.144710104463	13
0	1403	829.864251448553	13
0	1411	835.138938627697	11
0	1415	835.4661186151	10
0	1417	835.571403956215	11
0	1421	837.465262914638	10
0	1423	838.124927481068	11
0	1426	840.144831606942	11
0	1428	840.342629164874	12
0	1430	840.81400289754	13
0	1436	842.329751642872	10
0	1438	842.958541722219	11
0	1440	842.987645093672	12
0	1443	844.036231073614	12
0	1445	844.335775081576	13
0	1448	845.396084076957	13
0	1450	845.696609997175	14
0	1452	846.877854346136	15
0	1455	847.590809655067	15
0	1457	849.111040425185	16
0	1467	852.702645708882	9
0	1475	857.237671726048	4
0	1479	858.625415800676	3
0	1481	859.399189796908	4
0	1484	861.973731799978	4
0	1488	864.513320440418	3
0	1490	864.56260869486	4
0	1492	864.8135549655	5
0	1495	866.125323468155	5
0	1499	867.566363404015	6
0	1501	868.656127731646	7
0	1503	869.166202083337	8
0	1505	870.84222130461	9
0	1510	876.286606209581	10
0	1512	878.334362323141	11
0	1514	879.49736835504	12
0	1516	879.542055469037	13
0	1518	880.072671928273	14
0	1522	882.913568082118	14
0	1525	883.618230367066	14
0	1528	884.72643425199	14
0	1534	886.698307397806	11
0	1538	888.010320609187	10
0	1541	888.738159297896	10
0	1545	891.762268639728	9
0	1550	893.442053862776	7
0	1553	895.643121392581	7
0	1556	896.654975479655	7
0	1561	897.859151455871	5
0	1563	897.95730294191	6
0	1566	898.957965168057	6
0	1569	899.231661218407	6
0	1574	900.26066786747	6
0	1579	902.910230266001	5
0	1582	903.208652209965	5
0	1584	903.31829302434	6
0	1588	906.916037193617	5
0	1596	910.055889503051	3
0	1599	912.091352668904	3
0	1604	919.963035114384	1
0	1610	924.382225010228	1
0	1613	926.74532250554	1
0	1621	933.157526141895	2
0	1624	934.755671517967	2
0	1629	936.99232327182	2
0	1633	937.318014677937	3
0	1635	937.770728663671	4
0	1641	946.514467294691	5
0	1643	946.778853527962	6
0	1648	950.165858767278	7
0	1650	950.952332096943	8
0	1661	964.941645131733	1
0	1664	966.358856002841	1
0	1667	966.695839751247	1
0	1669	967.104511499878	2
0	1672	967.146355661023	2
0	1676	967.579151127572	1
0	1678	968.397106953285	2
0	1681	969.022848256972	2
0	1684	970.147432159976	2
0	1688	971.201359473282	1
0	1691	973.570605211702	1
0	1693	973.987324713485	2
0	1696	975.880050643507	2
0	1704	980.245077259361	1
0	1706	980.808437137807	2
0	1708	982.03826732693	3
0	1711	983.736638291315	4
0	1713	985.203480394117	5
0	1715	987.908464633553	6
0	1719	996.323351114127	7
0	1721	996.670070142852	8
0	1723	997.55231252216	9
0	1726	998.801435841563	10
0	1730	1000.827237143606	10
0	1736	1004.484446855756	9
0	1738	1004.763034234927	10
0	1748	1016.218563218445	4
0	1754	1019.898764737429	1
0	1758	1020.53836473801	2
0	1760	1021.208219458235	3
0	1763	1022.511462493375	4
0	1769	1026.093108061918	1
0	1772	1027.789333522958	1
0	1775	1029.672100370163	1
0	1777	1029.934477553724	2
0	1783	1033.881006159124	1
0	1788	1037.734260241811	2
0	1792	1039.864973285393	2
0	1796	1041.902964996979	1
0	1799	1048.084393890817	1
0	1801	1048.37232235753	2
0	1804	1049.818931574588	2
0	1806	1049.918212778283	3
0	1811	1050.962307139965	1
0	1814	1053.490681443037	1
0	1817	1054.494686056722	1
0	1820	1056.429704889339	1
0	1822	1056.904681004312	2
0	1824	1059.598235980767	3
0	1826	1060.87556882781	4
0	1828	1061.409716123711	5
0	1831	1062.703310931021	5
0	1835	1067.188518657153	6
0	1840	1074.074145107394	5
0	1847	1079.033308471039	1
0	1852	1080.960225227914	1
0	1854	1081.895076455156	2
0	1860	1083.520727589982	3
0	1863	1086.537560883489	4
0	1865	1087.403996739798	5
0	1867	1088.044150337013	6
0	1869	1088.0823397393	7
0	1872	1088.125211299744	8
0	1874	1088.863652113805	9
0	1876	1090.047978300894	10
0	1878	1090.750883243334	11
0	1880	1092.114416650695	12
0	1882	1092.177914493878	13
0	1887	1093.758550055318	14
0	1890	1098.481276215458	15
0	1892	1098.53913653471	16
0	1894	1098.725384263539	17
0	1896	1099.184572006309	18
0	1907	1105.011847126183	13
0	1915	1107.882406224096	10
0	1917	1108.266207285676	11
0	1925	1110.600859486004	12
0	1927	1114.417988491688	13
0	1929	1116.535051091953	14
0	1931	1117.653280537609	15
0	1933	1119.500751341235	16
0	1935	1119.976929890805	17
0	1937	1121.820880406491	18
0	1939	1126.923450557927	19
0	1941	1127.071940480138	20
0	1944	1130.705928264854	21
0	1953	1135.242379049862	15
0	1955	1135.347930690272	16
0	1962	1138.788796896166	16
0	1971	1142.823868704688	17
0	1973	1144.405190055439	18
0	1975	1145.050544472942	19
0	1977	1145.318110288322	20
0	1980	1147.002288402893	21
0	1984	1148.907509855049	22
0	1988	1152.298859288528	23
0	1990	1153.258619348561	24
0	1992	1153.498881145341	25
0	1996	1157.273447746971	26
0	1998	1157.631040056745	27
0	2000	1157.703848666284	28
0	2003	1158.381353070061	29
0	2005	1159.1671652079	30
0	2009	1161.814602767643	31
0	2011	1162.072120778937	32
0	2018	1164.770521924795	30
0	2020	1165.680206494864	31
0	2022	1167.157354198723	32
0	2024	1167.283658310665	33
0	2026	1168.168513842928	34
0	2028	1168.750003357996	35
0	2030	1169.209563052714	36
0	2036	1169.97836545341	37
0	2043	1176.458289698886	38
0	2045	1176.512352357362	39
0	2047	1176.543037894087	40
0	2049	1181.181941204862	41
0	2052	1181.765671913567	42
0	2060	1183.779836772351	39
0	2064	1189.178955479181	39
0	2068	1192.37105607297	38
0	2070	1193.057673059758	39
0	2074	1195.264864006872	38
0	2080	1197.486139584191	35
0	2084	1198.514008852822	34
0	2086	1199.350839941182	35
0	2091	1201.197525880641	33
0	2093	1203.110017313539	34
0	2096	1203.677576890242	34
0	2101	1206.004475259248	32
0	2105	1207.47558927829	31
0	2108	1207.814282797105	31
0	2125	1219.936946495964	19
0	2127	1220.473125103403	20
0	2129	1220.724046596596	21
0	2131	1221.556327582569	22
0	2138	1224.744876977315	19
0	2143	1227.308551737749	17
0	2146	1227.833074521521	17
0	2157	1235.341376687555	12
0	2159	1235.658114774899	13
0	2163	1239.536304253136	12
0	2169	1242.237555894009	9
0	2172	1243.192850966087	9
0	2174	1243.449509537571	10
0	2179	1246.462059919142	8
0	2182	1247.31110356657	8
0	2184	1249.304951212121	9
0	2186	1250.649528900834	10
0	2189	1253.87390342592	10
0	2193	1254.994248197191	9
0	2199	1258.642016313118	6
0	2205	1262.454974463834	3
0	2210	1264.798150558775	1
0	2213	1267.154771215193	1
0	2215	1267.294685417967	2
0	2217	1267.735124687761	3
0	2219	1268.163858296175	4
0	2223	1268.693376060816	3
0	2231	1278.67203511415	1
0	2234	1279.50181466035	1
0	2237	1280.168251371761	1
0	2240	1282.845255043686	1
0	2245	1283.771347908376	2
0	2247	1284.944894895752	3
0	2249	1285.47396416205	4
0	2255	1289.97523056794	4
0	2262	1292.651138215247	5
0	2264	1296.038608632161	6
0	2268	1297.537269130125	6
0	2276	1305.029175993482	1
0	2279	1307.907902550962	1
0	2281	1308.037455962602	2
0	2283	1308.647736997671	3
0	2286	1309.184868358521	3
0	2291	1311.189533748175	1
0	2293	1311.628443717609	2
0	2297	1313.352901321096	1
0	2302	1314.845287501561	1
0	2304	1315.184009188077	2
0	2306	1315.719351902336	3
0	2308	1315.759667036351	4
0	2314	1318.280933998907	4
0	2316	1321.219358397075	5
0	2320	1321.978016165639	6
0	2324	1322.233284749411	7
0	2333	1328.673176533761	1
0	2336	1330.173839201805	1
0	2338	1330.788853050059	2
0	2342	1334.331886623205	1
0	2347	1339.596257082442	1
0	2352	1341.100220211824	2
0	2354	1341.778626462737	3
0	2356	1343.585920632913	4
0	2358	1344.587081963072	5
0	2360	1344.906658486714	6
0	2364	1346.329941607442	6
0	2366	1346.813949019012	7
0	2369	1347.894643464596	7
0	2372	1348.536808768671	7
0	2375	1349.748031648495	7
0	2381	1352.327074213597	6
0	2383	1353.194430877913	7
0	2386	1358.400425543467	8
0	2390	1359.209913445374	7
0	2393	1361.154155856776	7
0	2395	1361.381089943959	8
0	2399	1362.099663868509	7
0	2409	1372.843009323203	3
0	2411	1372.924646503007	4
0	2413	1372.955143780439	5
0	2416	1373.820429266014	5
0	2420	1374.494256893304	6
0	2422	1374.939843365834	7
0	2424	1375.024770166284	8
0	2426	1375.345383603333	9
0	2428	1376.038912826228	10
0	2430	1378.366634775906	11
0	2432	1380.197349502469	12
0	2434	1380.454185357526	13
0	2436	1380.878655932437	14
0	2438	1386.328551708016	15
0	2445	1390.205837095247	14
0	2447	1393.723636120715	15
0	2449	1393.849025395865	16
0	2456	1395.175916829579	13
0	2458	1395.543658287392	14
0	2460	1395.608387043605	15
0	2465	1396.516619233817	13
0	2467	1396.835095771867	14
0	2471	1398.642339683067	13
0	2475	1400.169582599027	12
0	2477	1401.23828779376	13
0	2480	1401.468089914978	13
0	2482	1402.141690908878	14
0	2487	1403.270890483241	14
0	2489	1404.792032206643	15
0	2491	1404.977839498186	16
0	2495	1405.541818635906	17
0	2501	1410.046820090552	18
0	2503	1414.269107539468	19
0	2505	1414.661916868766	20
0	2512	1416.20764289721	17
0	2516	1418.282792423925	16
0	2523	1423.202054213084	16
0	2525	1423.778818497278	17
0	2534	1430.201472513118	13
0	2538	1431.223038729292	12
0	2540	1431.801707858447	13
0	2542	1432.784931949397	14
0	2544	1433.215538717219	15
0	2546	1434.862225162324	16
0	2550	1437.480684590166	15
0	2553	1441.481049635294	15
0	2555	1442.078657936986	16
0	2558	1443.694668173058	16
0	2560	1444.592053033935	17
0	2562	1445.000658989215	18
0	2567	1447.191713554122	16
0	2570	1448.465463184775	16
0	2581	1454.553445868121	8
0	2583	1455.007768527497	9
0	2587	1455.708165407408	8
0	2593	1456.501197800785	7
0	2595	1458.674971476265	8
0	2597	1458.980588103742	9
0	2605	1464.937727307916	5
0	2611	1468.098486690598	2
0	2614	1468.992527005545	2
0	2618	1472.622222649443	1
0	2620	1473.227459400151	2
0	2622	1474.116039370115	3
0	2625	1474.263226077488	3
0	2629	1476.736318677943	2
0	2633	1479.258597514166	1
0	2636	1481.039577948346	1
0	2638	1481.672349227576	2
0	2644	1484.646137178314	2
0	2648	1486.283187762476	3
0	2650	1487.289263295538	4
0	2654	1488.478724895917	4
0	2657	1488.606676715441	4
0	2665	1492.305292549942	2
0	2668	1492.339300930532	2
0	2672	1494.320434370735	3
0	2676	1496.555421387038	3
0	2679	1499.249021183156	3
0	2681	1499.394880377442	4
0	2683	1499.724769063403	5
0	2689	1502.251260758941	2
0	2691	1502.765297583733	3
0	2693	1503.007786511605	4
0	2701	1507.063172621342	2
0	2704	1509.64223255143	2
0	2708	1511.873527182486	1
0	2710	1511.982878291179	2
0	2712	1512.439796372688	3
0	2715	1513.025136728548	3
0	2718	1514.678879119807	3
0	2722	1515.368068373983	2
0	2726	1515.895825311261	1
0	2728	1517.20135633138	2
0	2732	1519.216130363582	1
0	2737	1528.30518470042	1
0	2739	1528.342746515176	2
0	2741	1528.523434186933	3
0	2745	1529.760132567489	3
0	2750	1532.40204985982	4
0	2752	1532.508458464506	5
0	2757	1534.226896233445	3
0	2762	1536.871187277112	1
0	2764	1537.042308968315	2
0	2768	1541.40654541789	3
0	2770	1542.529079495355	4
0	2779	1548.004444164788	2
0	2782	1549.454203448844	2
0	2786	1553.103501038075	1
0	2789	1554.480412860618	1
0	2792	1558.402734633357	1
0	2795	1561.381693074825	1
0	2798	1562.78361102206	1
0	2800	1563.461024558942	2
0	2806	1566.314397099505	1
0	2810	1566.551613748463	2
0	2812	1568.785772935364	3
0	2814	1569.193757710575	4
0	2817	1571.0636283347	5
0	2819	1572.351452678162	6
0	2821	1574.996162494859	7
0	2825	1576.90129575243	7
0	2829	1577.258503506535	6
0	2833	1578.555682121555	5
0	2837	1580.425049885417	4
0	2840	1581.050050675655	4
0	2842	1581.260718052852	5
0	2846	1582.213981415061	4
0	2849	1582.669496510992	4
0	2854	1583.818702194593	2
0	2864	1587.123902676656	3
0	2866	1587.472517604492	4
0	2868	1587.972129054257	5
0	2870	1589.805483634184	6
0	2874	1593.400964727341	6
0	2878	1596.972088306302	5
0	2881	1598.108042118414	5
0	2883	1598.463367798298	6
0	2886	1602.183208091902	6
0	2888	1603.157715064537	7
0	2890	1605.108522556193	8
0	2892	1605.881259683703	9
0	2895	1606.701334734904	9
0	2898	1609.694744246522	9
0	2903	1611.029827936004	7
0	2908	1615.216428674013	5
0	2914	1617.363928588532	5
0	2916	1617.707099247734	6
0	2918	1618.135389588106	7
0	2922	1621.036360737413	6
0	2926	1623.859146355996	5
0	2930	1625.343009755668	4
0	2932	1625.593455081058	5
0	2934	1625.661592840847	6
0	2936	1625.749905821381	7
0	2938	1626.04063477621	8
0	2940	1628.261036226556	9
0	2949	1632.659636156172	3
0	2956	1635.971628274581	3
0	2963	1646.08031793795	4
0	2965	1646.327338045949	5
0	2967	1646.520149476707	6
0	2969	1647.795823418936	7
0	2971	1648.160425807692	8
0	2973	1649.937713367596	9
0	2978	1655.929257132708	10
0	2980	1656.04819163226	11
0	2982	1656.151067119144	12
0	2984	1658.203632485163	13
0	2986	1659.93560932318	14
0	2989	1662.006144172924	15
0	2991	1663.012525063509	16
0	2994	1665.067005614134	17
0	2996	1666.415845353496	18
0	2998	1666.937825555383	19
0	3001	1668.492492778517	20
0	3008	1671.688482324294	18
0	3012	1675.303853141209	18
0	3016	1677.586783983626	17
0	3018	1677.672845327167	18
0	3022	1680.337755960128	17
0	3024	1680.721802595438	18
0	3026	1681.110418996911	19
0	3029	1682.010802164955	19
0	3034	1684.47462082759	17
0	3037	1686.561268683933	17
0	3040	1687.126189917887	17
0	3044	1689.639332649483	16
0	3050	1692.382475521985	13
0	3053	1693.152498380552	13
0	3059	1695.021276242783	10
0	3064	1699.23117032689	10
0	3066	1701.02122514389	11
0	3072	1704.875444590479	11
0	3074	1705.341478316855	12
0	3076	1707.669769499101	13
0	3078	1708.562156519056	14
0	3080	1710.564505646582	15
0	3082	1711.621399411112	16
0	3084	1711.706319215666	17
0	3086	1716.903646888	18
0	3088	1718.365776068878	19
0	3090	1718.45892292672	20
0	3092	1723.401780119743	21
0	3094	1726.257225147924	22
0	3096	1726.700187073483	23
0	3098	1728.427524150083	24
0	3100	1729.590857934051	25
0	3102	1729.810756368191	26
0	3104	1730.268049524249	27
0	3106	1733.130117927322	28
0	3108	1736.762025436117	29
0	3110	1737.06699902219	30
0	3118	1743.440032789332	28
0	3120	1743.723463480781	29
0	3122	1744.159778981257	30
0	3125	1746.984654603352	31
0	3129	1747.782538176782	32
0	3133	1749.362642093574	32
0	3141	1753.645426932805	27
0	3143	1754.363459693535	28
0	3146	1754.748904249782	28
0	3148	1755.269329864433	29
0	3150	1755.635025499675	30
0	3155	1756.31169221872	30
0	3158	1756.962935908932	31
0	3170	1761.83136972197	25
0	3181	1768.38124885025	22
0	3185	1771.404726793961	23
0	3187	1771.555225120305	24
0	3189	1772.857423873468	25
0	3192	1774.171048300481	26
0	3194	1775.493846110409	27
0	3198	1776.838066559533	27
0	3203	1780.678663116762	25
0	3208	1782.120696046504	23
0	3212	1785.184255227357	22
0	3214	1786.399236121164	23
0	3218	1787.258633816785	24
0	3220	1788.263329782818	25
0	3223	1789.213239998469	26
0	3228	1792.34570857537	24
0	3230	1793.230103390136	25
0	3232	1793.351345487365	26
0	3244	1799.432528825031	23
0	3247	1801.615250502972	23
0	3251	1801.945990116613	22
0	3253	1802.69584260228	23
0	3257	1805.258107054925	22
0	3272	1814.1775679885	15
0	3274	1814.567163613458	16
0	3276	1815.393077288707	17
0	3280	1820.663748419719	17
0	3283	1820.74953464844	17
0	3287	1822.365185781652	18
0	3289	1827.971388965523	19
0	3292	1828.468571427676	20
0	3294	1829.178744303774	21
0	3304	1833.470881634315	19
0	3306	1833.951014088423	20
0	3308	1835.845090951706	21
0	3316	1838.183880702946	17
0	3318	1838.909785942623	18
0	3320	1839.072506813435	19
0	3328	1843.273326489033	17
0	3331	1844.03041992774	17
0	3340	1848.775364537675	11
0	3343	1849.532498450927	11
0	3347	1850.530048737576	10
0	3352	1855.831198730964	8
0	3361	1860.086611725944	7
0	3363	1861.967901452065	8
0	3365	1862.822793052382	9
0	3367	1865.009820323458	10
0	3369	1865.435982534627	11
0	3373	1868.356244484259	12
0	3375	1871.874444587768	13
0	3382	1874.444815561664	14
0	3384	1874.540074802961	15
0	3388	1875.625290524943	16
0	3390	1876.161107043915	17
0	3394	1878.672244732463	18
0	3401	1884.731674718778	19
0	3403	1885.106622584085	20
0	3405	1885.418069301937	21
0	3407	1887.265088532177	22
0	3409	1888.856671298448	23
0	3411	1891.457235388126	24
0	3414	1893.972724959275	25
0	3416	1894.257352809733	26
0	3418	1896.050604938545	27
0	3423	1900.47195423158	28
0	3426	1903.531498891243	29
0	3428	1904.544712575563	30
0	3430	1906.352265608324	31
0	3434	1910.973276486163	32
0	3436	1911.41256700649	33
0	3438	1912.713717478007	34
0	3441	1915.406694848408	35
0	3443	1918.46432305035	36
0	3445	1918.752288764668	37
0	3447	1924.06580260301	38
0	3449	1924.889226376949	39
0	3451	1925.446002981207	40
0	3453	1926.153604378806	41
0	3457	1927.633263082235	41
0	3459	1927.811971072814	42
0	3463	1929.339880862523	41
0	3471	1933.131559437445	36
0	3473	1934.467966777224	37
0	3475	1934.762485567631	38
0	3477	1934.774040134184	39
0	3484	1937.27333991825	37
0	3494	1943.765888546636	35
0	3496	1944.431159405114	36
0	3502	1953.483220009818	37
0	3504	1956.056547237197	38
0	3506	1956.879899091368	39
0	3508	1958.037337545669	40
0	3510	1958.225306532238	41
0	3514	1959.790433492654	42
0	3516	1960.86450238796	43
0	3518	1961.507847751945	44
0	3520	1961.65682693291	45
0	3523	1963.37378875506	46
0	3525	1964.475299931718	47
0	3530	1975.566124202726	48
0	3532	1977.350397635931	49
0	3534	1977.484546954689	50
0	3536	1977.98736197307	51
0	3538	1978.465733957297	52
0	3540	1979.200460888501	53
0	3544	1983.30393550052	54
0	3546	1986.994386118837	55
0	3548	1990.455167760654	56
0	3551	1993.210253108178	57
0	3553	1993.903858928652	58
0	3557	1994.600261380722	58
0	3559	1995.177590758187	59
0	3567	1996.14018431189	58
0	3569	1996.683930420526	59
0	3571	1996.808225338629	60
1	0	0	0
1	2	0.940546959721	0
1	3	1.540952937206	0
1	5	2.660769914769	0
1	7	3.518362486366	1
1	8	4.222668381931	1
1	9	4.578391085362	0
1	11	12.94375859539	0
1	12	12.983753959214	0
1	14	18.223891613344	0
1	15	18.486506119989	0
1	17	19.638285089342	0
1	19	19.697426604138	1
1	20	19.830473508576	1
1	22	20.781551379889	1
1	24	20.786540620191	2
1	26	21.774507173782	3
1	27	21.995938412422	3
1	28	22.037506131318	2
1	29	22.243846138947	1
1	31	24.838651780023	1
1	33	26.775145965039	2
1	34	26.821032021934	2
1	36	26.860461346994	2
1	38	27.046812619425	3
1	40	28.346964833336	4
1	42	28.571520032493	5
1	46	29.469488024248	6
1	50	32.356719985099	7
1	60	42.238619826097	8
1	63	44.893832646121	9
1	67	45.36310883049	10
1	69	48.298347563424	11
1	71	53.014503343331	12
1	73	53.036164991064	13
1	75	54.257590028168	14
1	77	54.35854086709	15
1	81	57.108116596897	15
1	82	57.154581784924	14
1	84	57.349790272414	14
1	85	57.813742310177	14
1	87	58.402049306923	14
1	89	58.450617278932	15
1	90	59.239632083692	15
1	91	60.470249097316	14
1	93	60.857831931091	14
1	95	61.90181537861	15
1	96	61.990482375775	15
1	97	62.082386556791	14
1	99	62.647475846305	14
1	101	62.770631436096	15
1	103	64.461103166138	16
1	105	65.167943809469	17
1	106	65.606865527473	17
1	107	65.758558936247	16
1	109	66.130498362875	16
1	110	66.758251846675	16
1	111	67.884799707501	15
1	117	75.921619062674	15
1	120	77.031408406712	16
1	122	79.845646729899	17
1	126	85.258883550577	18
1	128	88.732056546106	19
1	130	89.776554069921	20
1	132	91.62747548537	21
1	134	93.165303787714	22
1	137	98.966651115921	23
1	140	99.964533949445	24
1	141	102.425892337554	24
1	142	104.401353649355	23
1	143	106.105457933967	22
1	144	106.962750471131	21
1	146	109.041945423998	21
1	147	109.251675332405	21
1	149	111.26531274389	21
1	150	111.940412498124	21
1	151	113.303661791266	20
1	152	113.809137028391	19
1	154	114.44835132063	19
1	155	115.10685459863	19
1	157	115.172755848841	19
1	159	115.576366593659	20
1	160	117.820362707565	20
1	161	117.983932513438	19
1	162	118.115340655068	18
1	163	119.429762148805	17
1	164	120.652165796562	16
1	166	123.721292462515	16
1	168	124.258017927535	17
1	170	124.917916329019	18
1	171	125.338634691345	18
1	173	125.431961723374	18
1	174	125.669577192428	18
1	178	127.231346839293	18
1	181	127.739117726611	19
1	183	127.900782475448	20
1	185	128.330321022554	21
1	186	128.39249643627	21
1	187	128.431864551118	20
1	188	128.459640642919	19
1	190	129.689313004669	19
1	191	130.338302469548	19
1	192	130.369078571128	18
1	193	130.503933443083	17
1	194	130.526033766142	16
1	196	131.309949962152	16
1	197	131.481818652263	16
1	198	132.25615904249	15
1	199	133.502960645312	14
1	200	133.58365731393	13
1	202	135.879276915052	13
1	203	135.901611034256	13
1	205	136.594623904173	13
1	206	138.079690833277	13
1	207	138.193385493392	12
1	209	138.987502993277	12
1	210	141.728514511531	12
1	211	141.845051377203	11
1	213	141.926438853816	11
1	215	142.351762588341	12
1	217	142.949012656489	13
1	218	143.612865496916	13
1	219	143.771725696294	12
1	220	144.416980041068	11
1	221	145.963070131997	10
1	222	146.992369802291	9
1	223	148.303098531859	8
1	224	149.440962357412	7
1	225	153.538852151552	6
1	226	154.34043578583	5
1	231	156.105200787015	5
1	233	156.408830582671	6
1	234	157.016183647979	6
1	236	157.023740465095	6
1	238	157.365786492105	7
1	240	158.44234708065	8
1	242	158.930178749253	9
1	244	159.2329291438	10
1	245	159.406318016217	10
1	247	159.583841457663	10
1	248	159.838450644076	10
1	250	160.13183531139	10
1	252	160.429112213702	11
1	253	160.750971033369	11
1	254	161.30287484967	10
1	256	162.201036995767	10
1	257	162.419088025938	10
1	258	163.210172255809	9
1	259	164.040004836096	8
1	260	165.437221322112	7
1	261	165.505155771789	6
1	262	165.612427558527	5
1	268	167.520270029131	5
1	271	168.343264503376	5
1	272	168.476862970771	4
1	274	168.561778482562	4
1	275	169.873724359517	4
1	277	170.17184514764	4
1	279	170.414536497774	5
1	280	171.003185012539	5
1	282	171.231991689217	5
1	283	171.309209231273	5
1	284	171.762209599499	4
1	285	172.414762375114	3
1	286	172.475634525388	2
1	287	172.63952178187	1
1	288	173.026660405087	0
1	290	175.55461471751	0
1	291	175.691681861743	0
1	293	178.729435833157	0
1	295	179.288754726125	1
1	296	179.917788564072	1
1	298	179.921170003876	1
1	302	181.298030964566	2
1	304	181.769174986639	3
1	306	181.813755496121	4
1	309	182.181339639168	5
1	311	182.700224160724	6
1	312	184.094416456961	6
1	314	184.691314194576	6
1	315	184.792557072483	6
1	316	187.288623050889	5
1	317	187.362020753627	4
1	318	188.465248432042	3
1	324	190.779365334053	3
1	326	191.156926621354	4
1	329	191.880585674905	5
1	331	193.531099626097	6
1	333	194.453643544953	6
1	335	195.545505394921	6
1	336	195.637723671996	6
1	337	195.713185705426	5
1	339	197.296669083911	5
1	341	198.53096848748	6
1	342	198.696989657407	6
1	344	200.092437316372	6
1	345	200.385069144731	6
1	347	201.235345388643	6
1	348	201.662826776459	6
1	350	203.48548141133	6
1	351	203.568122718875	6
1	353	204.666637177062	6
1	354	205.968902739762	6
1	355	206.165201144337	5
1	357	207.115011523184	5
1	358	207.199763105322	5
1	360	207.279508578545	5
1	361	208.39222786831	5
1	363	208.414261419499	5
1	364	209.942223199847	5
1	365	210.635885240476	4
1	367	210.662391120181	4
1	371	213.725634009113	5
1	373	213.747450478184	6
1	375	215.311689866155	7
1	377	217.053984115731	8
1	379	218.100763310172	9
1	383	221.75121928499	10
1	385	221.802808030358	11
1	387	222.365023455226	12
1	389	223.437615145653	13
1	391	223.714668207365	14
1	393	226.02520536139	15
1	395	229.188899473297	16
1	398	235.574217063792	16
1	399	236.730026870807	15
1	400	237.989542678614	14
1	402	238.214861383371	14
1	403	238.293527990713	14
1	404	239.194840726833	13
1	405	239.402548388831	12
1	406	242.679879964681	11
1	407	243.62370525522	10
1	408	243.699834571152	9
1	410	244.863574239203	9
1	411	245.16631883498	9
1	412	245.790249021061	8
1	413	246.030380265142	7
1	414	246.380452416471	6
1	416	247.883059992476	6
1	418	248.263845295661	7
1	420	249.339669676615	8
1	422	249.815048011125	9
1	423	250.47426318371	9
1	424	251.597979014735	8
1	426	252.445736425674	8
1	427	252.853874245994	8
1	428	254.282475521672	7
1	429	255.094960765599	6
1	431	256.291317266463	6
1	432	256.606584405778	6
1	433	257.169981430369	5
1	435	257.173723692823	5
1	436	257.435732565204	5
1	437	257.508095407762	4
1	439	257.599182014261	4
1	440	257.692207849962	4
1	442	258.021002888416	4
1	443	258.869161385136	4
1	445	259.4128230051	4
1	446	259.667564741002	4
1	447	261.074099979682	3
1	449	261.850200666442	3
1	453	263.94786246063	3
1	455	264.594076294882	3
1	459	265.410858579239	4
1	462	267.485274696262	5
1	464	267.91413056514	6
1	465	268.237618364319	6
1	467	270.714776234573	6
1	468	270.895653281314	6
1	470	270.903317018522	6
1	471	272.34116639253	6
1	475	274.022852372705	5
1	476	274.341543370708	4
1	477	275.859827902066	3
1	478	276.194883272376	2
1	479	276.732232115659	1
1	480	280.544189086896	0
1	482	284.369063907446	0
1	483	284.489857252118	0
1	485	286.615491172922	0
1	487	286.914113386908	1
1	489	287.340174661992	2
1	490	287.546548259557	2
1	491	287.906735113732	1
1	493	288.85983421849	1
1	494	288.991288401323	1
1	495	289.17490398362	0
1	497	290.316731978151	0
1	498	291.621883963654	0
1	500	292.428134153886	0
1	501	293.023407648284	0
1	505	297.31022385952	0
1	507	299.24478148831	1
1	509	304.736964839758	2
1	513	307.166016785669	3
1	517	310.431056030152	4
1	520	313.822722363615	5
1	522	314.919424520652	6
1	524	315.556724482945	7
1	527	317.600196000226	8
1	529	318.519230471166	9
1	531	319.14716988594	9
1	532	319.721871354094	8
1	533	321.541801928489	7
1	534	321.79601385265	6
1	535	322.466045272093	5
1	536	322.638556132991	4
1	540	327.311837636424	4
1	542	328.128219247858	5
1	544	330.183683810598	6
1	548	332.757140963024	7
1	550	333.400860830126	8
1	553	334.928999383703	9
1	555	335.081373637729	10
1	557	336.724275041194	11
1	559	338.374151789127	12
1	561	340.143207904319	12
1	562	340.675757416393	11
1	566	343.670734863178	10
1	568	344.064326788827	10
1	569	345.356297490952	10
1	571	345.64840942433	10
1	572	345.908325255883	10
1	573	346.01631469138	9
1	574	346.300063607434	8
1	576	346.660895525044	8
1	578	347.224638106639	9
1	580	347.381952686257	10
1	581	348.831339334687	10
1	583	349.008825341938	10
1	585	349.712845816235	11
1	587	349.853932209214	12
1	589	350.668882302003	13
1	590	350.803635681039	13
1	591	352.036964469254	12
1	592	353.640935171781	11
1	594	353.683198644321	11
1	595	353.685205870427	11
1	596	354.655073382762	10
1	597	355.606611911984	9
1	598	356.214860659216	8
1	600	356.841802052955	8
1	601	357.142542525913	8
1	602	358.193661748348	7
1	604	360.035735475457	7
1	605	360.045088726921	7
1	607	360.191667233207	7
1	609	360.592714581835	8
1	613	361.734971458757	9
1	615	363.659953358453	9
1	616	363.681882027158	8
1	617	364.089083549467	7
1	619	364.614070362039	7
1	621	364.783203198425	8
1	623	366.848584726573	9
1	624	367.963086622536	9
1	625	368.494241013243	8
1	626	369.463533447143	7
1	630	373.95310801849	6
1	634	376.934842285166	6
1	636	378.562611093173	6
1	637	379.425956604295	5
1	639	379.586988661364	5
1	641	379.804281875695	6
1	642	380.987651060536	6
1	644	381.654341201425	6
1	645	382.308455358876	6
1	647	382.379085871016	6
1	649	382.944877762822	7
1	651	383.898198244567	8
1	653	384.648352483691	9
1	654	385.42555439797	9
1	655	385.737572435896	8
1	657	387.384876517674	8
1	658	389.621488173811	8
1	659	390.268170758156	7
1	660	390.430279423866	6
1	661	391.246216078198	5
1	663	392.300304585219	5
1	664	392.526682395787	5
1	666	393.043332309156	5
1	667	394.50210489353	5
1	669	395.228651936587	5
1	671	395.421217022839	6
1	672	395.553370691996	6
1	673	399.424165881355	5
1	678	400.409833337335	5
1	679	400.729404927576	5
1	680	401.487885970604	4
1	681	402.457787148627	3
1	683	402.964960994828	3
1	685	405.287166380586	4
1	687	405.349323855658	5
1	688	406.207846257872	5
1	690	406.855357604069	5
1	691	407.254070143698	5
1	695	408.166426861699	5
1	697	408.346300394764	6
1	699	408.878835112759	7
1	701	411.508014282839	8
1	703	412.935729885819	9
1	705	418.251797742014	9
1	707	420.128688018161	9
1	708	420.654875469702	9
1	709	420.807612579685	8
1	710	420.968704096699	7
1	711	421.883244434231	6
1	713	421.947077820763	6
1	714	422.099386803729	6
1	716	422.911037311367	6
1	717	423.453840777374	6
1	719	423.940017674541	6
1	720	424.511113672421	6
1	721	424.790924784209	5
1	722	426.688117322376	4
1	723	427.039348852249	3
1	724	427.714206504829	2
1	725	428.101358953337	1
1	727	428.250470791719	1
1	728	428.436520710319	1
1	729	428.896811816585	0
1	731	429.042993422276	0
1	732	429.389397801012	0
1	736	431.245163911144	0
1	741	432.560367238352	1
1	743	435.279913559328	2
1	751	441.280043630944	3
1	753	442.582085204468	4
1	755	444.764504787807	5
1	757	445.90367654874	6
1	759	447.471305377074	7
1	761	447.931001239386	7
1	765	448.433879467455	7
1	767	449.962366036139	8
1	771	452.135429512146	9
1	774	455.276271469814	10
1	776	457.720849821627	10
1	777	457.790268653588	9
1	778	458.339599873243	8
1	779	458.492306530765	7
1	780	459.150605658471	6
1	782	459.918731563398	6
1	783	460.61687403853	6
1	785	461.183511981903	6
1	787	461.609994512247	7
1	791	462.260041733491	8
1	793	462.303462665607	9
1	795	463.420797774657	10
1	797	464.250505895589	11
1	799	464.978892016257	12
1	801	468.866439033226	12
1	802	468.873625617133	11
1	804	469.031742088382	11
1	805	469.924745032069	11
1	806	471.070684969615	10
1	807	471.701119257528	9
1	808	471.878365508934	8
1	809	472.115292785243	7
1	816	478.696903371179	7
1	818	481.754200903	7
1	820	481.805402526208	7
1	822	482.906869328089	8
1	824	483.780538408517	9
1	826	483.898683386297	10
1	828	486.433137062031	11
1	829	486.669297948772	11
1	831	487.477309575346	11
1	832	487.629286368589	11
1	834	487.863037529357	11
1	835	488.774017932519	11
1	837	492.242015590941	11
1	839	492.720148890137	12
1	840	492.975079507907	12
1	842	492.97732302569	12
1	843	494.932804598198	12
1	844	496.043655888966	11
1	845	498.463447453277	10
1	846	498.548067501631	9
1	848	500.016899499876	9
1	850	500.16823929309	10
1	852	500.272158667196	11
1	853	500.851031415702	11
1	854	501.482257283753	10
1	855	501.654689971256	9
1	857	501.756411121305	9
1	858	502.264860592285	9
1	859	503.744941351641	8
1	861	505.340380326676	8
1	862	505.502167705119	8
1	869	509.808322518055	8
1	871	511.138892018096	8
1	872	511.191806572718	7
1	874	512.768027034959	7
1	875	512.776234817351	7
1	876	513.820958689203	6
1	878	514.52933499364	6
1	879	515.623226576839	6
1	880	515.802918584266	5
1	881	516.623652576536	4
1	882	518.150949933445	3
1	883	518.278030213321	2
1	885	518.77089417765	2
1	887	519.039360249338	3
1	891	522.782319276971	4
1	893	523.448676744571	5
1	895	526.372815177322	5
1	897	527.255271954043	5
1	898	527.859722318865	5
1	900	529.396297025613	5
1	902	530.324315947513	6
1	904	532.257082641619	7
1	905	532.718051430242	7
1	907	532.904222183789	7
1	908	533.571296528489	7
1	909	533.693838899257	6
1	911	534.536496582174	6
1	912	535.387290370111	6
1	913	536.22626079973	5
1	915	536.344906213496	5
1	917	536.787219496914	6
1	918	537.018067595969	6
1	919	537.953110738146	5
1	920	538.004580895105	4
1	921	538.057929688243	3
1	923	538.926394715657	3
1	924	539.059354280185	3
1	925	539.572737783608	2
1	926	539.598631753713	1
1	928	540.496744681824	1
1	929	540.651961242969	1
1	930	540.702780930877	0
1	932	540.890536314168	0
1	934	542.022401752815	1
1	935	542.821870054573	1
1	937	543.912501381914	1
1	939	544.411247333694	2
1	940	544.57979078035	2
1	942	545.353886449571	2
1	943	546.85818421251	2
1	944	547.629157761147	1
1	946	549.106992405773	1
1	947	550.552568641752	1
1	948	550.647701008305	0
1	950	551.090048105702	0
1	951	552.195523051764	0
1	953	553.240210365155	0
1	954	553.376317775376	0
1	956	553.447417953317	0
1	958	553.750991574297	1
1	960	553.948974788088	2
1	961	555.421589067994	2
1	963	557.311151268367	2
1	964	557.687579296998	2
1	965	558.898945289259	1
1	966	559.612936614105	0
1	968	560.540872372002	0
1	969	561.245823216735	0
1	973	563.512057523117	0
1	975	564.091196563125	1
1	977	566.83163214672	2
1	981	567.146927825556	3
1	985	568.284969730727	4
1	987	568.329233723339	5
1	989	568.617767071514	6
1	991	568.887837030287	7
1	993	569.112467794096	8
1	996	572.85172908405	9
1	998	574.022258579698	10
1	1002	577.854759981643	11
1	1005	578.909518531972	12
1	1011	582.534444362685	13
1	1013	583.789502554647	14
1	1015	585.08022670341	15
1	1017	586.386035189233	16
1	1019	586.57497450055	17
1	1023	587.694004074607	18
1	1026	589.702416940186	19
1	1029	592.036078556242	20
1	1031	598.208398400256	21
1	1033	598.497331369528	22
1	1038	603.573742735297	23
1	1039	604.164592048813	23
1	1040	605.26345945322	22
1	1041	606.440061641727	21
1	1042	606.448427800354	20
1	1043	606.561180892532	19
1	1044	607.248069973602	18
1	1046	607.404533846474	18
1	1047	607.919538472987	18
1	1049	608.8778875459	18
1	1050	609.607977910017	18
1	1052	611.038888658468	18
1	1053	611.669367950711	18
1	1054	612.073168835799	17
1	1055	612.831723813341	16
1	1056	612.932035128841	15
1	1057	613.016270470278	14
1	1058	614.046109323961	13
1	1062	616.281437528283	12
1	1064	617.502056539928	12
1	1065	619.416870620353	12
1	1067	619.501161136865	12
1	1069	619.877608879569	13
1	1071	621.242127096726	14
1	1073	622.108082882387	15
1	1075	623.521163657157	16
1	1076	623.557473501276	16
1	1077	624.72841481632	15
1	1078	624.840332732496	14
1	1079	624.985768578357	13
1	1081	625.806250028108	13
1	1082	626.296157353801	13
1	1083	627.324516569691	12
1	1085	628.715098848801	12
1	1086	628.774601880912	12
1	1090	631.457830384864	12
1	1092	632.787373921162	13
1	1094	633.486971637297	13
1	1096	633.632344219899	13
1	1097	634.951886328963	13
1	1098	635.527332241772	12
1	1099	635.706914422139	11
1	1101	636.038098731266	11
1	1103	636.18669138862	12
1	1104	637.136142224946	12
1	1105	637.333980348067	11
1	1106	637.377029090419	10
1	1110	639.758269929707	10
1	1112	640.144756732864	11
1	1116	644.510389477042	12
1	1124	649.185527658254	13
1	1126	650.103248217508	14
1	1130	652.414804817877	15
1	1132	653.426139682935	16
1	1134	654.71582341445	17
1	1138	654.997747250613	18
1	1141	658.440675154275	19
1	1144	659.991396825641	20
1	1146	661.251516361079	21
1	1148	664.113152285961	22
1	1150	668.936096649742	23
1	1155	678.021075541789	24
1	1158	678.907065322161	25
1	1162	689.158277263477	26
1	1164	692.950230658163	27
1	1171	701.526501553233	28
1	1173	704.158728280156	29
1	1175	704.949407552948	30
1	1177	705.103171706973	31
1	1179	706.555558687204	32
1	1181	706.958750943358	33
1	1185	711.789236957378	34
1	1188	713.074753223255	35
1	1189	714.050098271127	35
1	1190	714.630857387812	34
1	1192	715.277426426435	34
1	1193	715.34763543677	34
1	1194	716.377020859291	33
1	1195	716.985539721514	32
1	1196	717.00133862095	31
1	1197	717.224429244216	30
1	1198	718.007289402776	29
1	1200	718.191410462644	29
1	1201	718.557478711128	29
1	1203	720.41841146946	29
1	1204	722.18280937171	29
1	1205	722.336546973301	28
1	1206	722.488312449714	27
1	1208	722.791365203484	27
1	1209	723.034039033967	27
1	1210	723.330860784398	26
1	1211	723.431379853065	25
1	1215	725.269486821274	25
1	1217	725.369835617983	26
1	1219	729.441362452899	27
1	1221	731.365281956341	28
1	1224	733.336411084174	29
1	1225	734.445300440326	29
1	1226	734.590735813872	28
1	1227	735.159530640293	27
1	1228	736.464964565883	26
1	1229	736.75300736178	25
1	1230	737.574739500089	24
1	1231	737.608232739059	23
1	1233	738.243204592191	23
1	1234	738.326608503622	23
1	1235	738.444273753642	22
1	1236	739.189570964531	21
1	1237	739.299962231736	20
1	1239	739.369535535905	20
1	1240	739.506447309489	20
1	1241	739.678971895205	19
1	1242	741.423176482605	18
1	1243	741.685844261726	17
1	1245	743.8871018246	17
1	1246	744.352221992387	17
1	1248	744.546221324827	17
1	1249	744.601843611542	17
1	1251	745.79532483684	17
1	1252	746.102071765718	17
1	1254	746.529742598516	17
1	1256	746.657303200635	18
1	1257	747.230586468516	18
1	1258	747.340651732667	17
1	1259	749.186589014911	16
1	1260	750.118591147664	15
1	1261	750.331730964935	14
1	1262	751.264199327018	13
1	1263	753.355295994493	12
1	1265	753.59465474281	12
1	1266	754.128935732914	12
1	1267	756.608454805689	11
1	1269	757.337404028442	11
1	1270	758.326093407322	11
1	1271	758.356053535854	10
1	1273	758.682128233724	10
1	1274	759.279447542287	10
1	1275	759.491628398716	9
1	1276	759.669808976204	8
1	1277	762.696565713053	7
1	1278	763.327829382597	6
1	1279	764.052906594279	5
1	1280	764.318259308843	4
1	1281	764.895147255358	3
1	1282	764.939872269414	2
1	1283	765.018474955791	1
1	1285	765.245135582277	1
1	1286	766.002019789752	1
1	1287	766.061595144615	0
1	1289	768.556542234461	0
1	1293	773.540506602795	1
1	1295	774.958025066678	2
1	1297	776.934754852217	3
1	1299	778.389682476312	4
1	1301	779.073145479341	5
1	1303	780.700985754905	6
1	1305	780.999002692411	7
1	1307	785.311693866814	7
1	1308	785.802717017421	6
1	1310	786.3017345743	6
1	1311	786.704765004877	6
1	1313	788.05853375112	6
1	1314	788.186380291273	6
1	1316	790.029007065485	6
1	1317	790.064653627847	6
1	1318	790.075615106556	5
1	1319	791.232178478447	4
1	1320	791.339689523341	3
1	1327	797.43730204989	3
1	1329	799.583759764157	4
1	1331	800.177437608294	5
1	1333	801.617444299831	6
1	1335	802.540733780286	7
1	1337	802.823386434866	8
1	1339	803.425128769913	9
1	1341	803.462137521251	10
1	1343	803.665923448838	11
1	1345	804.527752680912	11
1	1346	804.737448628812	10
1	1348	805.602944059336	10
1	1349	805.663577865421	10
1	1355	808.218124981703	10
1	1357	808.402245192134	11
1	1359	808.686078634735	12
1	1361	809.312998457285	13
1	1365	813.892161929399	14
1	1366	814.019761250547	14
1	1372	816.895547823052	14
1	1374	817.889844962813	15
1	1377	821.481610987503	16
1	1379	822.414004727721	17
1	1381	823.859243041756	17
1	1382	824.25564987145	16
1	1384	824.361759111404	16
1	1385	824.416068485155	16
1	1386	825.033708905136	15
1	1388	826.312631337729	15
1	1389	826.521075405861	15
1	1390	827.0491449735	14
1	1394	827.90735131971	14
1	1396	828.837325022597	14
1	1397	829.100833110034	13
1	1398	829.105187063241	12
1	1400	829.144710104463	12
1	1401	829.426948310404	12
1	1403	829.864251448553	12
1	1404	830.755531009825	12
1	1408	834.42021269443	11
1	1409	834.430089055556	10
1	1411	835.138938627697	10
1	1412	835.241970686121	10
1	1413	835.429932183255	9
1	1415	835.4661186151	9
1	1417	835.571403956215	10
1	1418	835.750432369912	10
1	1419	837.206351055677	9
1	1421	837.465262914638	9
1	1423	838.124927481068	10
1	1424	839.111868797598	10
1	1426	840.144831606942	10
1	1428	840.342629164874	11
1	1430	840.81400289754	12
1	1431	840.984975243427	12
1	1432	841.415695813858	11
1	1433	841.664434225038	10
1	1434	841.695743447938	9
1	1436	842.329751642872	9
1	1438	842.958541722219	10
1	1440	842.987645093672	11
1	1441	843.492290139769	11
1	1443	844.036231073614	11
1	1445	844.335775081576	12
1	1446	845.166761655327	12
1	1448	845.396084076957	12
1	1450	845.696609997175	13
1	1452	846.877854346136	14
1	1453	847.342865098119	14
1	1455	847.590809655067	14
1	1457	849.111040425185	15
1	1458	849.441271121938	15
1	1459	849.499889314631	14
1	1460	850.132317975924	13
1	1461	850.273295975254	12
1	1462	851.139819840587	11
1	1463	851.458064657858	10
1	1464	851.57635086696	9
1	1465	852.67519758256	8
1	1467	852.702645708882	8
1	1468	852.901989661782	8
1	1469	852.915060941061	7
1	1470	852.918795338289	6
1	1471	853.36905068793	5
1	1472	854.482584965775	4
1	1473	856.11021248891	3
1	1475	857.237671726048	3
1	1476	857.722525963689	3
1	1477	858.412702667056	2
1	1479	858.625415800676	2
1	1481	859.399189796908	3
1	1482	859.807737240054	3
1	1484	861.973731799978	3
1	1485	863.213215142776	3
1	1486	864.349606141507	2
1	1488	864.513320440418	2
1	1490	864.56260869486	3
1	1492	864.8135549655	4
1	1493	866.124277113801	4
1	1495	866.125323468155	4
1	1499	867.566363404015	5
1	1501	868.656127731646	6
1	1503	869.166202083337	7
1	1505	870.84222130461	8
1	1510	876.286606209581	9
1	1512	878.334362323141	10
1	1514	879.49736835504	11
1	1516	879.542055469037	12
1	1518	880.072671928273	13
1	1520	882.406565306732	13
1	1522	882.913568082118	13
1	1523	882.967588449951	13
1	1525	883.618230367066	13
1	1526	884.246927254081	13
1	1528	884.72643425199	13
1	1529	884.798123465428	13
1	1530	885.348067219199	12
1	1531	885.72728544028	11
1	1532	886.061291566875	10
1	1534	886.698307397806	10
1	1535	886.992450726596	10
1	1536	887.517677250804	9
1	1538	888.010320609187	9
1	1539	888.50010860085	9
1	1541	888.738159297896	9
1	1542	890.223657452591	9
1	1543	891.011915286383	8
1	1545	891.762268639728	8
1	1546	892.292624067125	8
1	1547	892.401121639087	7
1	1548	893.175945428245	6
1	1550	893.442053862776	6
1	1551	895.273456929919	6
1	1553	895.643121392581	6
1	1554	896.183171504538	6
1	1556	896.654975479655	6
1	1557	896.680499564494	6
1	1558	897.123623880839	5
1	1559	897.693217785884	4
1	1561	897.859151455871	4
1	1563	897.95730294191	5
1	1564	898.876131534471	5
1	1566	898.957965168057	5
1	1567	898.96830537969	5
1	1569	899.231661218407	5
1	1570	899.354697210675	5
1	1574	900.26066786747	5
1	1576	902.619700249925	5
1	1577	902.767702973584	4
1	1579	902.910230266001	4
1	1580	902.919066039712	4
1	1582	903.208652209965	4
1	1584	903.31829302434	5
1	1585	904.271457410636	5
1	1586	906.310405117952	4
1	1588	906.916037193617	4
1	1589	907.142063635484	4
1	1590	907.255268506512	3
1	1591	907.472128837178	2
1	1596	910.055889503051	2
1	1597	910.124239074939	2
1	1599	912.091352668904	2
1	1600	912.467625055565	2
1	1601	912.68766045423	1
1	1602	912.849982311898	0
1	1604	919.963035114384	0
1	1605	920.705124666314	0
1	1610	924.382225010228	0
1	1611	924.667120883012	0
1	1613	926.74532250554	0
1	1621	933.157526141895	1
1	1622	933.518254460093	1
1	1624	934.755671517967	1
1	1625	935.275661015645	1
1	1629	936.99232327182	1
1	1633	937.318014677937	2
1	1635	937.770728663671	3
1	1641	946.514467294691	4
1	1643	946.778853527962	5
1	1648	950.165858767278	6
1	1650	950.952332096943	7
1	1652	954.164582046095	7
1	1653	954.632219414914	6
1	1654	954.647875983759	5
1	1655	955.307206737271	4
1	1656	955.38064126538	3
1	1657	956.467583026437	2
1	1658	958.413493658849	1
1	1659	958.432358739694	0
1	1661	964.941645131733	0
1	1662	965.137970146948	0
1	1664	966.358856002841	0
1	1665	966.64444259057	0
1	1667	966.695839751247	0
1	1669	967.104511499878	1
1	1670	967.115043556511	1
1	1672	967.146355661023	1
1	1673	967.555788499883	1
1	1674	967.573911875266	0
1	1676	967.579151127572	0
1	1678	968.397106953285	1
1	1679	968.699418761981	1
1	1681	969.022848256972	1
1	1682	969.497288287952	1
1	1684	970.147432159976	1
1	1685	970.689835203835	1
1	1686	971.095879393766	0
1	1688	971.201359473282	0
1	1689	971.274308103205	0
1	1691	973.570605211702	0
1	1693	973.987324713485	1
1	1694	975.123113764632	1
1	1696	975.880050643507	1
1	1697	976.156486673545	1
1	1698	977.510323901773	0
1	1704	980.245077259361	0
1	1706	980.808437137807	1
1	1708	982.03826732693	2
1	1711	983.736638291315	3
1	1713	985.203480394117	4
1	1715	987.908464633553	5
1	1719	996.323351114127	6
1	1721	996.670070142852	7
1	1723	997.55231252216	8
1	1726	998.801435841563	9
1	1728	1000.274932309954	9
1	1730	1000.827237143606	9
1	1731	1002.604784706921	9
1	1732	1002.675672749727	8
1	1736	1004.484446855756	8
1	1738	1004.763034234927	9
1	1740	1007.879410628219	9
1	1741	1008.279722828995	8
1	1742	1008.815742915935	7
1	1743	1009.17961624985	6
1	1744	1012.757291069222	5
1	1745	1013.833441521383	4
1	1746	1014.946191792382	3
1	1748	1016.218563218445	3
1	1749	1016.233935668841	3
1	1750	1016.301529862077	2
1	1751	1018.046397064995	1
1	1752	1018.526750634746	0
1	1754	1019.898764737429	0
1	1758	1020.53836473801	1
1	1760	1021.208219458235	2
1	1763	1022.511462493375	3
1	1764	1023.271615963641	3
1	1765	1023.333014633513	2
1	1766	1024.539034593427	1
1	1767	1025.542366821632	0
1	1769	1026.093108061918	0
1	1770	1026.834082177962	0
1	1772	1027.789333522958	0
1	1773	1028.435867679478	0
1	1775	1029.672100370163	0
1	1777	1029.934477553724	1
1	1778	1029.945767966085	1
1	1779	1030.318045057215	0
1	1783	1033.881006159124	0
1	1788	1037.734260241811	1
1	1790	1038.836493059331	1
1	1792	1039.864973285393	1
1	1793	1039.958904405898	1
1	1794	1040.074942853383	0
1	1796	1041.902964996979	0
1	1797	1042.729265595952	0
1	1799	1048.084393890817	0
1	1801	1048.37232235753	1
1	1802	1049.142537682045	1
1	1804	1049.818931574588	1
1	1806	1049.918212778283	2
1	1807	1050.077468651944	2
1	1808	1050.117499950785	1
1	1809	1050.334175781085	0
1	1811	1050.962307139965	0
1	1812	1051.332938681267	0
1	1814	1053.490681443037	0
1	1815	1053.706593871414	0
1	1817	1054.494686056722	0
1	1818	1054.535843740995	0
1	1820	1056.429704889339	0
1	1822	1056.904681004312	1
1	1824	1059.598235980767	2
1	1826	1060.87556882781	3
1	1828	1061.409716123711	4
1	1829	1062.097333898622	4
1	1831	1062.703310931021	4
1	1835	1067.188518657153	5
1	1837	1071.078679990639	5
1	1838	1073.889373550144	4
1	1840	1074.074145107394	4
1	1841	1074.301012027962	4
1	1842	1075.190156299278	3
1	1843	1075.930778959012	2
1	1844	1076.22959386206	1
1	1845	1077.024182545496	0
1	1847	1079.033308471039	0
1	1848	1080.412627520633	0
1	1852	1080.960225227914	0
1	1854	1081.895076455156	1
1	1860	1083.520727589982	2
1	1863	1086.537560883489	3
1	1865	1087.403996739798	4
1	1867	1088.044150337013	5
1	1869	1088.0823397393	6
1	1872	1088.125211299744	7
1	1874	1088.863652113805	8
1	1876	1090.047978300894	9
1	1878	1090.750883243334	10
1	1880	1092.114416650695	11
1	1882	1092.177914493878	12
1	1887	1093.758550055318	13
1	1890	1098.481276215458	14
1	1892	1098.53913653471	15
1	1894	1098.725384263539	16
1	1896	1099.184572006309	17
1	1897	1099.946768621651	17
1	1898	1100.886922563626	16
1	1899	1101.149578838698	15
1	1900	1101.252289722037	14
1	1901	1101.349420954785	13
1	1902	1101.501770468096	12
1	1907	1105.011847126183	12
1	1908	1105.018234733598	12
1	1909	1105.407012001242	11
1	1910	1105.775901351042	10
1	1911	1106.477478861374	9
1	1915	1107.882406224096	9
1	1917	1108.266207285676	10
1	1925	1110.600859486004	11
1	1927	1114.417988491688	12
1	1929	1116.535051091953	13
1	1931	1117.653280537609	14
1	1933	1119.500751341235	15
1	1935	1119.976929890805	16
1	1937	1121.820880406491	17
1	1939	1126.923450557927	18
1	1941	1127.071940480138	19
1	1944	1130.705928264854	20
1	1945	1132.140198973381	20
1	1946	1132.515720023473	19
1	1947	1133.093234588465	18
1	1948	1133.894496621889	17
1	1949	1134.863466194113	16
1	1950	1135.204080724753	15
1	1951	1135.212411203949	14
1	1953	1135.242379049862	14
1	1955	1135.347930690272	15
1	1956	1135.788758303512	15
1	1962	1138.788796896166	15
1	1971	1142.823868704688	16
1	1973	1144.405190055439	17
1	1975	1145.050544472942	18
1	1977	1145.318110288322	19
1	1980	1147.002288402893	20
1	1984	1148.907509855049	21
1	1988	1152.298859288528	22
1	1990	1153.258619348561	23
1	1992	1153.498881145341	24
1	1996	1157.273447746971	25
1	1998	1157.631040056745	26
1	2000	1157.703848666284	27
1	2003	1158.381353070061	28
1	2005	1159.1671652079	29
1	2009	1161.814602767643	30
1	2011	1162.072120778937	31
1	2012	1162.210550680611	31
1	2013	1162.857544487254	30
1	2014	1164.10692617494	29
1	2018	1164.770521924795	29
1	2020	1165.680206494864	30
1	2022	1167.157354198723	31
1	2024	1167.283658310665	32
1	2026	1168.168513842928	33
1	2028	1168.750003357996	34
1	2030	1169.209563052714	35
1	2036	1169.97836545341	36
1	2043	1176.458289698886	37
1	2045	1176.512352357362	38
1	2047	1176.543037894087	39
1	2049	1181.181941204862	40
1	2052	1181.765671913567	41
1	2053	1181.961424150101	41
1	2054	1182.37156929033	40
1	2055	1182.749830571982	39
1	2056	1183.308688580157	38
1	2060	1183.779836772351	38
1	2062	1189.041917452018	38
1	2064	1189.178955479181	38
1	2065	1190.050871225771	38
1	2066	1191.763978899695	37
1	2068	1192.37105607297	37
1	2070	1193.057673059758	38
1	2071	1193.196926844215	38
1	2072	1194.391638164725	37
1	2074	1195.264864006872	37
1	2075	1195.775677075073	37
1	2076	1196.383985055856	36
1	2077	1197.031552188584	35
1	2078	1197.25134944891	34
1	2080	1197.486139584191	34
1	2081	1198.012524788529	34
1	2082	1198.06240139708	33
1	2084	1198.514008852822	33
1	2086	1199.350839941182	34
1	2087	1199.42646812774	34
1	2088	1199.713897144682	33
1	2089	1200.712632627986	32
1	2091	1201.197525880641	32
1	2093	1203.110017313539	33
1	2094	1203.170757004685	33
1	2096	1203.677576890242	33
1	2097	1204.014688010161	33
1	2098	1204.68347296746	32
1	2099	1205.528642662255	31
1	2101	1206.004475259248	31
1	2102	1206.210744757347	31
1	2103	1206.820220164455	30
1	2105	1207.47558927829	30
1	2106	1207.665499791351	30
1	2108	1207.814282797105	30
1	2109	1208.164148767413	30
1	2110	1208.7499676736	29
1	2111	1210.01694883797	28
1	2112	1211.114333450698	27
1	2113	1212.802347183124	26
1	2114	1213.255287325451	25
1	2115	1214.118528905074	24
1	2116	1214.521662401641	23
1	2117	1215.694627667313	22
1	2118	1216.164929030315	21
1	2119	1216.4701636247	20
1	2120	1216.641152396918	19
1	2121	1217.151894886759	18
1	2125	1219.936946495964	18
1	2127	1220.473125103403	19
1	2129	1220.724046596596	20
1	2131	1221.556327582569	21
1	2133	1222.121832281119	21
1	2134	1223.291317452423	20
1	2135	1224.213059667877	19
1	2136	1224.395106497293	18
1	2138	1224.744876977315	18
1	2139	1225.008958584645	18
1	2140	1226.038736478919	17
1	2141	1226.264619329438	16
1	2143	1227.308551737749	16
1	2144	1227.685282966288	16
1	2146	1227.833074521521	16
1	2150	1230.354252427775	16
1	2151	1231.320376237858	15
1	2152	1232.60168914803	14
1	2153	1232.743794428744	13
1	2154	1233.237336272945	12
1	2155	1233.404814492531	11
1	2157	1235.341376687555	11
1	2159	1235.658114774899	12
1	2160	1238.054155967252	12
1	2161	1238.982621034873	11
1	2163	1239.536304253136	11
1	2164	1239.588557593974	11
1	2165	1240.358445800426	10
1	2166	1240.405125077519	9
1	2167	1241.496747988502	8
1	2169	1242.237555894009	8
1	2170	1243.146584967799	8
1	2172	1243.192850966087	8
1	2174	1243.449509537571	9
1	2175	1243.925689160622	9
1	2176	1244.117677985961	8
1	2177	1244.495040990014	7
1	2179	1246.462059919142	7
1	2180	1246.758905795245	7
1	2182	1247.31110356657	7
1	2184	1249.304951212121	8
1	2186	1250.649528900834	9
1	2187	1252.360913937821	9
1	2189	1253.87390342592	9
1	2190	1254.206385707778	9
1	2191	1254.740400264196	8
1	2193	1254.994248197191	8
1	2194	1255.899769593958	8
1	2195	1256.864159264782	7
1	2196	1256.9336765206	6
1	2197	1257.543718692298	5
1	2199	1258.642016313118	5
1	2200	1259.762253815573	5
1	2201	1261.430639330697	4
1	2202	1262.136929394246	3
1	2203	1262.319352996791	2
1	2205	1262.454974463834	2
1	2206	1262.799168256998	2
1	2207	1263.162557258594	1
1	2208	1264.065947077059	0
1	2210	1264.798150558775	0
1	2211	1265.264938055765	0
1	2213	1267.154771215193	0
1	2215	1267.294685417967	1
1	2217	1267.735124687761	2
1	2219	1268.163858296175	3
1	2220	1268.343776911872	3
1	2221	1268.383343197916	2
1	2223	1268.693376060816	2
1	2224	1269.915037506102	2
1	2225	1270.035422335359	1
1	2226	1271.686487438688	0
1	2231	1278.67203511415	0
1	2232	1279.412626456893	0
1	2234	1279.50181466035	0
1	2235	1279.535207598037	0
1	2237	1280.168251371761	0
1	2238	1280.841571525566	0
1	2240	1282.845255043686	0
1	2245	1283.771347908376	1
1	2247	1284.944894895752	2
1	2249	1285.47396416205	3
1	2253	1288.393899492215	3
1	2255	1289.97523056794	3
1	2262	1292.651138215247	4
1	2264	1296.038608632161	5
1	2266	1297.190731746117	5
1	2268	1297.537269130125	5
1	2269	1299.162674075265	5
1	2270	1299.399823712303	4
1	2271	1301.950795355755	3
1	2272	1302.42420426173	2
1	2273	1303.305169045156	1
1	2274	1304.448210436886	0
1	2276	1305.029175993482	0
1	2277	1305.032625861451	0
1	2279	1307.907902550962	0
1	2281	1308.037455962602	1
1	2283	1308.647736997671	2
1	2284	1309.1628826866	2
1	2286	1309.184868358521	2
1	2287	1309.460140889249	2
1	2288	1310.699612962639	1
1	2289	1310.781048362634	0
1	2291	1311.189533748175	0
1	2293	1311.628443717609	1
1	2294	1312.005346837318	1
1	2295	1312.848689037757	0
1	2297	1313.352901321096	0
1	2298	1313.541217794802	0
1	2302	1314.845287501561	0
1	2304	1315.184009188077	1
1	2306	1315.719351902336	2
1	2308	1315.759667036351	3
1	2310	1316.529136547387	3
1	2314	1318.280933998907	3
1	2316	1321.219358397075	4
1	2320	1321.978016165639	5
1	2324	1322.233284749411	6
1	2325	1322.762298320287	6
1	2326	1323.629340500924	5
1	2327	1323.776185386788	4
1	2328	1323.887276506426	3
1	2329	1324.576036205283	2
1	2330	1325.136262779645	1
1	2331	1326.565527677572	0
1	2333	1328.673176533761	0
1	2334	1328.697404690644	0
1	2336	1330.173839201805	0
1	2338	1330.788853050059	1
1	2339	1331.952106905327	1
1	2340	1332.041234221622	0
1	2342	1334.331886623205	0
1	2343	1335.044187999277	0
1	2347	1339.596257082442	0
1	2352	1341.100220211824	1
1	2354	1341.778626462737	2
1	2356	1343.585920632913	3
1	2358	1344.587081963072	4
1	2360	1344.906658486714	5
1	2362	1346.187600848386	5
1	2364	1346.329941607442	5
1	2366	1346.813949019012	6
1	2367	1347.082599413627	6
1	2369	1347.894643464596	6
1	2370	1348.434625082309	6
1	2372	1348.536808768671	6
1	2373	1349.085812216227	6
1	2375	1349.748031648495	6
1	2376	1349.804127804472	6
1	2377	1350.377797195382	5
1	2381	1352.327074213597	5
1	2383	1353.194430877913	6
1	2386	1358.400425543467	7
1	2387	1358.613196783954	7
1	2388	1358.892093472542	6
1	2390	1359.209913445374	6
1	2391	1359.2839007753	6
1	2393	1361.154155856776	6
1	2395	1361.381089943959	7
1	2396	1361.586722609643	7
1	2397	1361.743917701931	6
1	2399	1362.099663868509	6
1	2400	1362.300324747092	6
1	2401	1362.859571962666	5
1	2402	1365.033555815051	4
1	2403	1365.479745096283	3
1	2404	1365.510890103213	2
1	2409	1372.843009323203	2
1	2411	1372.924646503007	3
1	2413	1372.955143780439	4
1	2414	1373.453732300903	4
1	2416	1373.820429266014	4
1	2420	1374.494256893304	5
1	2422	1374.939843365834	6
1	2424	1375.024770166284	7
1	2426	1375.345383603333	8
1	2428	1376.038912826228	9
1	2430	1378.366634775906	10
1	2432	1380.197349502469	11
1	2434	1380.454185357526	12
1	2436	1380.878655932437	13
1	2438	1386.328551708016	14
1	2440	1388.778065043261	14
1	2441	1389.601157955816	13
1	2445	1390.205837095247	13
1	2447	1393.723636120715	14
1	2449	1393.849025395865	15
1	2451	1394.349503222762	15
1	2452	1394.611378802327	14
1	2453	1394.751276222349	13
1	2454	1394.815690755383	12
1	2456	1395.175916829579	12
1	2458	1395.543658287392	13
1	2460	1395.608387043605	14
1	2461	1395.864398116683	14
1	2462	1395.880728326515	13
1	2463	1396.337993312528	12
1	2465	1396.516619233817	12
1	2467	1396.835095771867	13
1	2468	1397.42921951986	13
1	2469	1397.655488535757	12
1	2471	1398.642339683067	12
1	2472	1399.278402383138	12
1	2473	1399.504475488677	11
1	2475	1400.169582599027	11
1	2477	1401.23828779376	12
1	2478	1401.325703283546	12
1	2480	1401.468089914978	12
1	2482	1402.141690908878	13
1	2483	1402.375892785176	13
1	2487	1403.270890483241	13
1	2489	1404.792032206643	14
1	2491	1404.977839498186	15
1	2495	1405.541818635906	16
1	2501	1410.046820090552	17
1	2503	1414.269107539468	18
1	2505	1414.661916868766	19
1	2507	1415.115288940595	19
1	2508	1415.335330012868	18
1	2509	1415.348967228958	17
1	2510	1415.98306195855	16
1	2512	1416.20764289721	16
1	2513	1416.399591938656	16
1	2514	1416.824975129213	15
1	2516	1418.282792423925	15
1	2517	1418.330447631198	15
1	2523	1423.202054213084	15
1	2525	1423.778818497278	16
1	2528	1427.783289313251	16
1	2529	1428.938693346814	15
1	2530	1429.093076944323	14
1	2531	1429.823296536381	13
1	2532	1430.097741619843	12
1	2534	1430.201472513118	12
1	2535	1430.378561712936	12
1	2536	1430.574894915485	11
1	2538	1431.223038729292	11
1	2540	1431.801707858447	12
1	2542	1432.784931949397	13
1	2544	1433.215538717219	14
1	2546	1434.862225162324	15
1	2547	1435.20315004219	15
1	2548	1435.267793133223	14
1	2550	1437.480684590166	14
1	2551	1439.675112166285	14
1	2553	1441.481049635294	14
1	2555	1442.078657936986	15
1	2556	1442.301553720353	15
1	2558	1443.694668173058	15
1	2560	1444.592053033935	16
1	2562	1445.000658989215	17
1	2563	1445.424381480042	17
1	2564	1445.738986826116	16
1	2565	1446.962838751584	15
1	2567	1447.191713554122	15
1	2568	1448.342051832936	15
1	2570	1448.465463184775	15
1	2571	1448.539644438776	15
1	2572	1449.846216336781	14
1	2573	1450.651153929478	13
1	2574	1451.661739205115	12
1	2575	1451.961237623752	11
1	2576	1453.451811434223	10
1	2577	1453.455207572197	9
1	2578	1454.019242045807	8
1	2579	1454.502380248822	7
1	2581	1454.553445868121	7
1	2583	1455.007768527497	8
1	2584	1455.144207130008	8
1	2585	1455.585315459521	7
1	2587	1455.708165407408	7
1	2588	1455.852204350871	7
1	2589	1456.030597253305	6
1	2593	1456.501197800785	6
1	2595	1458.674971476265	7
1	2597	1458.980588103742	8
1	2599	1459.905673036719	8
1	2600	1460.182579458101	7
1	2601	1462.802283488887	6
1	2602	1464.113865340834	5
1	2603	1464.670410245076	4
1	2605	1464.937727307916	4
1	2606	1465.420353963622	4
1	2607	1466.45326218803	3
1	2608	1467.595716987558	2
1	2609	1467.753139475771	1
1	2611	1468.098486690598	1
1	2612	1468.913969638991	1
1	2614	1468.992527005545	1
1	2615	1469.956751691516	1
1	2616	1470.617114905907	0
1	2618	1472.622222649443	0
1	2620	1473.227459400151	1
1	2622	1474.116039370115	2
1	2623	1474.127390750169	2
1	2625	1474.263226077488	2
1	2626	1475.044266992802	2
1	2627	1475.163596595148	1
1	2629	1476.736318677943	1
1	2630	1476.927694328287	1
1	2631	1477.31345616639	0
1	2633	1479.258597514166	0
1	2634	1480.533825173052	0
1	2636	1481.039577948346	0
1	2638	1481.672349227576	1
1	2639	1481.96533702079	1
1	2644	1484.646137178314	1
1	2648	1486.283187762476	2
1	2650	1487.289263295538	3
1	2652	1487.755273742228	3
1	2654	1488.478724895917	3
1	2655	1488.540141099464	3
1	2657	1488.606676715441	3
1	2658	1489.607495626807	3
1	2659	1490.950486304333	2
1	2663	1491.716893460345	1
1	2665	1492.305292549942	1
1	2666	1492.318424638584	1
1	2668	1492.339300930532	1
1	2672	1494.320434370735	2
1	2674	1496.195894020244	2
1	2676	1496.555421387038	2
1	2677	1497.402425433425	2
1	2679	1499.249021183156	2
1	2681	1499.394880377442	3
1	2683	1499.724769063403	4
1	2684	1499.795842780462	4
1	2685	1501.16437014998	3
1	2686	1501.757634656992	2
1	2687	1502.175090430407	1
1	2689	1502.251260758941	1
1	2691	1502.765297583733	2
1	2693	1503.007786511605	3
1	2694	1503.475537249942	3
1	2698	1505.190778624787	2
1	2699	1506.263810922678	1
1	2701	1507.063172621342	1
1	2702	1509.206931190454	1
1	2704	1509.64223255143	1
1	2705	1510.527833342968	1
1	2706	1510.627232573689	0
1	2708	1511.873527182486	0
1	2710	1511.982878291179	1
1	2712	1512.439796372688	2
1	2713	1512.537909643338	2
1	2715	1513.025136728548	2
1	2716	1513.307374913012	2
1	2718	1514.678879119807	2
1	2719	1514.72878145123	2
1	2720	1514.899598377515	1
1	2722	1515.368068373983	1
1	2723	1515.412098673788	1
1	2724	1515.501461050307	0
1	2726	1515.895825311261	0
1	2728	1517.20135633138	1
1	2729	1517.715693445766	1
1	2730	1518.63950667874	0
1	2732	1519.216130363582	0
1	2733	1520.357274570896	0
1	2737	1528.30518470042	0
1	2739	1528.342746515176	1
1	2741	1528.523434186933	2
1	2743	1529.087804041693	2
1	2745	1529.760132567489	2
1	2750	1532.40204985982	3
1	2752	1532.508458464506	4
1	2753	1532.764397130849	4
1	2754	1533.075911520313	3
1	2755	1533.49021030083	2
1	2757	1534.226896233445	2
1	2758	1534.661166980603	2
1	2759	1534.879263658574	1
1	2760	1536.021610764868	0
1	2762	1536.871187277112	0
1	2764	1537.042308968315	1
1	2768	1541.40654541789	2
1	2770	1542.529079495355	3
1	2772	1544.516754897361	3
1	2773	1544.772588359207	2
1	2777	1546.836220635842	1
1	2779	1548.004444164788	1
1	2780	1548.474903677558	1
1	2782	1549.454203448844	1
1	2783	1550.434810434918	1
1	2784	1550.461017441427	0
1	2786	1553.103501038075	0
1	2787	1553.212734425123	0
1	2789	1554.480412860618	0
1	2790	1555.431280634991	0
1	2792	1558.402734633357	0
1	2793	1558.969196198586	0
1	2795	1561.381693074825	0
1	2796	1562.558519409529	0
1	2798	1562.78361102206	0
1	2800	1563.461024558942	1
1	2801	1563.596323145763	1
1	2802	1563.631165254478	0
1	2806	1566.314397099505	0
1	2810	1566.551613748463	1
1	2812	1568.785772935364	2
1	2814	1569.193757710575	3
1	2817	1571.0636283347	4
1	2819	1572.351452678162	5
1	2821	1574.996162494859	6
1	2823	1576.614280742346	6
1	2825	1576.90129575243	6
1	2826	1576.915371954128	6
1	2827	1577.106585293667	5
1	2829	1577.258503506535	5
1	2830	1577.658326899306	5
1	2831	1578.518259925082	4
1	2833	1578.555682121555	4
1	2834	1579.119550637857	4
1	2835	1580.141269225228	3
1	2837	1580.425049885417	3
1	2838	1580.450077088876	3
1	2840	1581.050050675655	3
1	2842	1581.260718052852	4
1	2843	1581.362369246545	4
1	2844	1581.75514373517	3
1	2846	1582.213981415061	3
1	2847	1582.333053273567	3
1	2849	1582.669496510992	3
1	2850	1582.722751523888	3
1	2851	1583.11404095096	2
1	2852	1583.574094680749	1
1	2854	1583.818702194593	1
1	2864	1587.123902676656	2
1	2866	1587.472517604492	3
1	2868	1587.972129054257	4
1	2870	1589.805483634184	5
1	2872	1593.309967969689	5
1	2874	1593.400964727341	5
1	2875	1593.91955664189	5
1	2876	1596.365843053449	4
1	2878	1596.972088306302	4
1	2879	1597.383882909826	4
1	2881	1598.108042118414	4
1	2883	1598.463367798298	5
1	2884	1600.535645615039	5
1	2886	1602.183208091902	5
1	2888	1603.157715064537	6
1	2890	1605.108522556193	7
1	2892	1605.881259683703	8
1	2893	1606.063882175471	8
1	2895	1606.701334734904	8
1	2896	1608.525122670252	8
1	2898	1609.694744246522	8
1	2899	1610.273892368507	8
1	2900	1610.52004077977	7
1	2901	1610.639807255866	6
1	2903	1611.029827936004	6
1	2904	1611.361188939543	6
1	2905	1611.617464089863	5
1	2906	1613.819675759324	4
1	2908	1615.216428674013	4
1	2909	1615.985423216024	4
1	2914	1617.363928588532	4
1	2916	1617.707099247734	5
1	2918	1618.135389588106	6
1	2919	1619.383219081092	6
1	2920	1619.529572858733	5
1	2922	1621.036360737413	5
1	2923	1621.933604290919	5
1	2924	1623.340123219268	4
1	2926	1623.859146355996	4
1	2927	1624.213957779721	4
1	2928	1625.056135902114	3
1	2930	1625.343009755668	3
1	2932	1625.593455081058	4
1	2934	1625.661592840847	5
1	2936	1625.749905821381	6
1	2938	1626.04063477621	7
1	2940	1628.261036226556	8
1	2941	1628.437962116687	8
1	2942	1628.475345921806	7
1	2943	1629.049569363118	6
1	2944	1630.292463571683	5
1	2945	1632.200778582187	4
1	2946	1632.645576842532	3
1	2947	1632.653940228566	2
1	2949	1632.659636156172	2
1	2950	1633.406275175088	2
1	2956	1635.971628274581	2
1	2963	1646.08031793795	3
1	2965	1646.327338045949	4
1	2967	1646.520149476707	5
1	2969	1647.795823418936	6
1	2971	1648.160425807692	7
1	2973	1649.937713367596	8
1	2978	1655.929257132708	9
1	2980	1656.04819163226	10
1	2982	1656.151067119144	11
1	2984	1658.203632485163	12
1	2986	1659.93560932318	13
1	2989	1662.006144172924	14
1	2991	1663.012525063509	15
1	2994	1665.067005614134	16
1	2996	1666.415845353496	17
1	2998	1666.937825555383	18
1	3001	1668.492492778517	19
1	3002	1669.717426739849	19
1	3003	1669.94611933907	18
1	3004	1670.084841982563	17
1	3008	1671.688482324294	17
1	3010	1674.795491805865	17
1	3012	1675.303853141209	17
1	3013	1675.751746349528	17
1	3014	1676.904925075087	16
1	3016	1677.586783983626	16
1	3018	1677.672845327167	17
1	3019	1678.399070715872	17
1	3020	1678.502213184367	16
1	3022	1680.337755960128	16
1	3024	1680.721802595438	17
1	3026	1681.110418996911	18
1	3027	1681.406666946151	18
1	3029	1682.010802164955	18
1	3030	1682.09752715108	18
1	3031	1683.131226433588	17
1	3032	1683.322346849995	16
1	3034	1684.47462082759	16
1	3035	1685.481448219178	16
1	3037	1686.561268683933	16
1	3038	1686.781863409943	16
1	3040	1687.126189917887	16
1	3041	1689.12608987406	16
1	3042	1689.521658290009	15
1	3044	1689.639332649483	15
1	3045	1690.00908600763	15
1	3046	1690.305231634232	14
1	3047	1690.664327639474	13
1	3048	1691.650455193131	12
1	3050	1692.382475521985	12
1	3051	1693.00789852793	12
1	3053	1693.152498380552	12
1	3054	1693.401399047945	12
1	3055	1693.498440821478	11
1	3056	1693.850742705861	10
1	3057	1693.963708233155	9
1	3059	1695.021276242783	9
1	3060	1695.473407080188	9
1	3064	1699.23117032689	9
1	3066	1701.02122514389	10
1	3068	1704.092179326053	10
1	3072	1704.875444590479	10
1	3074	1705.341478316855	11
1	3076	1707.669769499101	12
1	3078	1708.562156519056	13
1	3080	1710.564505646582	14
1	3082	1711.621399411112	15
1	3084	1711.706319215666	16
1	3086	1716.903646888	17
1	3088	1718.365776068878	18
1	3090	1718.45892292672	19
1	3092	1723.401780119743	20
1	3094	1726.257225147924	21
1	3096	1726.700187073483	22
1	3098	1728.427524150083	23
1	3100	1729.590857934051	24
1	3102	1729.810756368191	25
1	3104	1730.268049524249	26
1	3106	1733.130117927322	27
1	3108	1736.762025436117	28
1	3110	1737.06699902219	29
1	3112	1739.703250469211	29
1	3113	1741.440150682154	28
1	3114	1741.494312473291	27
1	3118	1743.440032789332	27
1	3120	1743.723463480781	28
1	3122	1744.159778981257	29
1	3125	1746.984654603352	30
1	3129	1747.782538176782	31
1	3131	1748.551128711555	31
1	3133	1749.362642093574	31
1	3134	1750.312511584553	31
1	3135	1750.756793901483	30
1	3136	1752.066674294509	29
1	3137	1753.309642813699	28
1	3138	1753.380917248345	27
1	3139	1753.443172502989	26
1	3141	1753.645426932805	26
1	3143	1754.363459693535	27
1	3144	1754.470066196734	27
1	3146	1754.748904249782	27
1	3148	1755.269329864433	28
1	3150	1755.635025499675	29
1	3151	1755.653000100363	29
1	3155	1756.31169221872	29
1	3158	1756.962935908932	30
1	3162	1757.538821404355	30
1	3163	1757.548848123944	29
1	3164	1758.218077409911	28
1	3165	1758.882525515449	27
1	3166	1758.981010010895	26
1	3167	1759.514841915071	25
1	3168	1761.122121083676	24
1	3170	1761.83136972197	24
1	3171	1762.237777307401	24
1	3172	1763.19550154588	23
1	3173	1763.462122584651	22
1	3177	1767.088251612213	21
1	3181	1768.38124885025	21
1	3185	1771.404726793961	22
1	3187	1771.555225120305	23
1	3189	1772.857423873468	24
1	3192	1774.171048300481	25
1	3194	1775.493846110409	26
1	3196	1776.296036835085	26
1	3198	1776.838066559533	26
1	3199	1779.164079863058	26
1	3200	1779.19756480544	25
1	3201	1779.700399215679	24
1	3203	1780.678663116762	24
1	3204	1780.918615079267	24
1	3205	1781.252264853324	23
1	3206	1781.906696839498	22
1	3208	1782.120696046504	22
1	3209	1784.161524917006	22
1	3210	1784.837170199005	21
1	3212	1785.184255227357	21
1	3214	1786.399236121164	22
1	3218	1787.258633816785	23
1	3220	1788.263329782818	24
1	3223	1789.213239998469	25
1	3224	1789.493926031513	25
1	3225	1789.524085323007	24
1	3226	1791.39002522348	23
1	3228	1792.34570857537	23
1	3230	1793.230103390136	24
1	3232	1793.351345487365	25
1	3233	1793.914839324778	25
1	3234	1794.373831938136	24
1	3235	1794.685021904885	23
1	3242	1799.242910418505	22
1	3244	1799.432528825031	22
1	3245	1800.926903791136	22
1	3247	1801.615250502972	22
1	3248	1801.625476246979	22
1	3249	1801.905647882162	21
1	3251	1801.945990116613	21
1	3253	1802.69584260228	22
1	3254	1803.014791127942	22
1	3255	1804.548365740422	21
1	3257	1805.258107054925	21
1	3258	1805.971632564856	21
1	3259	1806.682505389809	20
1	3260	1807.254292940489	19
1	3261	1807.485385426813	18
1	3262	1808.125228466587	17
1	3263	1808.941678694914	16
1	3264	1809.68488085857	15
1	3265	1809.884456862742	14
1	3272	1814.1775679885	14
1	3274	1814.567163613458	15
1	3276	1815.393077288707	16
1	3278	1819.872853023858	16
1	3280	1820.663748419719	16
1	3281	1820.687128465771	16
1	3283	1820.74953464844	16
1	3287	1822.365185781652	17
1	3289	1827.971388965523	18
1	3292	1828.468571427676	19
1	3294	1829.178744303774	20
1	3298	1830.104879510482	20
1	3299	1830.81633452132	19
1	3300	1831.517523494861	18
1	3304	1833.470881634315	18
1	3306	1833.951014088423	19
1	3308	1835.845090951706	20
1	3310	1836.485976795098	20
1	3311	1836.647127299004	19
1	3312	1837.225571761364	18
1	3313	1837.268769660528	17
1	3314	1837.851226860541	16
1	3316	1838.183880702946	16
1	3318	1838.909785942623	17
1	3320	1839.072506813435	18
1	3324	1841.288292331584	18
1	3325	1841.681541644242	17
1	3326	1842.730083437831	16
1	3328	1843.273326489033	16
1	3329	1843.855152684941	16
1	3331	1844.03041992774	16
1	3332	1844.774581889286	16
1	3333	1845.142345346423	15
1	3334	1846.08527353115	14
1	3335	1846.179066781783	13
1	3336	1847.845433165094	12
1	3337	1848.030951153458	11
1	3338	1848.597255333746	10
1	3340	1848.775364537675	10
1	3341	1848.836965283485	10
1	3343	1849.532498450927	10
1	3344	1849.603224606965	10
1	3345	1849.60577890119	9
1	3347	1850.530048737576	9
1	3348	1850.974930459594	9
1	3349	1853.176309504288	8
1	3350	1853.240730316905	7
1	3352	1855.831198730964	7
1	3353	1856.727957250638	7
1	3354	1857.182881777667	6
1	3361	1860.086611725944	6
1	3363	1861.967901452065	7
1	3365	1862.822793052382	8
1	3367	1865.009820323458	9
1	3369	1865.435982534627	10
1	3373	1868.356244484259	11
1	3375	1871.874444587768	12
1	3382	1874.444815561664	13
1	3384	1874.540074802961	14
1	3388	1875.625290524943	15
1	3390	1876.161107043915	16
1	3394	1878.672244732463	17
1	3401	1884.731674718778	18
1	3403	1885.106622584085	19
1	3405	1885.418069301937	20
1	3407	1887.265088532177	21
1	3409	1888.856671298448	22
1	3411	1891.457235388126	23
1	3414	1893.972724959275	24
1	3416	1894.257352809733	25
1	3418	1896.050604938545	26
1	3423	1900.47195423158	27
1	3426	1903.531498891243	28
1	3428	1904.544712575563	29
1	3430	1906.352265608324	30
1	3434	1910.973276486163	31
1	3436	1911.41256700649	32
1	3438	1912.713717478007	33
1	3441	1915.406694848408	34
1	3443	1918.46432305035	35
1	3445	1918.752288764668	36
1	3447	1924.06580260301	37
1	3449	1924.889226376949	38
1	3451	1925.446002981207	39
1	3453	1926.153604378806	40
[...]
8	2872	1593.309967969689	9.385024915459
8	2875	1593.91955664189	6.801273389471
8	2876	1596.365843053449	9.241940376793
8	2879	1597.383882909826	9.911365305334
8	2884	1600.535645615039	12.563516560782
8	2893	1606.063882175471	16.258398541287
8	2896	1608.525122670252	15.124157942911
8	2899	1610.273892368507	13.301804062205
8	2900	1610.52004077977	12.411998661356
8	2901	1610.639807255866	12.176439457568
8	2904	1611.361188939543	9.177980847641
8	2905	1611.617464089863	8.459749025326
8	2906	1613.819675759324	8.711153203131
8	2909	1615.985423216024	10.104163532321
8	2919	1619.383219081092	9.68847483457
8	2920	1619.529572858733	8.499744922729
8	2923	1621.933604290919	6.717175616906
8	2924	1623.340123219268	6.591878434308
8	2927	1624.213957779721	6.850029191189
8	2928	1625.056135902114	7.34903665438
8	2941	1628.437962116687	10.302572528581
8	2942	1628.475345921806	7.438985184393
8	2943	1629.049569363118	5.190423007122
8	2944	1630.292463571683	4.949453816015
8	2945	1632.200778582187	6.607323501129
8	2946	1632.645576842532	6.983984001685
8	2947	1632.653940228566	6.904034407185
8	2950	1633.406275175088	7.365640398878
8	3002	1669.717426739849	37.057790583677
8	3003	1669.94611933907	36.410895380034
8	3004	1670.084841982563	34.113213707982
8	3010	1674.795491805865	28.468153759916
8	3013	1675.751746349528	29.231596872821
8	3014	1676.904925075087	29.109101656151
8	3019	1678.399070715872	30.23864490818
8	3020	1678.502213184367	28.564499816771
8	3027	1681.406666946151	25.477409813443
8	3030	1682.09752715108	26.04933551882
8	3031	1683.131226433588	26.980159314444
8	3032	1683.322346849995	25.118714364832
8	3035	1685.481448219178	25.545838895998
8	3038	1686.781863409943	24.775719237019
8	3041	1689.12608987406	26.113564810551
8	3042	1689.521658290009	24.454652675875
8	3045	1690.00908600763	23.593240654134
8	3046	1690.305231634232	23.367406078849
8	3047	1690.664327639474	22.171834860957
8	3048	1691.650455193131	20.948997662394
8	3051	1693.00789852793	21.319416203636
8	3054	1693.401399047945	18.097545906736
8	3055	1693.498440821478	15.911656837852
8	3056	1693.850742705861	16.177897378694
8	3057	1693.963708233155	13.625952273027
8	3060	1695.473407080188	14.75160448475
8	3068	1704.092179326053	22.081377161098
8	3112	1739.703250469211	53.141981785278
8	3113	1741.440150682154	54.313960764267
8	3114	1741.494312473291	51.854979823808
8	3131	1748.551128711555	53.529852468772
8	3134	1750.312511584553	53.824573657694
8	3135	1750.756793901483	51.525623574593
8	3136	1752.066674294509	51.045449150619
8	3137	1753.309642813699	48.793114614554
8	3138	1753.380917248345	48.505472657866
8	3139	1753.443172502989	48.101694186134
8	3144	1754.470066196734	46.800296697633
8	3151	1755.653000100363	47.090843581307
8	3162	1757.538821404355	45.832502188689
8	3163	1757.548848123944	40.645201235944
8	3164	1758.218077409911	39.852301341033
8	3165	1758.882525515449	40.423602588729
8	3166	1758.981010010895	35.579229891152
8	3167	1759.514841915071	33.257616767147
8	3168	1761.122121083676	34.421934010193
8	3171	1762.237777307401	33.810253157318
8	3172	1763.19550154588	33.604643611829
8	3173	1763.462122584651	33.65136621646
8	3177	1767.088251612213	33.958133684891
8	3196	1776.296036835085	39.229037812895
8	3199	1779.164079863058	37.033609610028
8	3200	1779.19756480544	35.757532016108
8	3201	1779.700399215679	35.976935734898
8	3204	1780.918615079267	36.75883609801
8	3205	1781.252264853324	34.267610249972
8	3206	1781.906696839498	34.321748963422
8	3209	1784.161524917006	36.378986740224
8	3210	1784.837170199005	35.474528105431
8	3224	1789.493926031513	35.130466337978
8	3225	1789.524085323007	34.775181073225
8	3226	1791.39002522348	36.120695359047
8	3233	1793.914839324778	38.279813825103
8	3234	1794.373831938136	38.208746417111
8	3235	1794.685021904885	38.373329686165
8	3242	1799.242910418505	37.411540696535
8	3245	1800.926903791136	36.245909900618
8	3248	1801.625476246979	34.079760556417
8	3249	1801.905647882162	33.524399031912
8	3254	1803.014791127942	31.610064333981
8	3255	1804.548365740422	32.993140620117
8	3258	1805.971632564856	33.114208691388
8	3259	1806.682505389809	32.511457089328
8	3260	1807.254292940489	31.76044683008
8	3261	1807.485385426813	30.64731886728
8	3262	1808.125228466587	27.446565349825
8	3263	1808.941678694914	26.82098264841
8	3264	1809.68488085857	24.500625631213
8	3265	1809.884456862742	23.485220741578
8	3278	1819.872853023858	31.60952324104
8	3281	1820.687128465771	31.473888467302
8	3298	1830.104879510482	36.753534023117
8	3299	1830.81633452132	36.115496387078
8	3300	1831.517523494861	35.203558080581
8	3310	1836.485976795098	34.870726292126
8	3311	1836.647127299004	34.701137182391
8	3312	1837.225571761364	34.529729159084
8	3313	1837.268769660528	32.010662605603
8	3314	1837.851226860541	27.665802667413
8	3324	1841.288292331584	27.110724343084
8	3325	1841.681541644242	27.114378030784
8	3326	1842.730083437831	27.337006149124
8	3329	1843.855152684941	23.191404265222
8	3332	1844.774581889286	24.025047240846
8	3333	1845.142345346423	23.669706146027
8	3334	1846.08527353115	23.720087749498
8	3335	1846.179066781783	18.20767781626
8	3336	1847.845433165094	19.376861737418
8	3337	1848.030951153458	18.852206849684
8	3338	1848.597255333746	19.379911099603
8	3341	1848.836965283485	16.669028140927
8	3344	1849.603224606965	16.13234297265
8	3345	1849.60577890119	15.654764812767
8	3348	1850.974930459594	15.129839507888
8	3349	1853.176309504288	14.992428801342
8	3350	1853.240730316905	14.330944374282
8	3353	1856.727957250638	17.655450437203
8	3354	1857.182881777667	17.178241651908
8	3455	1926.898104927492	82.867684999752
8	3460	1927.942112282511	79.166747744836
8	3461	1928.526627034303	78.994128583376
8	3464	1930.669760058711	80.139711321135
8	3465	1931.554770079573	75.723571348609
8	3466	1931.937378280467	73.956886353121
8	3467	1932.255757477242	72.169145751298
8	3468	1932.582874021118	70.614972569053
8	3469	1932.706676350841	69.883883298459
8	3478	1935.169224863228	70.15940453977
8	3479	1935.200503445974	69.764520911347
8	3480	1935.834166319542	67.477921835283
8	3486	1938.41429634792	63.969480786256
8	3487	1938.795228183481	64.25515338052
8	3488	1938.810441233703	63.18515070876
8	3555	1994.199655873245	115.52741114078
8	3560	1995.316571165969	110.58489644719
8	3561	1995.438102780532	110.33148019645
9	44	28.586098088118	0
9	51	38.188619508234	8.39104719102
9	54	39.125900180211	0.673827390844
9	61	42.638876916089	1.999429011828
9	78	54.690704511548	13.447121992052
9	79	55.854606354019	10.905224127875
9	113	68.912892940006	0
9	118	76.029546675549	2.339474799115
9	135	93.94866856236	10.002406710641
9	176	126.911341601565	0
9	228	154.676995990387	0
9	264	165.756848732822	0
9	269	168.087196173202	0.927971674606
9	300	180.510912774583	0
9	320	188.995332910287	0
9	327	191.773322633161	2.646364917513
9	369	211.004821430461	0
9	396	233.177317304756	12.923433228183
9	451	261.869756964311	0
9	457	265.277565929784	0
9	473	272.686562542493	0
9	503	294.67804471713	0
9	518	311.743662835091	6.59805551528
9	525	315.701031267906	7.80057705418
9	538	326.331067500555	0
9	551	334.362386466929	2.863548828559
9	564	340.994111041507	0
9	611	361.304855558608	0
9	628	371.18449460888	0
9	632	375.555964383166	0
9	675	399.816430004576	0
9	693	407.42674685534	0
9	734	430.053682048907	0
9	739	432.161787113659	0.471063976233
9	746	436.616081983687	0
9	749	440.611584811589	3.040677815887
9	763	448.145204812315	0
9	772	452.249835182117	1.861238544017
9	789	462.245167877063	0
9	811	472.218046149462	0
9	814	477.488873948597	1.749225885092
9	864	505.885994210185	0
9	867	506.256323187953	0
9	889	519.18555965287	0
9	971	562.343574497804	0
9	994	570.24755424656	3.175190370536
9	1003	578.285791093074	10.278452840691
9	1024	588.466444499105	13.118400961483
9	1027	591.045515973089	9.047944978944
9	1034	599.379683587052	16.962329876822
9	1035	600.503326820648	12.912309073418
9	1060	615.179919356	0
9	1088	628.880643702699	0
9	1108	638.569661781222	0
9	1139	657.847820017566	15.559439287433
9	1142	658.592668135682	13.319258837271
9	1153	673.939698378984	28.626569998134
9	1156	678.305336752624	30.320089312766
9	1159	686.419969858242	34.429679416447
9	1160	686.642572166299	31.910714094514
9	1169	700.921786642003	27.164750318618
9	1182	709.496595934882	15.103581389441
9	1183	710.886166509735	10.836346930655
9	1213	724.234479912723	0
9	1291	770.032521223427	0
9	1322	791.662941962772	0
9	1325	795.058327703754	1.92074269003
9	1351	806.813094874244	0
9	1362	812.395387653007	5.262009478179
9	1368	814.494292474937	0
9	1375	820.941196848056	4.419940650701
9	1392	827.11254691405	0
9	1406	831.762948888419	0
9	1497	867.0386202644	0
9	1508	874.718991297211	0
9	1572	899.702961700967	0
9	1593	909.247433427748	0
9	1607	922.222988645594	0
9	1615	928.584975619353	0
9	1618	932.631545298688	0
9	1627	935.446141310681	0
9	1638	938.188617959383	1.105356454408
9	1639	940.642134177134	2.657368450173
9	1646	947.287384232138	0
9	1700	978.134935613947	0
9	1709	983.536959180483	4.219683193995
9	1724	997.83187254868	6.147667924765
9	1734	1004.349399437168	0
9	1756	1020.168573932285	0
9	1781	1030.38098985149	0
9	1786	1036.38511845002	0.16514891407
9	1833	1062.727156806308	0
9	1850	1080.890409077252	0
9	1861	1084.800713566933	2.514486996921
9	1870	1088.094878864191	5.41989285397
9	1885	1093.172249626225	0.937690615301
9	1904	1103.338832820143	0
9	1913	1106.637168986618	0
9	1920	1109.075761811369	0.574477089994
9	1923	1110.568919157383	0
9	1958	1136.074081535109	0
9	1963	1139.807506408382	1.904064811953
9	1966	1141.630336952063	1.3004034149
9	1969	1142.596827251814	0
9	1982	1148.35342125126	0
9	2001	1158.158000622369	8.20574478979
9	2006	1160.106983766644	6.133859188919
9	2016	1164.447692810172	0
9	2039	1172.599379076285	2.890974055948
9	2040	1174.004095385211	4.291141379556
9	2041	1174.209855927585	2.948182763394
9	2058	1183.627677627803	0
9	2123	1218.200971447478	0
9	2148	1227.876857611414	0
9	2228	1274.635436086821	0
9	2242	1283.431924411881	0
9	2251	1286.485709907537	0
9	2257	1291.553248303342	0
9	2260	1292.382871073509	0.030159111478
9	2300	1314.023656028912	0
9	2312	1317.318835405901	0
9	2321	1322.045512829109	0.630079169175
9	2345	1338.717780634786	0
9	2350	1340.531086082893	0.257373659491
9	2379	1350.790381791818	0
9	2406	1365.688275838521	0
9	2418	1374.455280914582	0
9	2443	1390.019101934065	0
9	2485	1403.259974060067	0
9	2496	1406.935998000513	1.946455798137
9	2499	1408.346906030581	1.064844598025
9	2519	1418.579915566231	0
9	2526	1425.572689372436	3.567722001912
9	2591	1456.308651666935	0
9	2641	1482.451601451722	0
9	2646	1485.918218035158	0
9	2661	1491.155660332984	0
9	2670	1492.881488501169	0
9	2696	1504.464988766088	0
9	2735	1522.255210665501	0
9	2747	1530.720203134045	0
9	2766	1538.851006911323	0
9	2775	1545.227316452133	0
9	2804	1565.292353700413	0
9	2815	1569.832579256594	3.506400115686
9	2856	1583.92494305423	0
9	2859	1585.662589167116	0.191863583466
9	2862	1587.118283252419	0
9	2911	1616.74824478496	0
9	2952	1633.535223959036	0
9	2959	1641.29623317072	5.692409947809
9	2976	1654.657893143346	18.298642423367
9	2987	1661.949548494614	17.679187026805
9	2992	1665.055401478006	11.638827330555
9	3006	1670.701457530737	0
9	3062	1696.487937926859	0
9	3070	1704.516528199145	0
9	3116	1742.13047025303	0
9	3127	1747.584947876076	0
9	3153	1756.165085521025	0
9	3160	1757.090998276747	0
9	3175	1764.680993890518	0
9	3179	1767.545715690562	0
9	3190	1774.138092720816	4.62380203789
9	3216	1786.629356908219	0
9	3237	1794.700838134242	0
9	3240	1796.31396541428	0
9	3267	1810.185424193128	0
9	3270	1812.917262591642	0
9	3285	1821.472639200396	0
9	3296	1829.217344234143	0
9	3302	1832.167937142558	0
9	3322	1840.004640125759	0
9	3356	1857.980491927346	0
9	3359	1860.004023326806	1.762507081486
9	3378	1873.222328023794	7.111580448003
9	3397	1879.471086132507	6.931461702158
9	3398	1880.583978241062	6.932023287162
9	3399	1883.204011803182	8.168557631015
9	3412	1892.796929691933	14.840697616923
9	3419	1897.276733171496	18.260563540767
9	3424	1902.045231315356	1.827974458267
9	3439	1914.762314393598	6.998883279701
9	3482	1935.921371916435	0
9	3490	1939.15975656445	0
9	3521	1962.870980112798	23.687633435746
9	3528	1974.16170811051	25.904973333341
9	3541	1982.145496154414	33.294337077339
9	3542	1982.798733108735	23.668767877383
9	3549	1992.600239355566	25.025328340987
9	3563	1995.446031986411	0
10	51	38.188619508234	9.602521420116
10	54	39.125900180211	9.328327862997
10	61	42.638876916089	4.186804126722
10	78	54.690704511548	14.051256607287
10	79	55.854606354019	14.611023834523
10	80	56.174501086402	11.225118860258
10	118	76.029546675549	7.116653735543
10	135	93.94866856236	20.258596685926
10	138	99.03082913593	15.084567284211
10	179	127.516041402711	0.604699801146
10	229	154.975905157317	0.29890916693
10	269	168.087196173202	2.33034744038
10	270	168.310119295552	1.150894796956
10	307	182.147369863295	1.636457088712
10	327	191.773322633161	2.777989722874
10	332	194.41873270124	5.291774985592
10	396	233.177317304756	22.172495874295
10	397	234.269829799015	14.015945722442
10	452	262.352518544945	0.482761580634
10	460	266.83227538933	1.554709459546
10	474	273.350688981373	0.66412643888
10	518	311.743662835091	17.065618117961
10	525	315.701031267906	10.555423948095
10	530	318.9899747381	11.089520524374
10	551	334.362386466929	8.031318966374
10	560	338.450535788722	6.951698150352
10	565	343.48099803475	2.486886993243
10	614	362.177736077657	0.872880519049
10	629	373.208271241384	2.023776632504
10	635	377.758080347621	2.202115964455
10	676	400.04241740184	0.225987397264
10	704	418.246472289444	10.819725434104
10	739	432.161787113659	2.108105064752
10	744	435.423985267618	3.733262130192
10	749	440.611584811589	3.995502827902
10	760	447.876744196327	10.305837200625
10	772	452.249835182117	4.104630369802
10	775	456.955169975691	6.566573337591
10	800	468.684270521532	6.439102644469
10	814	477.488873948597	5.270827799135
10	817	481.725089523071	5.985441459566
10	865	506.115968987616	0.229974777431
10	870	510.91631133946	4.659988151507
10	894	524.876667246233	5.691107593363
10	994	570.24755424656	7.903979748756
10	1003	578.285791093074	11.21342721705
10	1024	588.466444499105	20.459106246722
10	1027	591.045515973089	15.697472435467
10	1034	599.379683587052	17.382112592907
10	1035	600.503326820648	18.085973110418
10	1036	602.068037395026	14.477019647796
10	1061	615.968396857251	0.788477501251
10	1093	633.288196635051	4.407552932352
10	1139	657.847820017566	19.278158236344
10	1142	658.592668135682	16.304287405549
10	1153	673.939698378984	28.666289080573
10	1156	678.305336752624	32.992208371774
10	1159	686.419969858242	38.434722418384
10	1160	686.642572166299	34.652281724504
10	1169	700.921786642003	46.189928570218
10	1182	709.496595934882	35.739559611497
10	1183	710.886166509735	16.493151964294
10	1186	712.60574312592	12.55592354684
10	1222	732.352268871612	8.117788958889
10	1306	785.004108127667	14.97158690424
10	1325	795.058327703754	3.395385740982
10	1344	803.975379986105	10.837794972381
10	1362	812.395387653007	5.582292778763
10	1363	812.615540592935	5.482162418107
10	1375	820.941196848056	6.446904373119
10	1380	823.500477594594	6.979221397239
10	1395	828.425252261652	1.312705347602
10	1407	833.619806821411	1.856857932992
10	1506	874.027603614123	6.988983349723
10	1519	882.16133849059	7.442347193379
10	1575	901.823837733947	2.12087603298
10	1594	909.661848043956	0.414414616208
10	1608	922.766720980961	0.543732335367
10	1616	932.118269552692	3.533293933339
10	1619	932.954175310434	0.322630011746
10	1638	938.188617959383	2.742476648702
10	1639	940.642134177134	3.558872672159
10	1644	947.072248875758	9.087483148797
10	1651	953.356743147529	6.069358915391
10	1709	983.536959180483	5.402023566536
10	1724	997.83187254868	18.514596562192
10	1727	999.921433973205	8.23722934929
10	1739	1007.658385769391	3.308986332223
10	1761	1022.31898733256	2.150413400275
10	1786	1036.38511845002	6.00412859853
10	1789	1037.849236390117	1.629266854167
10	1836	1070.932407720019	8.205250913711
10	1861	1084.800713566933	3.910304489681
10	1870	1088.094878864191	5.808652294179
10	1885	1093.172249626225	10.497263616004
10	1888	1096.423476473574	4.18891746265
10	1905	1104.534063236996	1.195230416853
10	1920	1109.075761811369	2.438592824751
10	1921	1109.741655038831	1.240370317456
10	1942	1128.790521754763	18.22160259738
10	1963	1139.807506408382	3.733424873273
10	1966	1141.630336952063	3.726895355634
10	1967	1142.212433452054	1.882499914891
10	1978	1146.736643747287	4.139816495473
10	2001	1158.158000622369	9.804579371109
10	2006	1160.106983766644	10.154727934065
10	2007	1160.611006346919	6.637881769194
10	2039	1172.599379076285	8.151686266113
10	2040	1174.004095385211	4.295690364874
10	2041	1174.209855927585	4.49690192193
10	2050	1181.472452662003	10.210779497812
10	2061	1186.250224342168	2.622546714365
10	2132	1222.04084959813	3.839878150652
10	2149	1228.142259598824	0.26540198741
10	2229	1275.263673020774	0.628236933953
10	2243	1283.440466240391	0.00854182851
10	2252	1287.042443461548	0.556733554011
10	2260	1292.382871073509	0.829622770167
10	2265	1297.167677285852	4.814965323821
10	2309	1315.911319030292	1.88766300138
10	2321	1322.045512829109	4.726677423208
10	2322	1322.140244989942	0.724811330008
10	2350	1340.531086082893	1.813305448107
10	2361	1345.620486524529	5.346774101127
10	2384	1358.279473491952	7.489091700134
10	2407	1371.793944241633	6.105668403112
10	2439	1386.332227132822	11.87694621824
10	2450	1394.3334456681	4.314343734035
10	2496	1406.935998000513	3.676023940446
10	2499	1408.346906030581	3.357363828205
10	2506	1414.81899975019	7.536938317634
10	2526	1425.572689372436	6.992773806205
10	2527	1425.591576202205	3.586608831681
10	2598	1459.707753137163	3.399101470228
10	2642	1484.430249581689	1.978648129967
10	2651	1487.518867437358	1.6006494022
10	2662	1491.165156234021	0.009495901037
10	2673	1495.772704313362	2.891215812193
10	2697	1505.044686983757	0.579698217669
10	2742	1528.534705276087	6.279494610586
10	2748	1531.675149813513	0.954946679468
10	2771	1544.403899125691	5.552892214368
10	2776	1546.005721132911	0.778404680778
10	2815	1569.832579256594	4.540225556181
10	2822	1575.928596362562	9.602417221654
10	2859	1585.662589167116	1.737646112886
10	2860	1586.43521572147	0.96449013782
10	2871	1590.413995764156	3.295712511737
10	2912	1617.26750205716	0.5192572722
10	2959	1641.29623317072	7.761009211684
10	2976	1654.657893143346	19.054069920435
10	2987	1661.949548494614	25.590297774635
10	2992	1665.055401478006	20.785040010197
10	2999	1667.530994598122	14.114420450671
10	3009	1674.575071826762	3.873614296025
10	3067	1703.386672903363	6.898734976504
10	3111	1739.010037834555	34.49350963541
10	3123	1746.631759972443	4.501289719413
10	3130	1748.374596280518	0.789648404442
10	3156	1756.901921671935	0.73683615091
10	3161	1757.115321431201	0.024323154454
10	3176	1766.841181119373	2.160187228855
10	3190	1774.138092720816	6.592377030254
10	3195	1775.495203621588	5.980912938662
10	3221	1789.037089086716	2.407732178497
10	3238	1796.095478818335	1.394640684093
10	3241	1798.399250718367	2.085285304087
10	3268	1812.283546855752	2.098122662624
10	3277	1818.901629720242	5.9843671286
10	3290	1828.232486310257	6.759847109861
10	3297	1829.854173319149	0.636829085006
10	3309	1836.460585337418	4.29264819486
10	3323	1841.216566941985	1.211926816226
10	3359	1860.004023326806	2.02353139946
10	3378	1873.222328023794	14.980811778474
10	3397	1879.471086132507	13.360338556716
10	3398	1880.583978241062	8.044353810713
10	3399	1883.204011803182	9.552056849282
10	3412	1892.796929691933	17.761475519766
10	3419	1897.276733171496	19.320501096486
10	3424	1902.045231315356	23.029061684627
10	3439	1914.762314393598	14.545057536509
10	3454	1926.742773772074	18.979342658177
10	3485	1938.336520000716	2.415148084281
10	3521	1962.870980112798	23.711223548348
10	3528	1974.16170811051	34.978361433458
10	3541	1982.145496154414	33.888761377245
10	3542	1982.798733108735	33.94757403166
10	3549	1992.600239355566	33.470274124214
10	3554	1993.970790333209	26.39587931863
11	3572	2000	0.4795
12	3572	2000	0.095

