file 222159 1671201068                                          
version 2
run Continuity_test_mean_response_time-135-20221216-15:31:08-5837
attr configname Continuity_test_mean_response_time
attr datetime 20221216-15:31:08
attr experiment Continuity_test_mean_response_time
attr inifile omnetpp.ini
attr iterationvars $0=5.2
attr iterationvarsf 5.2-
attr measurement $0=5.2
attr network Network
attr processid 5837
attr repetition 35
attr replication #35
attr resultdir results
attr runnumber 135
attr seedset 35
param *.minion.arrival_mean 2
param *.minion.service_mean 1
param *.boss.arrival_mean 10
param *.boss.service_mean 5.2
param *.player.recover_rate_x 100
param **.minion.arrival_distribution 0
param **.minion.service_distribution 0
param **.boss.arrival_distribution 0
param **.boss.service_distribution 0

vector 0 Network.player minion_jobs_number_stat:vector ETV
attr source signal_minion_jobs_number
vector 1 Network.player minion_jobs_queue_number_stat:vector ETV
attr source signal_minion_jobs_queue_number
vector 2 Network.player minion_recovered_stat:vector ETV
attr source signal_minion_recovered
vector 3 Network.player minion_defeated_stat:vector ETV
attr source signal_minion_defeated
vector 4 Network.player boss_jobs_number_stat:vector ETV
attr source signal_boss_jobs_number
vector 5 Network.player boss_jobs_queue_number_stat:vector ETV
attr source signal_boss_jobs_queue_number
vector 6 Network.player boss_defeated_stat:vector ETV
attr source signal_boss_defeated
vector 7 Network.player minion_waiting_time_stat:vector ETV
attr source signal_minion_waiting_time
vector 8 Network.player minion_response_time_stat:vector ETV
attr source signal_minion_response_time
vector 9 Network.player boss_waiting_time_stat:vector ETV
attr source signal_boss_waiting_time
vector 10 Network.player boss_response_time_stat:vector ETV
attr source signal_boss_response_time
vector 11 Network.player minion_throughput:vector ETV
attr source signal_minion_throughput
vector 12 Network.player boss_throughput:vector ETV
attr source signal_boss_throughput
0	2001 26085 0 3472 0 1999.725500317477 978 0 81 24146 1027234
1	28086 51899 0 3472 0 1999.725500317477 1941 0 80 46247 1959019
2	79985 2536 0 3467 0 1997.71328948441 95 0 94 4465 281295
3	82521 26989 0 3465 0 1997.367467783105 964 0 963 464166 298149294
4	109510 4812 0 3467 0 1997.71328948441 186 0 6 337 857
5	114322 9616 0 3468 0 1998.697998877532 371 0 5 304 736
6	123938 5074 0 3468 0 1998.697998877532 186 0 185 17205 2127685
7	129012 41428 2 3468 2.755902658377 1998.697998877532 1058 0 160.48208999979 48918.130140716 4317214.8659858
8	170440 38339 7 3465 5.249472563069 1997.367467783105 963 0.065492524456 161.80263307083 46121.793340985 4103385.9312384
9	208779 5902 51 3467 23.234158229503 1997.71328948441 185 0 32.870505702216 745.26461250786 11743.816769209
10	214681 7437 60 3468 30.194233127301 1998.697998877532 185 0.009961874341 37.739327964098 1642.4545579736 27497.426965338
11	222118 20 3473 3473 2000 2000 1 0.4815 0.4815 0.4815 0.23184225
12	222138 20 3473 3473 2000 2000 1 0.0925 0.0925 0.0925 0.00855625

