version 2
run Continuity_test_mean_response_time-61-20221215-22:13:23-13677
attr configname Continuity_test_mean_response_time
attr datetime 20221215-22:13:23
attr experiment Continuity_test_mean_response_time
attr inifile omnetpp.ini
attr iterationvars $0=5
attr iterationvarsf 5-
attr measurement $0=5
attr network Network
attr processid 13677
attr repetition 61
attr replication #61
attr resultdir results
attr runnumber 61
attr seedset 61
param *.minion.arrival_mean 2
param *.minion.service_mean 1
param *.boss.arrival_mean 10
param *.boss.service_mean 5
param *.player.recover_rate_x 100
param **.minion.arrival_distribution 0
param **.minion.service_distribution 0
param **.boss.arrival_distribution 0
param **.boss.service_distribution 0

vector 0 Network.player minion_jobs_number_stat:vector ETV
attr source signal_minion_jobs_number
vector 1 Network.player minion_jobs_queue_number_stat:vector ETV
attr source signal_minion_jobs_queue_number
vector 2 Network.player minion_recovered_stat:vector ETV
attr source signal_minion_recovered
vector 3 Network.player minion_defeated_stat:vector ETV
attr source signal_minion_defeated
vector 4 Network.player boss_jobs_number_stat:vector ETV
attr source signal_boss_jobs_number
vector 5 Network.player boss_jobs_queue_number_stat:vector ETV
attr source signal_boss_jobs_queue_number
vector 6 Network.player boss_defeated_stat:vector ETV
attr source signal_boss_defeated
vector 7 Network.player minion_waiting_time_stat:vector ETV
attr source signal_minion_waiting_time
vector 8 Network.player minion_response_time_stat:vector ETV
attr source signal_minion_response_time
vector 9 Network.player boss_waiting_time_stat:vector ETV
attr source signal_boss_waiting_time
vector 10 Network.player boss_response_time_stat:vector ETV
attr source signal_boss_response_time
vector 11 Network.player minion_throughput:vector ETV
attr source signal_minion_throughput
vector 12 Network.player boss_throughput:vector ETV
attr source signal_boss_throughput
0	0	0	0
0	2	0.686890435206	1
0	4	2.756813863559	2
0	6	2.965928986817	3
0	9	3.472514496731	3
0	12	4.045233472916	3
0	15	4.204117493844	3
0	19	5.213628140441	2
0	26	12.280999547261	1
0	28	12.43129542154	2
0	31	14.63551486074	2
0	33	15.126407508656	3
0	35	15.475980878748	4
0	44	24.785601746804	1
0	46	27.506300629376	2
0	50	29.500424092116	1
0	53	30.296589568006	1
0	56	32.381171094927	1
0	58	34.212065240786	2
0	62	35.644360910084	1
0	65	39.366053171803	1
0	68	41.920929876395	1
0	71	43.000415443227	1
0	73	43.128116802228	2
0	76	43.364756781742	2
0	81	44.409667053563	2
0	83	44.901363221529	3
0	85	45.072375846147	4
0	87	50.099808706404	5
0	89	50.594696535596	6
0	91	50.714811815084	7
0	93	54.131747427739	8
0	96	56.369020767359	9
0	98	56.574091880049	10
0	102	59.266421619786	11
0	107	61.385732704201	10
0	109	62.387398432646	11
0	115	66.652837127305	8
0	119	68.673128881099	7
0	121	68.782308031614	8
0	125	69.441576881229	9
0	130	78.737303566909	10
0	138	84.351138561279	9
0	140	84.443063958193	10
0	142	86.922273579908	11
0	144	87.370728490338	12
0	147	88.349314389429	12
0	156	91.79095341951	6
0	159	92.503283003255	6
0	163	94.332901351116	5
0	165	98.087196400673	6
0	169	100.206535984568	5
0	172	101.548971556724	5
0	182	106.163280749676	2
0	184	106.672053874116	3
0	186	109.853165023816	4
0	188	110.401169565309	5
0	191	116.008872018093	6
0	197	122.587698839646	4
0	203	125.460412108301	1
0	205	125.944961089082	2
0	209	130.504797996882	1
0	214	133.237611820324	1
0	216	133.358967890033	2
0	218	137.414244349979	3
0	222	139.450917672249	4
0	224	139.611215443055	5
0	226	140.71268724542	6
0	230	147.032866077939	7
0	232	147.059710640154	8
0	234	147.85760957215	9
0	237	150.66975919207	10
0	239	150.73892841114	11
0	244	153.92594854922	12
0	246	155.566604726053	13
0	248	156.397166546538	14
0	250	158.074510582797	15
0	253	158.635785007894	16
0	255	159.836475199533	17
0	257	160.107738816948	18
0	261	164.27056349187	19
0	263	165.464122436266	20
0	268	169.251468406163	21
0	270	170.801617487337	22
0	273	172.452839732551	23
0	275	174.095824899866	24
0	279	176.147182488218	24
0	281	176.189306947764	25
0	290	177.313090227543	21
0	295	182.410581821714	22
0	299	186.859711228377	23
0	301	187.022076096962	24
0	303	187.184046868339	25
0	305	187.483416518434	26
0	307	187.546136185307	27
0	312	189.793934217665	28
0	323	195.981655343667	24
0	325	196.2576098496	25
0	332	200.676213835574	22
0	337	201.285899693276	22
0	341	201.759869978705	23
0	343	201.870526026932	24
0	349	207.420064607111	23
0	352	208.010467931497	23
0	355	211.12919564939	23
0	357	211.528449075545	24
0	359	212.324400415541	25
0	362	216.461619325251	25
0	364	217.599977213258	26
0	367	218.0471267306	26
0	373	222.16601908098	23
0	377	223.816817276175	22
0	385	229.893879254506	17
0	387	231.829080210534	18
0	391	235.267571450574	17
0	395	236.045122171331	18
0	400	238.087790685692	17
0	403	238.801853742025	17
0	409	241.132010276473	14
0	413	243.387561784015	13
0	415	243.446262870401	14
0	417	245.189844820865	15
0	419	246.017636162473	16
0	421	246.079099969067	17
0	429	250.952022181347	14
0	435	256.291272284262	14
0	437	257.035575762427	15
0	447	261.031904491467	9
0	451	261.635471823329	8
0	454	262.504872945476	8
0	456	264.463971802815	9
0	460	265.219125154055	10
0	462	265.783074114339	11
0	464	267.086734595164	12
0	466	267.362935386566	13
0	468	269.447367827803	14
0	470	271.439145427623	15
0	472	271.896596352111	16
0	475	273.687013478431	17
0	477	274.394818950551	18
0	481	276.042723649398	17
0	483	276.047359000437	18
0	490	279.83213876285	16
0	492	281.055088651974	17
0	499	283.315691139501	17
0	513	292.572482521308	8
0	515	292.853379791117	9
0	517	294.2751497606	10
0	519	294.899793993229	11
0	521	294.977828287418	12
0	523	295.031019681453	13
0	525	295.161966224683	14
0	527	298.912410535062	15
0	529	299.373235712765	16
0	533	304.163619592272	16
0	539	308.65752830548	13
0	541	312.439655366414	14
0	551	320.048443377929	10
0	554	321.557479729908	10
0	556	321.636597978163	11
0	560	324.002164304772	10
0	569	327.041223336193	10
0	571	327.049496098643	11
0	576	331.212995505936	12
0	578	332.227358857411	13
0	580	334.443299883439	14
0	583	336.85233175696	15
0	585	338.005902190154	16
0	588	339.389667530501	17
0	590	339.762410320659	18
0	592	341.678739705007	19
0	603	345.596951276426	12
0	613	350.633639657429	7
0	615	351.458822792135	8
0	617	354.937886062494	9
0	619	355.092550716903	10
0	621	355.603579715884	11
0	623	356.500370397408	12
0	625	357.364303413073	13
0	629	358.131817765505	14
0	631	359.249529055722	15
0	637	362.941178694047	16
0	639	365.854591715927	17
0	641	366.9224458024	18
0	643	371.609622534469	19
0	645	372.843032279783	20
0	647	372.861536905579	21
0	649	375.224624729589	22
0	651	375.82874089312	23
0	653	376.131983857811	24
0	655	376.263831712587	25
0	657	376.895753164504	26
0	662	383.135749486713	27
0	664	383.83407431357	28
0	666	390.876349982188	29
0	668	391.617419075153	30
0	670	395.087759644283	31
0	677	399.109131504857	28
0	679	399.769715143898	29
0	681	400.180295872134	30
0	686	404.908649135733	28
0	690	405.564533460447	27
0	692	405.955453770804	28
0	695	407.738903461427	28
0	702	411.531622459565	24
0	706	413.393116274802	23
0	708	413.65049583228	24
0	711	414.650577438774	24
0	716	416.403518766806	22
0	720	417.064643087113	21
0	725	424.36531555953	19
0	732	427.317238075796	19
0	734	428.516820037563	20
0	737	430.325842068393	21
0	739	432.063180660292	22
0	747	437.09803251101	18
0	749	438.097303143975	19
0	753	438.754100471307	18
0	761	441.847129745115	13
0	764	442.236180319757	13
0	766	442.351945829059	14
0	768	443.189354943145	15
0	772	444.216395924859	14
0	775	444.617914726943	14
0	778	445.36983171548	14
0	783	450.050079011051	12
0	789	451.13340302888	11
0	801	455.610727040446	3
0	806	456.830895537153	1
0	808	456.915454300421	2
0	810	457.614394108826	3
0	812	458.268090207281	4
0	815	463.031450083356	4
0	819	465.263773980087	3
0	824	468.128571756201	1
0	826	468.243101256288	2
0	828	468.318950001546	3
0	830	468.550984308494	4
0	832	468.60642477695	5
0	839	479.098571690138	1
0	842	480.876994496027	1
0	845	482.939994794383	1
0	850	484.934456763034	1
0	852	485.229104057241	2
0	854	486.20504061245	3
0	856	486.48612987632	4
0	858	486.796156576018	5
0	860	487.666845106496	6
0	866	490.722251611035	6
0	868	492.585721939504	7
0	870	494.925457215231	8
0	873	495.945122364335	9
0	876	497.147019325875	9
0	878	498.772029830746	10
0	882	498.941840239532	11
0	884	499.139784802924	12
0	886	500.140336189018	13
0	888	502.028060444594	14
0	893	506.301127469301	13
0	895	506.772952376581	14
0	899	507.736825257629	15
0	904	508.578918420398	14
0	906	508.91228436038	15
0	915	514.126547632756	9
0	920	515.472360876088	7
0	924	518.272122279258	6
0	926	518.716560823524	7
0	932	522.193713970005	4
0	935	523.054621707844	4
0	939	526.172399273636	5
0	941	527.466281970872	6
0	946	528.555656937459	5
0	950	529.338382153775	4
0	956	533.156740095186	1
0	961	534.785242101802	1
0	963	535.202292901742	2
0	965	536.022126042759	3
0	968	539.063525600691	4
0	974	540.72285021931	3
0	980	545.861329282805	4
0	982	546.371771956511	5
0	989	553.266438986572	1
0	991	554.462248274713	2
0	996	555.427114717899	2
0	998	556.084083577657	3
0	1000	556.502106991396	4
0	1003	557.819077402171	5
0	1009	559.701072061765	2
0	1015	564.940842016018	1
0	1019	568.148404856684	1
0	1022	572.405387991736	1
0	1024	573.263889694904	2
0	1030	580.231346469745	1
0	1032	580.463834655266	2
0	1034	585.245440816026	3
0	1037	586.382846306688	4
0	1039	586.422602733323	5
0	1041	587.162326821348	6
0	1049	592.481992515336	3
0	1053	593.778396408003	4
0	1055	594.935044791364	5
0	1059	598.339676333082	6
0	1063	601.384176802063	5
0	1066	603.816855716545	5
0	1068	606.356825742737	6
0	1076	615.19776175861	1
0	1079	617.403568453689	1
0	1081	617.712532541295	2
0	1084	618.388610230914	2
0	1086	618.854115893042	3
0	1088	619.799911352624	4
0	1093	622.048482080977	4
0	1100	623.698424373535	4
0	1102	624.61713741586	5
0	1105	626.439683534891	5
0	1107	627.114387281017	6
0	1113	628.51153376871	5
0	1115	630.227627837315	6
0	1117	630.399655325744	7
0	1119	630.516958790878	8
0	1122	632.514329061513	9
0	1124	632.881581187406	10
0	1126	633.063534264174	11
0	1128	635.322546598881	12
0	1134	636.967248037499	9
0	1136	637.50351038651	10
0	1142	640.319850140026	7
0	1145	642.752015544869	7
0	1147	642.873929181842	8
0	1149	643.067964630073	9
0	1151	643.399325593368	10
0	1154	644.538826496836	10
0	1156	644.78290785394	11
0	1170	651.051289990018	3
0	1173	652.305332008205	3
0	1177	653.195877454648	2
0	1180	655.89081917777	2
0	1182	656.021641220112	3
0	1184	657.743076759029	4
0	1187	659.179419406937	4
0	1189	660.143991756899	5
0	1192	662.037116635633	5
0	1195	664.073611899605	5
0	1199	665.115364526605	4
0	1201	666.322544452824	5
0	1204	667.158366572731	5
0	1211	673.841096012538	3
0	1213	673.980141835228	4
0	1218	676.789072630157	3
0	1223	677.9020255606	1
0	1231	684.384158165481	1
0	1235	688.658062245713	1
0	1238	690.720995886991	1
0	1241	691.824780506535	1
0	1246	694.658490763568	1
0	1248	694.768557722869	2
0	1253	696.973742210945	3
0	1257	699.091319522608	4
0	1259	699.810929967413	5
0	1261	699.972582916077	6
0	1263	701.814145733562	7
0	1265	702.462772651832	8
0	1271	706.794122947027	7
0	1274	707.838244074978	7
0	1280	709.914781315293	6
0	1284	710.931931526987	7
0	1289	713.975769553898	8
0	1294	720.556151728287	9
0	1299	722.870898380559	10
0	1301	723.34410440037	11
0	1303	724.769063076877	12
0	1305	728.348108029379	13
0	1307	729.838550644853	14
0	1311	730.885761493658	15
0	1313	731.785810195352	16
0	1315	735.076449140492	17
0	1318	738.690551455264	18
0	1320	738.820950549677	19
0	1322	739.50609908825	20
0	1324	739.61186910286	21
0	1327	741.110228109107	22
0	1329	742.957974959052	23
0	1333	745.222785195351	24
0	1335	745.670809776869	25
0	1337	745.895930638964	26
0	1339	746.283948273635	27
0	1342	747.282758597556	28
0	1349	754.354321406297	25
0	1354	757.906345311287	23
0	1361	761.023289821869	19
0	1367	767.064238024105	16
0	1369	767.449921624139	17
0	1371	768.553805221754	18
0	1377	770.480155383142	15
0	1379	770.684742235717	16
0	1384	771.537565392796	14
0	1392	777.309194391721	9
0	1395	780.034529553514	9
0	1401	782.608584185186	10
0	1408	788.630727030004	11
0	1410	788.733218308125	12
0	1414	790.393451095238	13
0	1417	792.03624390496	14
0	1419	794.705640021791	15
0	1423	798.367578463042	16
0	1425	800.16828256353	17
0	1430	804.318264086045	16
0	1432	805.472742152545	17
0	1436	807.856198202452	18
0	1438	812.750867767343	19
0	1444	816.192538448267	17
0	1447	816.923980676074	17
0	1449	816.931278354418	18
0	1451	817.074756108325	19
0	1454	817.922404021807	19
0	1456	818.367734675223	20
0	1458	818.657739668293	21
0	1461	819.676351725008	21
0	1466	820.605371209922	21
0	1468	821.17525329275	22
0	1472	821.749267046262	23
0	1474	822.751099236956	24
0	1476	823.284766718549	25
0	1480	824.27709320497	26
0	1482	824.856553529691	27
0	1485	825.81849256415	28
0	1487	825.958477339464	29
0	1489	827.908220478869	30
0	1491	828.524165733831	31
0	1493	830.810072866455	32
0	1497	831.939329618647	33
0	1505	835.890297258671	31
0	1511	838.139373950336	28
0	1515	839.426204478673	29
0	1519	841.285017331675	30
0	1521	841.350262904178	31
0	1524	843.284236094106	32
0	1528	844.584970780267	32
0	1530	845.011956801072	33
0	1542	852.095409225272	27
0	1544	853.03764465833	28
0	1546	854.389824349388	29
0	1549	855.735489627459	29
0	1551	855.914411303573	30
0	1553	856.28775418704	31
0	1556	857.578093934851	31
0	1562	858.937085400659	28
0	1564	859.026773208312	29
0	1569	862.614433021741	29
0	1571	862.796871372983	30
0	1573	865.438889851046	31
0	1575	868.101567539343	32
0	1579	869.283464174732	32
0	1581	870.528958891201	33
0	1588	873.22519262444	29
0	1592	875.415522467915	28
0	1595	879.367934931761	28
0	1603	883.201607607377	23
0	1609	885.979318031523	20
0	1612	886.546805596241	20
0	1616	887.856017988661	19
0	1618	887.995521927091	20
0	1620	888.502885886635	21
0	1622	888.545696805465	22
0	1624	889.877169863695	23
0	1626	890.085633688915	24
0	1629	891.757058470951	24
0	1634	895.483456882294	24
0	1638	900.814807281609	24
0	1641	901.038511646171	24
0	1648	905.07453903925	22
0	1652	906.846779622149	22
0	1654	908.135884186323	23
0	1661	912.300615416444	21
0	1663	912.513913602655	22
0	1665	913.102977479512	23
0	1672	921.326098791635	22
0	1674	921.420138957344	23
0	1676	922.252044367968	24
0	1683	926.907723663831	23
0	1685	927.017177271636	24
0	1687	927.222210610516	25
0	1689	928.001742105404	26
0	1693	929.644810477797	27
0	1695	931.994361863812	28
0	1697	932.838063765412	29
0	1699	933.074656124864	30
0	1702	935.000525632513	31
0	1706	938.274137767718	32
0	1708	940.403040849111	33
0	1719	950.846691803152	30
0	1724	953.493828078229	28
0	1727	954.562138505997	28
0	1729	955.999635668074	29
0	1733	957.535881657312	30
0	1735	958.158465561033	31
0	1738	962.51660276334	32
0	1742	963.719543349657	31
0	1744	964.222780380076	32
0	1746	964.887910022545	33
0	1749	967.076936905909	33
0	1751	967.197176049732	34
0	1761	972.280126288917	27
0	1767	974.340569453813	27
0	1774	978.308165161108	26
0	1776	978.83240315094	27
0	1778	979.305486369384	28
0	1780	979.807782881231	29
0	1790	986.707367849884	24
0	1792	987.073041730584	25
0	1796	987.331843063113	26
0	1798	989.782329716233	27
0	1800	990.767748351885	28
0	1802	991.205592348924	29
0	1804	992.571837029811	30
0	1806	997.261068901542	31
0	1813	1005.623507149697	29
0	1815	1006.200347040843	30
0	1817	1007.040509658712	31
0	1821	1009.600839526691	30
0	1827	1013.267653035211	27
0	1829	1013.811830829379	28
0	1833	1017.771743775484	27
0	1835	1018.531565756862	28
0	1837	1019.219235132952	29
0	1841	1022.210334893825	28
0	1847	1025.239671696987	27
0	1851	1025.361151997373	28
0	1853	1025.421702622289	29
0	1855	1026.711771179862	30
0	1857	1030.167707649676	31
0	1861	1031.565373179991	32
0	1863	1031.613848899605	33
0	1866	1032.703191224095	33
0	1878	1035.574496254487	24
0	1885	1039.146852578897	23
0	1895	1046.937303494297	16
0	1901	1048.967229599568	13
0	1904	1049.908449862957	13
0	1909	1050.858319288275	11
0	1913	1052.266870573374	10
0	1915	1053.821438942539	11
0	1922	1060.540589479243	10
0	1925	1062.712877120473	10
0	1937	1069.41723610224	5
0	1939	1069.523216213995	6
0	1941	1070.547622582708	7
0	1943	1072.408290207564	8
0	1945	1072.553456393246	9
0	1947	1076.351399416449	10
0	1949	1076.516556551708	11
0	1951	1076.65557525024	12
0	1953	1078.290105242649	13
0	1955	1078.726351886555	14
0	1957	1078.90413290632	15
0	1960	1079.480168986663	16
0	1962	1086.767640036426	17
0	1964	1090.666482818733	18
0	1966	1091.031106991172	19
0	1970	1091.745597724746	20
0	1972	1093.136390306334	21
0	1974	1096.106315477197	22
0	1977	1099.859599239697	23
0	1981	1102.530433878516	24
0	1986	1103.530627710283	24
0	1991	1104.601832254473	22
0	1995	1105.78391051297	21
0	1999	1107.098289335383	20
0	2001	1107.851305890752	21
0	2012	1113.758651875236	16
0	2016	1115.172470528279	15
0	2021	1118.472283323719	15
0	2023	1119.575825382063	16
0	2027	1124.404456311437	16
0	2030	1124.957387116959	16
0	2034	1127.005141610036	15
0	2039	1130.381356855476	13
0	2041	1130.693922515819	14
0	2045	1132.925799669447	13
0	2047	1133.538464102075	14
0	2050	1134.026113315253	14
0	2052	1134.173243983128	15
0	2054	1134.57446484959	16
0	2059	1137.128632698071	14
0	2061	1137.515349313288	15
0	2067	1141.428860296929	12
0	2070	1145.863963420828	12
0	2074	1147.699028460474	11
0	2076	1148.244045479994	12
0	2081	1149.614218999602	10
0	2089	1152.893763313578	5
0	2095	1155.387408304367	4
0	2097	1156.369842756769	5
0	2099	1157.969856625259	6
0	2108	1170.771533861024	1
0	2110	1170.785740135085	2
0	2114	1172.77435659781	1
0	2117	1173.846890059814	1
0	2120	1175.393619369367	1
0	2123	1176.699558460289	1
0	2126	1178.213015031708	1
0	2129	1180.919724358097	1
0	2132	1181.57636560796	1
0	2135	1183.448975616596	1
0	2137	1183.811775606472	2
0	2139	1184.029845732595	3
0	2144	1187.554485756579	1
0	2147	1189.588334052072	1
0	2150	1190.597330276877	1
0	2152	1191.146487617145	2
0	2156	1195.653876346196	1
0	2158	1195.882766910691	2
0	2161	1196.777469066345	2
0	2165	1198.722018736052	3
0	2167	1199.515758023681	4
0	2171	1200.4473001883	5
0	2173	1200.9978227661	6
0	2175	1202.267620378221	7
0	2177	1203.728338810522	8
0	2179	1204.874233790676	9
0	2181	1208.657872753234	10
0	2187	1210.794626749639	9
0	2194	1211.975587916196	5
0	2199	1214.085885703264	3
0	2201	1215.299817636003	4
0	2205	1216.449182115098	5
0	2207	1216.502180487204	6
0	2209	1220.726995983509	7
0	2211	1221.434177321406	8
0	2215	1224.801256617632	8
0	2218	1225.521630241868	8
0	2220	1225.851960382824	9
0	2224	1226.86375738699	10
0	2227	1228.004330342757	11
0	2229	1228.063222882046	12
0	2232	1230.089101573538	12
0	2234	1230.760357593776	13
0	2236	1230.942179332381	14
0	2240	1232.816078606584	13
0	2245	1233.827124768434	13
0	2247	1234.088118399618	14
0	2253	1236.985120787215	12
0	2261	1241.769874407657	10
0	2264	1242.538284729626	10
0	2268	1243.663826814706	9
0	2271	1247.137653109755	9
0	2273	1247.20386789788	10
0	2276	1248.6841995099	10
0	2279	1249.376712482915	10
0	2285	1251.507529978543	7
0	2290	1253.590629529931	7
0	2293	1254.189057824614	8
0	2295	1255.991881864602	9
0	2297	1257.270756920105	10
0	2304	1259.398490911868	6
0	2308	1261.181861745103	7
0	2311	1268.220405310389	8
0	2313	1268.683291003399	9
0	2319	1271.804050850883	9
0	2332	1286.358171355299	7
0	2336	1288.340106834381	8
0	2338	1289.327592685719	9
0	2340	1290.229513889966	10
0	2342	1292.555512968854	11
0	2344	1293.408383503791	12
0	2347	1295.471423588707	13
0	2349	1296.809562992286	14
0	2351	1296.8318713715	15
0	2355	1301.977429208778	16
0	2357	1305.133519821059	17
0	2359	1306.573514347577	18
0	2361	1309.052087861476	19
0	2363	1309.357905995131	20
0	2366	1310.228833659852	21
0	2368	1310.724238015521	22
0	2370	1318.117518656479	23
0	2374	1318.382329394854	24
0	2376	1318.93537242309	25
0	2378	1321.7170327518	26
0	2380	1322.231577003523	27
0	2382	1322.588741176392	28
0	2384	1323.236272928282	29
0	2388	1331.063529033588	30
0	2390	1331.177283723024	31
0	2392	1334.65786850082	32
0	2394	1336.557410525481	33
0	2397	1338.424373050725	34
0	2400	1344.160863536765	35
0	2404	1347.595728120283	36
0	2406	1348.300672477663	37
0	2411	1351.564374770126	38
0	2414	1353.150687341525	39
0	2416	1353.200544437205	40
0	2418	1353.895628008597	41
0	2423	1354.589545291162	42
0	2425	1355.389310953304	43
0	2427	1357.564070816798	44
0	2439	1364.33233493615	41
0	2441	1366.870458251234	42
0	2443	1367.375914915021	43
0	2447	1368.944049325113	44
0	2449	1369.299847100651	45
0	2451	1369.494946662861	46
0	2453	1370.583684886409	47
0	2455	1371.533436725398	48
0	2457	1372.451278314625	49
0	2459	1372.824028924308	50
0	2461	1373.069620964326	51
0	2464	1375.004431998611	52
0	2472	1378.840790091402	50
0	2474	1379.99014501215	51
0	2476	1380.073441557084	52
0	2478	1380.897103891228	53
0	2482	1386.191741057345	54
0	2484	1390.096222498908	55
0	2488	1394.01652733509	56
0	2490	1395.637164247547	57
0	2492	1396.685596169791	58
0	2495	1398.259197663402	59
0	2498	1402.484958940576	60
0	2501	1403.17820109603	61
0	2503	1403.41433642387	62
0	2506	1404.174028153856	62
0	2511	1407.685966480125	60
0	2515	1408.523008382509	61
0	2517	1409.27841894925	62
0	2519	1409.462815488563	63
0	2521	1411.056326381463	64
0	2527	1413.200662550442	62
0	2529	1414.188154120149	63
0	2531	1415.016038240453	64
0	2533	1415.03939901856	65
0	2535	1415.125414064467	66
0	2543	1420.662193243845	61
0	2547	1421.671053114672	62
0	2549	1424.361537558077	63
0	2551	1426.795279991632	64
0	2553	1426.988497379066	65
0	2555	1427.016656794541	66
0	2557	1428.970843423553	67
0	2559	1430.104292749125	68
0	2565	1433.085934966688	69
0	2568	1434.529286986495	69
0	2570	1435.330111162175	70
0	2573	1435.499754873484	70
0	2575	1438.19752411877	71
0	2579	1441.54724979016	70
0	2582	1443.155108114675	70
0	2585	1445.255870641989	70
0	2589	1446.327906125613	69
0	2592	1448.992593747384	69
0	2594	1449.793533932434	70
0	2597	1452.295034373408	70
0	2600	1452.780717705141	70
0	2603	1454.487091044801	70
0	2605	1454.755421286893	71
0	2612	1456.922322231438	69
0	2619	1461.040462706445	66
0	2621	1461.291125826664	67
0	2624	1461.349619882313	67
0	2626	1462.08572005593	68
0	2628	1462.415790673866	69
0	2637	1468.467272413402	63
0	2641	1469.754933682551	62
0	2643	1470.239337285763	63
0	2645	1470.659391491246	64
0	2654	1478.49306857193	58
0	2656	1478.62995791277	59
0	2658	1478.674927538906	60
0	2661	1480.776854011086	60
0	2663	1480.93065687274	61
0	2667	1482.228238359131	62
0	2670	1484.443412775928	63
0	2674	1484.738687601186	62
0	2682	1489.258268905872	60
0	2684	1489.393879136001	61
0	2687	1490.329895907304	61
0	2689	1492.087638802458	62
0	2691	1492.870664896357	63
0	2695	1494.525930361094	64
0	2698	1495.410199689033	65
0	2701	1496.277794855266	65
0	2704	1497.784524570262	65
0	2712	1499.855376272648	63
0	2715	1500.131974571605	63
0	2717	1500.326068470284	64
0	2723	1506.888945748761	63
0	2725	1507.710953007685	64
0	2729	1508.550075313466	64
0	2735	1511.05566500027	61
0	2739	1513.962193576078	60
0	2742	1514.447757238634	60
0	2749	1518.429493474022	56
0	2753	1522.082687964816	55
0	2767	1532.543164257056	49
0	2769	1532.679756359636	50
0	2771	1536.107571474545	51
0	2776	1541.167017158358	50
0	2781	1544.429380077297	48
0	2784	1544.553515593741	48
0	2791	1548.107364339426	47
0	2796	1550.715745268162	45
0	2801	1553.151780672651	43
0	2805	1554.343025538216	42
0	2809	1554.499414644724	43
0	2812	1555.38602666087	44
0	2820	1560.555957341224	41
0	2829	1563.844196031663	39
0	2840	1572.059966840953	34
0	2846	1575.481909279697	31
0	2853	1579.106559509055	27
0	2857	1581.187006543963	26
0	2860	1582.304690795928	26
0	2864	1584.570824632214	25
0	2866	1586.249663030601	26
0	2874	1588.196329100969	21
0	2880	1590.19692162641	18
0	2883	1591.091672222919	18
0	2889	1594.309641736836	15
0	2895	1599.060620018887	14
0	2901	1602.680439240156	12
0	2907	1603.598357703824	13
0	2909	1604.180306438793	14
0	2911	1605.029762636981	15
0	2913	1605.871933021781	16
0	2915	1606.908536553645	17
0	2917	1608.612525033623	18
0	2923	1615.363068432574	19
0	2925	1615.586244872048	20
0	2928	1617.857166530948	21
0	2934	1622.055537346075	18
0	2936	1622.356581069322	19
0	2940	1624.895980478025	18
0	2950	1631.24145440518	14
0	2954	1631.727085363477	13
0	2957	1632.849233000792	13
0	2961	1638.537757727568	12
0	2966	1639.888701961087	10
0	2968	1640.100876033249	11
0	2970	1640.314704575957	12
0	2973	1641.220853290281	12
0	2976	1642.703844095148	12
0	2978	1643.301810942596	13
0	2982	1643.322272828885	14
0	2984	1643.798844519305	15
0	2989	1647.005921908473	14
0	2991	1647.513535488215	15
0	2993	1648.654092280751	16
0	2996	1649.766064335667	16
0	3000	1652.144904273788	15
0	3002	1652.196828456949	16
0	3009	1659.320787285268	17
0	3011	1660.92648583083	18
0	3013	1661.792804363061	19
0	3015	1663.157642347891	20
0	3017	1664.17053860931	21
0	3019	1664.239010797009	22
0	3026	1668.647065885937	22
0	3031	1671.618337352652	20
0	3036	1675.164615383273	18
0	3039	1675.64825085774	18
0	3046	1679.72703790779	14
0	3049	1679.841207415526	14
0	3052	1680.877195045513	14
0	3054	1681.302632879977	15
0	3057	1681.899021167941	15
0	3059	1683.848151400786	16
0	3063	1687.678897970922	15
0	3066	1687.962409722303	15
0	3076	1692.895462197355	10
0	3078	1693.313711479855	11
0	3080	1694.076633700462	12
0	3084	1695.496266137708	12
0	3086	1696.57139968023	13
0	3088	1699.090438722379	14
0	3091	1699.862215246515	14
0	3093	1700.254339270122	15
0	3096	1702.006333154384	15
0	3099	1702.580484225956	15
0	3107	1704.83911409957	13
0	3112	1707.458349566907	11
0	3116	1711.414082220315	10
0	3120	1712.075548066102	9
0	3124	1715.916311411248	10
0	3127	1716.74199384098	11
0	3131	1717.958537965147	10
0	3135	1720.030886144618	9
0	3138	1720.573196217165	9
0	3141	1720.865639835439	9
0	3143	1721.21828804883	10
0	3147	1721.974352994634	9
0	3149	1722.156798638796	10
0	3153	1726.943973613399	11
0	3156	1728.937968526835	12
0	3158	1729.155046250195	13
0	3160	1729.518625259949	14
0	3162	1729.529659929983	15
0	3169	1733.37510605379	11
0	3171	1733.501227543022	12
0	3175	1734.169656369593	11
0	3181	1741.685516067188	10
0	3183	1744.82066765885	11
0	3185	1745.683351565678	12
0	3187	1746.720764844309	13
0	3189	1747.510915927636	14
0	3191	1747.523150685856	15
0	3195	1748.657772917691	15
0	3199	1749.024605014073	16
0	3201	1750.653715206759	17
0	3206	1755.654883650059	18
0	3208	1757.423006562204	19
0	3212	1759.478796508865	20
0	3214	1759.618772937361	21
0	3216	1760.933542963334	22
0	3218	1762.356060010379	23
0	3227	1770.334879577828	24
0	3229	1770.847413343036	25
0	3231	1771.376486367689	26
0	3238	1774.826731551507	23
0	3243	1776.435049649368	23
0	3247	1786.395677570358	24
0	3249	1787.490731221372	25
0	3251	1788.563994670238	26
0	3253	1789.989312609878	27
0	3255	1790.707923400216	28
0	3257	1790.742925444318	29
0	3259	1791.178432542722	30
0	3261	1791.837738882617	31
0	3263	1792.20337057155	32
0	3265	1794.702452061425	33
0	3269	1797.774878350883	34
0	3271	1797.985047992832	35
0	3273	1798.442653738512	36
0	3275	1801.348194345412	37
0	3277	1801.726297272428	38
0	3283	1807.242455156425	35
0	3285	1807.875610732502	36
0	3288	1808.63867202222	36
0	3292	1810.54087306641	35
0	3294	1811.231495139416	36
0	3296	1811.744980335506	37
0	3299	1812.913754759184	37
0	3309	1817.498839995649	30
0	3319	1824.090409184774	23
0	3326	1827.167341575096	19
0	3331	1828.697692898161	17
0	3336	1829.429655302564	15
0	3339	1830.312251426663	15
0	3342	1831.19261595226	15
0	3344	1831.978015257896	16
0	3351	1834.053959795957	12
0	3354	1835.011674857963	12
0	3357	1838.676654173049	12
0	3360	1839.077653825519	12
0	3362	1839.262577891142	13
0	3370	1843.776207448098	8
0	3375	1847.332019808684	6
0	3379	1847.796248464703	5
0	3386	1853.42272362956	1
0	3389	1854.77711041595	1
0	3391	1855.457969448648	2
0	3395	1858.750737561012	1
0	3398	1859.004428234863	1
0	3407	1863.315664257257	1
0	3412	1868.134798922735	2
0	3414	1870.886604876456	3
0	3416	1871.067055346009	4
0	3418	1871.198070029024	5
0	3420	1871.703475006487	6
0	3424	1876.496815284108	7
0	3426	1877.526368334908	8
0	3430	1881.350190405422	9
0	3432	1882.672340876852	10
0	3436	1884.142142611964	11
0	3438	1887.40220377714	12
0	3440	1887.846200486751	13
0	3442	1888.078262608273	14
0	3444	1889.272797051373	15
0	3448	1895.772000370354	16
0	3452	1901.047080390675	17
0	3454	1901.667012111076	18
0	3456	1903.968767104106	19
0	3458	1904.969462839906	20
0	3460	1905.449960741281	21
0	3463	1908.90445423008	22
0	3468	1911.65757159938	23
0	3478	1919.554538636931	24
0	3481	1922.911126870098	25
0	3483	1922.922209673195	26
0	3485	1925.331267748353	27
0	3489	1926.653581338156	28
0	3492	1932.87513874991	29
0	3495	1936.16732076931	30
0	3497	1936.454089405519	31
0	3499	1938.158890993058	32
0	3501	1938.262632789307	33
0	3503	1939.668479062936	34
0	3506	1942.441130840433	35
0	3511	1947.331284629941	36
0	3514	1949.447285756228	37
0	3518	1950.472224083655	38
0	3520	1950.52332640046	39
0	3525	1953.937392059024	40
0	3527	1955.622457312088	41
0	3529	1959.012098167941	42
0	3531	1960.710723220222	43
0	3533	1961.878064663115	44
0	3535	1962.193555743211	45
0	3537	1962.689998624898	46
0	3540	1967.839810161317	47
0	3546	1970.519007598926	48
0	3551	1973.011177953907	49
0	3553	1973.070641324218	50
0	3558	1976.874481511689	50
0	3560	1980.263129098742	51
0	3563	1981.385277894914	52
0	3565	1981.791866441976	53
0	3571	1985.921369032389	50
0	3578	1991.74502612881	49
0	3581	1992.732961883061	49
0	3583	1992.829646866651	50
0	3588	1994.086021251555	48
0	3596	1998.242024546982	45
0	3598	1999.343614666797	46
0	3600	1999.743894117927	47
1	0	0	0
1	2	0.686890435206	0
1	4	2.756813863559	1
1	6	2.965928986817	2
1	7	3.06047613165	2
1	9	3.472514496731	2
1	10	4.009919119484	2
1	12	4.045233472916	2
1	13	4.129299684225	2
1	15	4.204117493844	2
1	16	4.930459581099	2
1	17	5.036153628046	1
1	19	5.213628140441	1
1	20	6.513324476281	1
1	24	8.887094838527	0
1	26	12.280999547261	0
1	28	12.43129542154	1
1	29	13.573682452984	1
1	31	14.63551486074	1
1	33	15.126407508656	2
1	35	15.475980878748	3
1	36	16.430034434094	3
1	37	18.144159121166	2
1	41	22.916148284028	1
1	42	23.626003287591	0
1	44	24.785601746804	0
1	46	27.506300629376	1
1	47	27.818751450549	1
1	48	28.036336828441	0
1	50	29.500424092116	0
1	51	29.700318352344	0
1	53	30.296589568006	0
1	54	30.83049067091	0
1	56	32.381171094927	0
1	58	34.212065240786	1
1	59	34.696734137965	1
1	60	35.337201650401	0
1	62	35.644360910084	0
1	63	36.1319329834	0
1	65	39.366053171803	0
1	66	40.070585269234	0
1	68	41.920929876395	0
1	69	42.541399374705	0
1	71	43.000415443227	0
1	73	43.128116802228	1
1	74	43.364233931487	1
1	76	43.364756781742	1
1	77	43.478655462888	1
1	81	44.409667053563	1
1	83	44.901363221529	2
1	85	45.072375846147	3
1	87	50.099808706404	4
1	89	50.594696535596	5
1	91	50.714811815084	6
1	93	54.131747427739	7
1	96	56.369020767359	8
1	98	56.574091880049	9
1	102	59.266421619786	10
1	104	60.590604068415	10
1	105	61.094723300063	9
1	107	61.385732704201	9
1	109	62.387398432646	10
1	110	62.439897297247	10
1	111	62.441867511436	9
1	112	63.325563847213	8
1	113	64.797537941433	7
1	115	66.652837127305	7
1	116	67.463944866995	7
1	117	68.215539831841	6
1	119	68.673128881099	6
1	121	68.782308031614	7
1	125	69.441576881229	8
1	130	78.737303566909	9
1	135	83.424303893342	9
1	136	83.977782531832	8
1	138	84.351138561279	8
1	140	84.443063958193	9
1	142	86.922273579908	10
1	144	87.370728490338	11
1	145	88.125128767847	11
1	147	88.349314389429	11
1	148	88.658549768465	11
1	149	88.699908155604	10
1	150	89.171447858488	9
1	151	89.992672716382	8
1	152	91.071325479287	7
1	153	91.090432463435	6
1	154	91.636771889336	5
1	156	91.79095341951	5
1	157	92.172439434638	5
1	159	92.503283003255	5
1	160	92.97719327543	5
1	161	93.3905566243	4
1	163	94.332901351116	4
1	165	98.087196400673	5
1	166	98.881790889331	5
1	167	99.856980179097	4
1	169	100.206535984568	4
1	170	100.865442353072	4
1	172	101.548971556724	4
1	173	101.797349012947	4
1	174	103.044876912861	3
1	175	104.185515583953	2
1	176	104.272849354147	1
1	182	106.163280749676	1
1	184	106.672053874116	2
1	186	109.853165023816	3
1	188	110.401169565309	4
1	191	116.008872018093	5
1	193	117.312613876772	5
1	194	119.455734226146	4
1	195	122.507238955857	3
1	197	122.587698839646	3
1	198	123.197262572257	3
1	199	123.200168114028	2
1	200	123.64367456035	1
1	201	124.001025102705	0
1	203	125.460412108301	0
1	205	125.944961089082	1
1	206	130.141512583543	1
1	207	130.45600731042	0
1	209	130.504797996882	0
1	210	130.896287243518	0
1	214	133.237611820324	0
1	216	133.358967890033	1
1	218	137.414244349979	2
1	222	139.450917672249	3
1	224	139.611215443055	4
1	226	140.71268724542	5
1	230	147.032866077939	6
1	232	147.059710640154	7
1	234	147.85760957215	8
1	237	150.66975919207	9
1	239	150.73892841114	10
1	244	153.92594854922	11
1	246	155.566604726053	12
1	248	156.397166546538	13
1	250	158.074510582797	14
1	253	158.635785007894	15
1	255	159.836475199533	16
1	257	160.107738816948	17
1	261	164.27056349187	18
1	263	165.464122436266	19
1	268	169.251468406163	20
1	270	170.801617487337	21
1	273	172.452839732551	22
1	275	174.095824899866	23
1	277	176.073320300651	23
1	279	176.147182488218	23
1	281	176.189306947764	24
1	282	176.3684186112	24
1	283	176.475654979481	23
1	284	176.524252154623	22
1	285	176.543161226498	21
1	286	177.0058825404	20
1	290	177.313090227543	20
1	295	182.410581821714	21
1	299	186.859711228377	22
1	301	187.022076096962	23
1	303	187.184046868339	24
1	305	187.483416518434	25
1	307	187.546136185307	26
1	312	189.793934217665	27
1	315	193.095538833313	27
1	316	193.965440633721	26
1	317	194.234731923284	25
1	318	194.742450281247	24
1	319	194.840223727761	23
1	323	195.981655343667	23
1	325	196.2576098496	24
1	327	198.68211044008	24
1	328	199.432799190871	23
1	329	199.720435684503	22
1	330	200.595373873971	21
1	332	200.676213835574	21
1	333	200.804323893303	21
1	337	201.285899693276	21
1	341	201.759869978705	22
1	343	201.870526026932	23
1	346	204.224333504062	23
1	347	205.59391127232	22
1	349	207.420064607111	22
1	350	207.742162313976	22
1	352	208.010467931497	22
1	353	209.918060338936	22
1	355	211.12919564939	22
1	357	211.528449075545	23
1	359	212.324400415541	24
1	360	214.533978425456	24
1	362	216.461619325251	24
1	364	217.599977213258	25
1	365	217.939591956098	25
1	367	218.0471267306	25
1	368	218.196467800389	25
1	369	218.468994852197	24
1	370	221.789392683374	23
1	371	221.790991420101	22
1	373	222.16601908098	22
1	374	222.495520276162	22
1	375	222.638827268938	21
1	377	223.816817276175	21
1	378	225.609112774554	21
1	379	226.000137798649	20
1	380	226.899916808799	19
1	381	227.207305905255	18
1	382	229.334978871936	17
1	383	229.79311709318	16
1	385	229.893879254506	16
1	387	231.829080210534	17
1	388	233.026589589564	17
1	389	234.533653902933	16
1	391	235.267571450574	16
1	395	236.045122171331	17
1	397	236.961233313933	17
1	398	237.494950226547	16
1	400	238.087790685692	16
1	401	238.133730906295	16
1	403	238.801853742025	16
1	404	239.315794377718	16
1	405	239.551997780727	15
1	406	239.723448583569	14
1	407	240.848078557665	13
1	409	241.132010276473	13
1	410	241.345062569501	13
1	411	241.708351649391	12
1	413	243.387561784015	12
1	415	243.446262870401	13
1	417	245.189844820865	14
1	419	246.017636162473	15
1	421	246.079099969067	16
1	422	246.425989548433	16
1	423	247.503622867489	15
1	424	247.913210653915	14
1	425	248.466570935477	13
1	429	250.952022181347	13
1	431	253.486486415251	13
1	435	256.291272284262	13
1	437	257.035575762427	14
1	439	257.325370556391	14
1	440	257.769528368642	13
1	441	258.246043507557	12
1	442	258.833528303224	11
1	443	259.949039261056	10
1	444	260.327234039211	9
1	445	260.717293837168	8
1	447	261.031904491467	8
1	448	261.087882502082	8
1	449	261.366767806432	7
1	451	261.635471823329	7
1	452	262.300403752089	7
1	454	262.504872945476	7
1	456	264.463971802815	8
1	460	265.219125154055	9
1	462	265.783074114339	10
1	464	267.086734595164	11
1	466	267.362935386566	12
1	468	269.447367827803	13
1	470	271.439145427623	14
1	472	271.896596352111	15
1	475	273.687013478431	16
1	477	274.394818950551	17
1	478	274.606165774566	17
1	479	275.218272396044	16
1	481	276.042723649398	16
1	483	276.047359000437	17
1	484	276.266601531164	17
1	485	277.399636129115	16
1	486	277.937740011738	15
1	490	279.83213876285	15
1	492	281.055088651974	16
1	497	282.813877659083	16
1	499	283.315691139501	16
1	500	284.001912146293	16
1	501	285.571319731225	15
1	502	286.095217672833	14
1	503	287.598632975882	13
1	504	287.929914196387	12
1	505	287.977187857784	11
1	506	288.421437981516	10
1	507	288.990470837306	9
1	508	289.88638164049	8
1	509	290.00705437761	7
1	513	292.572482521308	7
1	515	292.853379791117	8
1	517	294.2751497606	9
1	519	294.899793993229	10
1	521	294.977828287418	11
1	523	295.031019681453	12
1	525	295.161966224683	13
1	527	298.912410535062	14
1	529	299.373235712765	15
1	531	302.402351926711	15
1	533	304.163619592272	15
1	534	304.606434470542	15
1	535	304.775968329453	14
1	536	305.203120618887	13
1	537	308.186545632255	12
1	539	308.65752830548	12
1	541	312.439655366414	13
1	542	312.925476497903	13
1	543	313.80055600602	12
1	544	315.057986931845	11
1	545	315.340652806682	10
1	546	315.625228189424	9
1	551	320.048443377929	9
1	552	321.266226571004	9
1	554	321.557479729908	9
1	556	321.636597978163	10
1	557	322.068261457824	10
1	558	322.06884340897	9
1	560	324.002164304772	9
1	561	324.298623003804	9
1	569	327.041223336193	9
1	571	327.049496098643	10
1	576	331.212995505936	11
1	578	332.227358857411	12
1	580	334.443299883439	13
1	583	336.85233175696	14
1	585	338.005902190154	15
1	588	339.389667530501	16
1	590	339.762410320659	17
1	592	341.678739705007	18
1	594	342.740385895349	18
1	595	342.78114517312	17
1	596	342.930993114746	16
1	597	342.963530118949	15
1	598	343.821386340518	14
1	599	344.293798957308	13
1	600	344.484473086653	12
1	601	345.199358450186	11
1	603	345.596951276426	11
1	604	346.322752072051	11
1	605	346.611183798922	10
1	606	347.3008896929	9
1	607	349.141785280967	8
1	608	349.182163765546	7
1	609	349.916922758889	6
1	613	350.633639657429	6
1	615	351.458822792135	7
1	617	354.937886062494	8
1	619	355.092550716903	9
1	621	355.603579715884	10
1	623	356.500370397408	11
1	625	357.364303413073	12
1	629	358.131817765505	13
1	631	359.249529055722	14
1	637	362.941178694047	15
1	639	365.854591715927	16
1	641	366.9224458024	17
1	643	371.609622534469	18
1	645	372.843032279783	19
1	647	372.861536905579	20
1	649	375.224624729589	21
1	651	375.82874089312	22
1	653	376.131983857811	23
1	655	376.263831712587	24
1	657	376.895753164504	25
1	662	383.135749486713	26
1	664	383.83407431357	27
1	666	390.876349982188	28
1	668	391.617419075153	29
1	670	395.087759644283	30
1	672	396.837923414691	30
1	673	396.983409101256	29
1	674	398.149189730686	28
1	675	398.609924734495	27
1	677	399.109131504857	27
1	679	399.769715143898	28
1	681	400.180295872134	29
1	682	402.187204994604	29
1	683	402.70818124151	28
1	684	404.672758800098	27
1	686	404.908649135733	27
1	687	405.225883513757	27
1	688	405.484462953093	26
1	690	405.564533460447	26
1	692	405.955453770804	27
1	693	406.006826223962	27
1	695	407.738903461427	27
1	696	408.14917187501	27
1	697	408.946937771292	26
1	698	409.143470386839	25
1	699	410.277078099627	24
1	700	410.993661915863	23
1	702	411.531622459565	23
1	703	411.892516877029	23
1	704	412.974885993292	22
1	706	413.393116274802	22
1	708	413.65049583228	23
1	709	413.767004882576	23
1	711	414.650577438774	23
1	712	414.855577024577	23
1	713	415.91703600033	22
1	714	416.07113642186	21
1	716	416.403518766806	21
1	717	416.844649396909	21
1	718	416.976389597655	20
1	720	417.064643087113	20
1	721	417.987900996768	20
1	722	423.258147373459	19
1	723	423.367357884951	18
1	725	424.36531555953	18
1	726	424.912587770813	18
1	732	427.317238075796	18
1	734	428.516820037563	19
1	737	430.325842068393	20
1	739	432.063180660292	21
1	741	435.873047553856	21
1	742	436.205640310982	20
1	743	436.472179241128	19
1	744	436.475465692713	18
1	745	436.707360592603	17
1	747	437.09803251101	17
1	749	438.097303143975	18
1	750	438.651225254428	18
1	751	438.686707417238	17
1	753	438.754100471307	17
1	754	439.627215892798	17
1	755	440.933787089938	16
1	756	440.964063203954	15
1	757	441.006281836391	14
1	758	441.246362928944	13
1	759	441.407109692012	12
1	761	441.847129745115	12
1	762	441.950646566985	12
1	764	442.236180319757	12
1	766	442.351945829059	13
1	768	443.189354943145	14
1	769	443.470486212966	14
1	770	443.842698138205	13
1	772	444.216395924859	13
1	773	444.562201181519	13
1	775	444.617914726943	13
1	776	444.804001403388	13
1	778	445.36983171548	13
1	779	445.668396515073	13
1	780	447.178235668901	12
1	781	449.629229427294	11
1	783	450.050079011051	11
1	784	450.534887488498	11
1	785	450.538941174454	10
1	789	451.13340302888	10
1	791	451.961133027672	10
1	792	452.000244051347	9
1	793	452.24152310195	8
1	794	452.522506188257	7
1	795	452.660195918905	6
1	796	453.276601630019	5
1	797	453.629268211486	4
1	798	453.985553175688	3
1	799	455.105242129544	2
1	801	455.610727040446	2
1	802	456.137785214666	2
1	803	456.298487826049	1
1	804	456.330616700007	0
1	806	456.830895537153	0
1	808	456.915454300421	1
1	810	457.614394108826	2
1	812	458.268090207281	3
1	813	459.540437649147	3
1	815	463.031450083356	3
1	816	463.28908228202	3
1	817	464.629031780085	2
1	819	465.263773980087	2
1	820	466.014540756174	2
1	821	466.202436030625	1
1	822	466.314465394167	0
1	824	468.128571756201	0
1	826	468.243101256288	1
1	828	468.318950001546	2
1	830	468.550984308494	3
1	832	468.60642477695	4
1	833	470.254579869197	4
1	834	473.182965450416	3
1	835	475.574765290217	2
1	836	476.868851681531	1
1	837	476.931304858696	0
1	839	479.098571690138	0
1	840	480.526747507033	0
1	842	480.876994496027	0
1	843	481.615881270003	0
1	845	482.939994794383	0
1	846	483.09935249713	0
1	850	484.934456763034	0
1	852	485.229104057241	1
1	854	486.20504061245	2
1	856	486.48612987632	3
1	858	486.796156576018	4
1	860	487.666845106496	5
1	862	489.050161010905	5
1	866	490.722251611035	5
1	868	492.585721939504	6
1	870	494.925457215231	7
1	873	495.945122364335	8
1	874	496.702757157288	8
1	876	497.147019325875	8
1	878	498.772029830746	9
1	882	498.941840239532	10
1	884	499.139784802924	11
1	886	500.140336189018	12
1	888	502.028060444594	13
1	890	503.331623926237	13
1	891	503.576403348805	12
1	893	506.301127469301	12
1	895	506.772952376581	13
1	899	507.736825257629	14
1	901	508.282379075947	14
1	902	508.536371499839	13
1	904	508.578918420398	13
1	906	508.91228436038	14
1	907	509.061740486193	14
1	908	509.756853458944	13
1	909	509.95273886408	12
1	910	510.306998149271	11
1	911	510.796828976588	10
1	912	511.760302977832	9
1	913	513.935861105297	8
1	915	514.126547632756	8
1	916	514.424734205269	8
1	917	514.599368734087	7
1	918	515.03150881365	6
1	920	515.472360876088	6
1	921	516.795868273664	6
1	922	517.95798746134	5
1	924	518.272122279258	5
1	926	518.716560823524	6
1	927	518.904833516876	6
1	928	521.859982064059	5
1	929	522.036741805172	4
1	930	522.057489608295	3
1	932	522.193713970005	3
1	933	522.71152895475	3
1	935	523.054621707844	3
1	939	526.172399273636	4
1	941	527.466281970872	5
1	943	527.782256218081	5
1	944	528.117515350555	4
1	946	528.555656937459	4
1	947	528.971136684607	4
1	948	529.327156409727	3
1	950	529.338382153775	3
1	951	530.115745072749	3
1	952	530.545255584519	2
1	953	531.882146237197	1
1	954	532.234560837557	0
1	956	533.156740095186	0
1	957	533.594365265947	0
1	961	534.785242101802	0
1	963	535.202292901742	1
1	965	536.022126042759	2
1	968	539.063525600691	3
1	969	539.195339206221	3
1	970	539.468989626173	2
1	974	540.72285021931	2
1	980	545.861329282805	3
1	982	546.371771956511	4
1	983	546.6391371603	4
1	984	547.14386158081	3
1	985	547.146154345745	2
1	986	549.325785854958	1
1	987	549.546519124356	0
1	989	553.266438986572	0
1	991	554.462248274713	1
1	992	554.608902267321	1
1	996	555.427114717899	1
1	998	556.084083577657	2
1	1000	556.502106991396	3
1	1003	557.819077402171	4
1	1004	558.512229237234	4
1	1005	559.002338574907	3
1	1006	559.077692672368	2
1	1007	559.532088480259	1
1	1009	559.701072061765	1
1	1010	560.465478802245	1
1	1011	561.078650369001	0
1	1015	564.940842016018	0
1	1017	567.487246669758	0
1	1019	568.148404856684	0
1	1020	568.773649195066	0
1	1022	572.405387991736	0
1	1024	573.263889694904	1
1	1025	573.30717061224	1
1	1026	573.41090307592	0
1	1030	580.231346469745	0
1	1032	580.463834655266	1
1	1034	585.245440816026	2
1	1037	586.382846306688	3
1	1039	586.422602733323	4
1	1041	587.162326821348	5
1	1042	587.70533299059	5
1	1043	588.999257317866	4
1	1044	589.140087785655	3
1	1045	589.917059441247	2
1	1049	592.481992515336	2
1	1053	593.778396408003	3
1	1055	594.935044791364	4
1	1059	598.339676333082	5
1	1060	600.130771931128	5
1	1061	601.357175054046	4
1	1063	601.384176802063	4
1	1064	602.706164450308	4
1	1066	603.816855716545	4
1	1068	606.356825742737	5
1	1069	608.5895836533	5
1	1070	608.672513272414	4
1	1071	608.856237757497	3
1	1072	608.972421361378	2
1	1073	609.347333133952	1
1	1074	609.442943235261	0
1	1076	615.19776175861	0
1	1077	615.522755420836	0
1	1079	617.403568453689	0
1	1081	617.712532541295	1
1	1082	618.111637427271	1
1	1084	618.388610230914	1
1	1086	618.854115893042	2
1	1088	619.799911352624	3
1	1089	619.822225358581	3
1	1093	622.048482080977	3
1	1095	623.320981653867	3
1	1100	623.698424373535	3
1	1102	624.61713741586	4
1	1103	625.393952999984	4
1	1105	626.439683534891	4
1	1107	627.114387281017	5
1	1108	627.129166670075	5
1	1109	627.221263361364	4
1	1113	628.51153376871	4
1	1115	630.227627837315	5
1	1117	630.399655325744	6
1	1119	630.516958790878	7
1	1122	632.514329061513	8
1	1124	632.881581187406	9
1	1126	633.063534264174	10
1	1128	635.322546598881	11
1	1129	635.503838698712	11
1	1130	635.864550711119	10
1	1131	636.148520116734	9
1	1132	636.851674510937	8
1	1134	636.967248037499	8
1	1136	637.50351038651	9
1	1137	637.606902857984	9
1	1138	638.284323289191	8
1	1139	639.031158466295	7
1	1140	639.329086024623	6
1	1142	640.319850140026	6
1	1143	642.553255818917	6
1	1145	642.752015544869	6
1	1147	642.873929181842	7
1	1149	643.067964630073	8
1	1151	643.399325593368	9
1	1152	643.469973510368	9
1	1154	644.538826496836	9
1	1156	644.78290785394	10
1	1157	644.981281083058	10
1	1158	645.891003335282	9
1	1162	646.880636659201	8
1	1163	647.213746240696	7
1	1164	647.920045298153	6
1	1165	648.09389084423	5
1	1166	648.810163241242	4
1	1167	649.325351357549	3
1	1168	649.947207394552	2
1	1170	651.051289990018	2
1	1171	651.717581897337	2
1	1173	652.305332008205	2
1	1174	653.151696519671	2
1	1175	653.156427498562	1
1	1177	653.195877454648	1
1	1178	654.661341467716	1
1	1180	655.89081917777	1
1	1182	656.021641220112	2
1	1184	657.743076759029	3
1	1185	658.614658729187	3
1	1187	659.179419406937	3
1	1189	660.143991756899	4
1	1190	661.662410392116	4
1	1192	662.037116635633	4
1	1193	662.845097541854	4
1	1195	664.073611899605	4
1	1196	664.120205231973	4
1	1197	664.880276548659	3
1	1199	665.115364526605	3
1	1201	666.322544452824	4
1	1202	666.48098436156	4
1	1204	667.158366572731	4
1	1205	668.564020084808	4
1	1206	668.875775922553	3
1	1207	670.210982546039	2
1	1211	673.841096012538	2
1	1213	673.980141835228	3
1	1215	675.05244967293	3
1	1216	675.256014343904	2
1	1218	676.789072630157	2
1	1219	676.963807984942	2
1	1220	677.043640568196	1
1	1221	677.68683426723	0
1	1223	677.9020255606	0
1	1224	678.098915562516	0
1	1231	684.384158165481	0
1	1233	686.597075909937	0
1	1235	688.658062245713	0
1	1236	689.592806982894	0
1	1238	690.720995886991	0
1	1239	691.441745854759	0
1	1241	691.824780506535	0
1	1242	692.766396679948	0
1	1246	694.658490763568	0
1	1248	694.768557722869	1
1	1253	696.973742210945	2
1	1257	699.091319522608	3
1	1259	699.810929967413	4
1	1261	699.972582916077	5
1	1263	701.814145733562	6
1	1265	702.462772651832	7
1	1268	706.240158784162	7
1	1269	706.45965457919	6
1	1271	706.794122947027	6
1	1272	707.515753449765	6
1	1274	707.838244074978	6
1	1275	708.213652896571	6
1	1276	708.350850116775	5
1	1280	709.914781315293	5
1	1284	710.931931526987	6
1	1289	713.975769553898	7
1	1294	720.556151728287	8
1	1299	722.870898380559	9
1	1301	723.34410440037	10
1	1303	724.769063076877	11
1	1305	728.348108029379	12
1	1307	729.838550644853	13
1	1311	730.885761493658	14
1	1313	731.785810195352	15
1	1315	735.076449140492	16
1	1318	738.690551455264	17
1	1320	738.820950549677	18
1	1322	739.50609908825	19
1	1324	739.61186910286	20
1	1327	741.110228109107	21
1	1329	742.957974959052	22
1	1333	745.222785195351	23
1	1335	745.670809776869	24
1	1337	745.895930638964	25
1	1339	746.283948273635	26
1	1342	747.282758597556	27
1	1344	752.481442433226	27
1	1345	752.74423778275	26
1	1346	754.017531843497	25
1	1347	754.086037686353	24
1	1349	754.354321406297	24
1	1350	755.728063307755	24
1	1351	756.082573795088	23
1	1352	757.597444968852	22
1	1354	757.906345311287	22
1	1355	758.001182450481	22
1	1356	758.82935858878	21
1	1357	759.233112338927	20
1	1358	759.236877011273	19
1	1359	760.404324731002	18
1	1361	761.023289821869	18
1	1362	762.890773202636	18
1	1363	763.093877580306	17
1	1364	764.487156717777	16
1	1365	766.739669775884	15
1	1367	767.064238024105	15
1	1369	767.449921624139	16
1	1371	768.553805221754	17
1	1372	769.39803577943	17
1	1373	769.52782494858	16
1	1374	770.241717012691	15
1	1375	770.324833501476	14
1	1377	770.480155383142	14
1	1379	770.684742235717	15
1	1380	770.800046216535	15
1	1381	771.078522394697	14
1	1382	771.415751632124	13
1	1384	771.537565392796	13
1	1385	773.119387967418	13
1	1386	773.572148810431	12
1	1387	774.271443130614	11
1	1388	775.519611327345	10
1	1389	775.686330541732	9
1	1390	776.703168631546	8
1	1392	777.309194391721	8
1	1393	779.164839970238	8
1	1395	780.034529553514	8
1	1401	782.608584185186	9
1	1408	788.630727030004	10
1	1410	788.733218308125	11
1	1414	790.393451095238	12
1	1417	792.03624390496	13
1	1419	794.705640021791	14
1	1423	798.367578463042	15
1	1425	800.16828256353	16
1	1427	802.504740639852	16
1	1428	804.026105740568	15
1	1430	804.318264086045	15
1	1432	805.472742152545	16
1	1436	807.856198202452	17
1	1438	812.750867767343	18
1	1440	814.528991894599	18
1	1441	814.587931206606	17
1	1442	815.512081100556	16
1	1444	816.192538448267	16
1	1445	816.775975214193	16
1	1447	816.923980676074	16
1	1449	816.931278354418	17
1	1451	817.074756108325	18
1	1452	817.438018452507	18
1	1454	817.922404021807	18
1	1456	818.367734675223	19
1	1458	818.657739668293	20
1	1459	819.557630115706	20
1	1461	819.676351725008	20
1	1462	819.756790651585	20
1	1466	820.605371209922	20
1	1468	821.17525329275	21
1	1472	821.749267046262	22
1	1474	822.751099236956	23
1	1476	823.284766718549	24
1	1480	824.27709320497	25
1	1482	824.856553529691	26
1	1485	825.81849256415	27
1	1487	825.958477339464	28
1	1489	827.908220478869	29
1	1491	828.524165733831	30
1	1493	830.810072866455	31
1	1497	831.939329618647	32
1	1498	832.032836623405	32
1	1502	834.828267118713	31
1	1503	835.397956561889	30
1	1505	835.890297258671	30
1	1506	836.182628987432	30
1	1507	836.751248850297	29
1	1508	836.91515813169	28
1	1509	837.95989165134	27
1	1511	838.139373950336	27
1	1515	839.426204478673	28
1	1519	841.285017331675	29
1	1521	841.350262904178	30
1	1524	843.284236094106	31
1	1526	844.395561383117	31
1	1528	844.584970780267	31
1	1530	845.011956801072	32
1	1531	845.021150125467	32
1	1532	846.078346619347	31
1	1533	846.336918018548	30
1	1534	847.919496609946	29
1	1535	848.142192231642	28
1	1539	851.234118665701	27
1	1540	852.047443751165	26
1	1542	852.095409225272	26
1	1544	853.03764465833	27
1	1546	854.389824349388	28
1	1547	855.342172191591	28
1	1549	855.735489627459	28
1	1551	855.914411303573	29
1	1553	856.28775418704	30
1	1554	856.431305821262	30
1	1556	857.578093934851	30
1	1557	857.893669937469	30
1	1558	858.273751923891	29
1	1559	858.304096612889	28
1	1560	858.4406918847	27
1	1562	858.937085400659	27
1	1564	859.026773208312	28
1	1565	859.27829760018	28
1	1569	862.614433021741	28
1	1571	862.796871372983	29
1	1573	865.438889851046	30
1	1575	868.101567539343	31
1	1577	868.851745383611	31
1	1579	869.283464174732	31
1	1581	870.528958891201	32
1	1582	871.260622571775	32
1	1583	871.948417626159	31
1	1584	872.679475298392	30
1	1585	873.018238992917	29
1	1586	873.103301544865	28
1	1588	873.22519262444	28
1	1589	873.538925171317	28
1	1590	874.892750149996	27
1	1592	875.415522467915	27
1	1593	877.327407598008	27
1	1595	879.367934931761	27
1	1596	879.457078883221	27
1	1597	879.745883296833	26
1	1598	880.487666774254	25
1	1599	881.034104992844	24
1	1600	881.24868536913	23
1	1601	881.286996128246	22
1	1603	883.201607607377	22
1	1604	883.277139692391	22
1	1605	884.345079707239	21
1	1606	884.383362461503	20
1	1607	885.157040934882	19
1	1609	885.979318031523	19
1	1610	886.065541340065	19
1	1612	886.546805596241	19
1	1613	887.310512771305	19
1	1614	887.514094070073	18
1	1616	887.856017988661	18
1	1618	887.995521927091	19
1	1620	888.502885886635	20
1	1622	888.545696805465	21
1	1624	889.877169863695	22
1	1626	890.085633688915	23
1	1627	891.459963874006	23
1	1629	891.757058470951	23
1	1630	892.119539281231	23
1	1634	895.483456882294	23
1	1636	900.715636504639	23
1	1638	900.814807281609	23
1	1639	900.875007830136	23
1	1641	901.038511646171	23
1	1642	902.962510416081	23
1	1643	903.107367086374	22
1	1644	903.784831156385	21
1	1648	905.07453903925	21
1	1650	905.767986428722	21
1	1652	906.846779622149	21
1	1654	908.135884186323	22
1	1655	908.353728215707	22
1	1656	908.485615240615	21
1	1657	909.075367667334	20
1	1661	912.300615416444	20
1	1663	912.513913602655	21
1	1665	913.102977479512	22
1	1667	919.808416791453	22
1	1668	919.904364248323	21
1	1672	921.326098791635	21
1	1674	921.420138957344	22
1	1676	922.252044367968	23
1	1678	923.042019533021	23
1	1679	923.278354485938	22
1	1683	926.907723663831	22
1	1685	927.017177271636	23
1	1687	927.222210610516	24
1	1689	928.001742105404	25
1	1693	929.644810477797	26
1	1695	931.994361863812	27
1	1697	932.838063765412	28
1	1699	933.074656124864	29
1	1702	935.000525632513	30
1	1706	938.274137767718	31
1	1708	940.403040849111	32
1	1711	943.766143714991	32
1	1712	944.480370820607	31
1	1713	945.260648003515	30
1	1717	949.088678979795	29
1	1719	950.846691803152	29
1	1720	951.897520033311	29
1	1721	952.228287860489	28
1	1722	953.149748855343	27
1	1724	953.493828078229	27
1	1725	953.593155451878	27
1	1727	954.562138505997	27
1	1729	955.999635668074	28
1	1733	957.535881657312	29
1	1735	958.158465561033	30
1	1738	962.51660276334	31
1	1739	963.340592914929	31
1	1740	963.701809937969	30
1	1742	963.719543349657	30
1	1744	964.222780380076	31
1	1746	964.887910022545	32
1	1747	966.152089564228	32
1	1749	967.076936905909	32
1	1751	967.197176049732	33
1	1752	967.658062904621	33
1	1753	969.964078035987	32
1	1754	970.378279122016	31
1	1755	970.452730837923	30
1	1756	970.667315903345	29
1	1757	970.856018049945	28
1	1758	970.964888450432	27
1	1759	972.036969822161	26
1	1761	972.280126288917	26
1	1765	974.241784817806	26
1	1767	974.340569453813	26
1	1771	976.939778166196	26
1	1772	977.027239344782	25
1	1774	978.308165161108	25
1	1776	978.83240315094	26
1	1778	979.305486369384	27
1	1780	979.807782881231	28
1	1781	980.451344849782	28
1	1782	981.374269471491	27
1	1783	981.859492671974	26
1	1784	982.29286258843	25
1	1785	983.263837348802	24
1	1786	986.160604568499	23
1	1790	986.707367849884	23
1	1792	987.073041730584	24
1	1796	987.331843063113	25
1	1798	989.782329716233	26
1	1800	990.767748351885	27
1	1802	991.205592348924	28
1	1804	992.571837029811	29
1	1806	997.261068901542	30
1	1809	1000.578187475457	30
1	1810	1003.908734242808	29
1	1811	1004.983171047316	28
1	1813	1005.623507149697	28
1	1815	1006.200347040843	29
1	1817	1007.040509658712	30
1	1818	1007.998504021499	30
1	1819	1008.930854451629	29
1	1821	1009.600839526691	29
1	1822	1010.690605090438	29
1	1823	1010.955356133095	28
1	1824	1012.259231424443	27
1	1825	1012.627700837788	26
1	1827	1013.267653035211	26
1	1829	1013.811830829379	27
1	1830	1015.934257140502	27
1	1831	1015.961120040713	26
1	1833	1017.771743775484	26
1	1835	1018.531565756862	27
1	1837	1019.219235132952	28
1	1838	1021.395149135196	28
1	1839	1021.713461546965	27
1	1841	1022.210334893825	27
1	1842	1022.374638214944	27
1	1843	1023.259095522053	26
1	1847	1025.239671696987	26
1	1851	1025.361151997373	27
1	1853	1025.421702622289	28
1	1855	1026.711771179862	29
1	1857	1030.167707649676	30
1	1861	1031.565373179991	31
1	1863	1031.613848899605	32
1	1864	1031.666581915798	32
1	1866	1032.703191224095	32
1	1867	1033.449074835384	32
1	1868	1033.831217240045	31
1	1869	1033.993022427399	30
1	1870	1034.537872463348	29
1	1871	1034.588266982847	28
1	1872	1034.763407985594	27
1	1873	1034.917991542332	26
1	1874	1034.977023723051	25
1	1875	1035.014735381512	24
1	1876	1035.190737100989	23
1	1878	1035.574496254487	23
1	1879	1036.640600358089	23
1	1880	1036.922537593698	22
1	1885	1039.146852578897	22
1	1886	1039.178429204562	22
1	1887	1039.601947964686	21
1	1888	1039.659504132277	20
1	1889	1043.271715799571	19
1	1890	1044.771033802876	18
1	1891	1045.458141265797	17
1	1892	1045.90738763516	16
1	1893	1046.454196418913	15
1	1895	1046.937303494297	15
1	1896	1047.42141848813	15
1	1897	1047.964142195014	14
1	1898	1048.052944426647	13
1	1899	1048.266793511948	12
1	1901	1048.967229599568	12
1	1902	1049.786062837676	12
1	1904	1049.908449862957	12
1	1905	1049.956920728422	12
1	1906	1050.381036135926	11
1	1907	1050.785427927899	10
1	1909	1050.858319288275	10
1	1910	1051.263750236263	10
1	1911	1051.597542538698	9
1	1913	1052.266870573374	9
1	1915	1053.821438942539	10
1	1916	1055.926647918386	10
1	1920	1059.495656857444	9
1	1922	1060.540589479243	9
1	1923	1061.816728920056	9
1	1925	1062.712877120473	9
1	1926	1062.831410878902	9
1	1927	1063.181693006105	8
1	1928	1063.745476834453	7
1	1929	1064.702814824195	6
1	1930	1065.275723390107	5
1	1931	1066.26684925264	4
1	1937	1069.41723610224	4
1	1939	1069.523216213995	5
1	1941	1070.547622582708	6
1	1943	1072.408290207564	7
1	1945	1072.553456393246	8
1	1947	1076.351399416449	9
1	1949	1076.516556551708	10
1	1951	1076.65557525024	11
1	1953	1078.290105242649	12
1	1955	1078.726351886555	13
1	1957	1078.90413290632	14
1	1960	1079.480168986663	15
1	1962	1086.767640036426	16
1	1964	1090.666482818733	17
1	1966	1091.031106991172	18
1	1970	1091.745597724746	19
1	1972	1093.136390306334	20
1	1974	1096.106315477197	21
1	1977	1099.859599239697	22
1	1981	1102.530433878516	23
1	1984	1103.472694395043	23
1	1986	1103.530627710283	23
1	1987	1103.55862488507	23
1	1988	1104.593705135978	22
1	1989	1104.597205993707	21
1	1991	1104.601832254473	21
1	1992	1104.681869813423	21
1	1993	1105.319293962707	20
1	1995	1105.78391051297	20
1	1996	1105.946917760647	20
1	1997	1106.569333852596	19
1	1999	1107.098289335383	19
1	2001	1107.851305890752	20
1	2002	1108.972330305799	20
1	2003	1109.772903529724	19
1	2007	1112.354163717239	18
1	2008	1112.908665117577	17
1	2009	1113.245248161926	16
1	2010	1113.397202919037	15
1	2012	1113.758651875236	15
1	2013	1114.241093852937	15
1	2014	1115.081143965475	14
1	2016	1115.172470528279	14
1	2017	1115.606901329955	14
1	2021	1118.472283323719	14
1	2023	1119.575825382063	15
1	2025	1123.897306329315	15
1	2027	1124.404456311437	15
1	2028	1124.515359960042	15
1	2030	1124.957387116959	15
1	2031	1125.636200189464	15
1	2032	1126.776109335592	14
1	2034	1127.005141610036	14
1	2035	1127.186425429323	14
1	2036	1127.294928114234	13
1	2037	1127.916231498113	12
1	2039	1130.381356855476	12
1	2041	1130.693922515819	13
1	2042	1131.658948002504	13
1	2043	1131.909921388927	12
1	2045	1132.925799669447	12
1	2047	1133.538464102075	13
1	2048	1133.739143283713	13
1	2050	1134.026113315253	13
1	2052	1134.173243983128	14
1	2054	1134.57446484959	15
1	2055	1135.784847401404	15
1	2056	1136.46654864917	14
1	2057	1136.98948752262	13
1	2059	1137.128632698071	13
1	2061	1137.515349313288	14
1	2062	1138.74576442678	14
1	2063	1139.633412605743	13
1	2064	1140.900405890761	12
1	2065	1141.366922414241	11
1	2067	1141.428860296929	11
1	2068	1141.697166632692	11
1	2070	1145.863963420828	11
1	2071	1146.896372542202	11
1	2072	1147.359356063834	10
1	2074	1147.699028460474	10
1	2076	1148.244045479994	11
1	2077	1148.731741365668	11
1	2078	1148.987275420868	10
1	2079	1149.592714044791	9
1	2081	1149.614218999602	9
1	2082	1149.820241075218	9
1	2083	1150.367960540669	8
1	2084	1151.407191530326	7
1	2085	1152.011821261695	6
1	2086	1152.185593377783	5
1	2087	1152.397842227972	4
1	2089	1152.893763313578	4
1	2090	1153.045760280112	4
1	2091	1153.745723805769	3
1	2095	1155.387408304367	3
1	2097	1156.369842756769	4
1	2099	1157.969856625259	5
1	2101	1162.488233343596	5
1	2102	1162.667362410898	4
1	2103	1163.05417337457	3
1	2104	1163.228467562296	2
1	2105	1163.470662031033	1
1	2106	1165.152222651655	0
1	2108	1170.771533861024	0
1	2110	1170.785740135085	1
1	2111	1172.293694180016	1
1	2112	1172.52088953083	0
1	2114	1172.77435659781	0
1	2115	1173.401032247532	0
1	2117	1173.846890059814	0
1	2118	1174.900354986368	0
1	2120	1175.393619369367	0
1	2121	1175.507082224938	0
1	2123	1176.699558460289	0
1	2124	1177.492498863404	0
1	2126	1178.213015031708	0
1	2127	1179.76897931906	0
1	2129	1180.919724358097	0
1	2130	1181.097491968392	0
1	2132	1181.57636560796	0
1	2133	1182.456073735035	0
1	2135	1183.448975616596	0
1	2137	1183.811775606472	1
1	2139	1184.029845732595	2
1	2140	1184.199515266983	2
1	2141	1185.30550321699	1
1	2142	1185.849913095684	0
1	2144	1187.554485756579	0
1	2145	1187.827646980118	0
1	2147	1189.588334052072	0
1	2148	1190.054224599612	0
1	2150	1190.597330276877	0
1	2152	1191.146487617145	1
1	2153	1191.675921876164	1
1	2154	1194.346229152035	0
1	2156	1195.653876346196	0
1	2158	1195.882766910691	1
1	2159	1196.204557544766	1
1	2161	1196.777469066345	1
1	2165	1198.722018736052	2
1	2167	1199.515758023681	3
1	2171	1200.4473001883	4
1	2173	1200.9978227661	5
1	2175	1202.267620378221	6
1	2177	1203.728338810522	7
1	2179	1204.874233790676	8
1	2181	1208.657872753234	9
1	2184	1210.643095020801	9
1	2185	1210.654755171588	8
1	2187	1210.794626749639	8
1	2188	1210.99761348236	8
1	2189	1211.28122260046	7
1	2190	1211.496554478418	6
1	2191	1211.704551275599	5
1	2192	1211.739094989764	4
1	2194	1211.975587916196	4
1	2195	1212.494566677436	4
1	2196	1212.931022679056	3
1	2197	1213.606736885382	2
1	2199	1214.085885703264	2
1	2201	1215.299817636003	3
1	2205	1216.449182115098	4
1	2207	1216.502180487204	5
1	2209	1220.726995983509	6
1	2211	1221.434177321406	7
1	2213	1224.035679413279	7
1	2215	1224.801256617632	7
1	2216	1224.875544772425	7
1	2218	1225.521630241868	7
1	2220	1225.851960382824	8
1	2224	1226.86375738699	9
1	2227	1228.004330342757	10
1	2229	1228.063222882046	11
1	2230	1229.719185625991	11
1	2232	1230.089101573538	11
1	2234	1230.760357593776	12
1	2236	1230.942179332381	13
1	2237	1231.725495270171	13
1	2238	1232.452395406511	12
1	2240	1232.816078606584	12
1	2241	1233.025632044933	12
1	2245	1233.827124768434	12
1	2247	1234.088118399618	13
1	2249	1235.719505767413	13
1	2250	1236.037065544008	12
1	2251	1236.925862142876	11
1	2253	1236.985120787215	11
1	2254	1237.288571169228	11
1	2258	1240.514484453542	10
1	2259	1240.972920896035	9
1	2261	1241.769874407657	9
1	2262	1242.410035276995	9
1	2264	1242.538284729626	9
1	2265	1243.158213180496	9
1	2266	1243.541359881493	8
1	2268	1243.663826814706	8
1	2269	1246.949848722821	8
1	2271	1247.137653109755	8
1	2273	1247.20386789788	9
1	2274	1247.383031993665	9
1	2276	1248.6841995099	9
1	2277	1248.830331116757	9
1	2279	1249.376712482915	9
1	2280	1249.535539699549	9
1	2281	1250.351170323066	8
1	2282	1250.42525754174	7
1	2283	1250.804425190176	6
1	2285	1251.507529978543	6
1	2286	1251.522627696645	6
1	2290	1253.590629529931	6
1	2293	1254.189057824614	7
1	2295	1255.991881864602	8
1	2297	1257.270756920105	9
1	2298	1258.437857540216	9
1	2299	1258.451204519233	8
1	2300	1258.759100472579	7
1	2301	1259.121915451471	6
1	2302	1259.190061021382	5
1	2304	1259.398490911868	5
1	2308	1261.181861745103	6
1	2311	1268.220405310389	7
1	2313	1268.683291003399	8
1	2317	1270.964145674267	8
1	2319	1271.804050850883	8
1	2320	1272.1180802065	8
1	2321	1272.429189291297	7
1	2322	1273.237141261726	6
1	2332	1286.358171355299	6
1	2336	1288.340106834381	7
1	2338	1289.327592685719	8
1	2340	1290.229513889966	9
1	2342	1292.555512968854	10
1	2344	1293.408383503791	11
1	2347	1295.471423588707	12
1	2349	1296.809562992286	13
1	2351	1296.8318713715	14
1	2355	1301.977429208778	15
1	2357	1305.133519821059	16
1	2359	1306.573514347577	17
1	2361	1309.052087861476	18
1	2363	1309.357905995131	19
1	2366	1310.228833659852	20
1	2368	1310.724238015521	21
1	2370	1318.117518656479	22
1	2374	1318.382329394854	23
1	2376	1318.93537242309	24
1	2378	1321.7170327518	25
1	2380	1322.231577003523	26
1	2382	1322.588741176392	27
1	2384	1323.236272928282	28
1	2388	1331.063529033588	29
1	2390	1331.177283723024	30
1	2392	1334.65786850082	31
1	2394	1336.557410525481	32
1	2397	1338.424373050725	33
1	2400	1344.160863536765	34
1	2404	1347.595728120283	35
1	2406	1348.300672477663	36
1	2411	1351.564374770126	37
1	2414	1353.150687341525	38
1	2416	1353.200544437205	39
1	2418	1353.895628008597	40
1	2423	1354.589545291162	41
1	2425	1355.389310953304	42
1	2427	1357.564070816798	43
1	2429	1359.200086507738	43
1	2430	1359.848322557032	42
1	2434	1363.675491035262	41
1	2435	1364.201655736257	40
1	2439	1364.33233493615	40
1	2441	1366.870458251234	41
1	2443	1367.375914915021	42
1	2447	1368.944049325113	43
1	2449	1369.299847100651	44
1	2451	1369.494946662861	45
1	2453	1370.583684886409	46
1	2455	1371.533436725398	47
1	2457	1372.451278314625	48
1	2459	1372.824028924308	49
1	2461	1373.069620964326	50
1	2464	1375.004431998611	51
1	2466	1375.904386573841	51
1	2467	1376.049275881465	50
1	2468	1376.555632175684	49
1	2472	1378.840790091402	49
1	2474	1379.99014501215	50
1	2476	1380.073441557084	51
1	2478	1380.897103891228	52
1	2482	1386.191741057345	53
1	2484	1390.096222498908	54
1	2488	1394.01652733509	55
1	2490	1395.637164247547	56
1	2492	1396.685596169791	57
1	2495	1398.259197663402	58
1	2498	1402.484958940576	59
1	2501	1403.17820109603	60
1	2503	1403.41433642387	61
1	2504	1403.980178481562	61
1	2506	1404.174028153856	61
1	2507	1404.985366774204	61
1	2508	1405.998543235253	60
1	2509	1407.219857907883	59
1	2511	1407.685966480125	59
1	2515	1408.523008382509	60
1	2517	1409.27841894925	61
1	2519	1409.462815488563	62
1	2521	1411.056326381463	63
1	2523	1412.555502445617	63
1	2524	1412.77093841977	62
1	2525	1412.776800070767	61
1	2527	1413.200662550442	61
1	2529	1414.188154120149	62
1	2531	1415.016038240453	63
1	2533	1415.03939901856	64
1	2535	1415.125414064467	65
1	2536	1416.305745923859	65
1	2537	1416.904642740907	64
1	2538	1417.690815195053	63
1	2539	1418.501471994706	62
1	2540	1419.003879678534	61
1	2541	1419.130774523368	60
1	2543	1420.662193243845	60
1	2547	1421.671053114672	61
1	2549	1424.361537558077	62
1	2551	1426.795279991632	63
1	2553	1426.988497379066	64
1	2555	1427.016656794541	65
1	2557	1428.970843423553	66
1	2559	1430.104292749125	67
1	2565	1433.085934966688	68
1	2566	1433.996372916639	68
1	2568	1434.529286986495	68
1	2570	1435.330111162175	69
1	2571	1435.379138074401	69
1	2573	1435.499754873484	69
1	2575	1438.19752411877	70
1	2576	1440.742723997966	70
1	2577	1440.987907388057	69
1	2579	1441.54724979016	69
1	2580	1442.186259128081	69
1	2582	1443.155108114675	69
1	2583	1445.206899099528	69
1	2585	1445.255870641989	69
1	2586	1445.653090851072	69
1	2587	1446.264711282549	68
1	2589	1446.327906125613	68
1	2590	1447.496046386615	68
1	2592	1448.992593747384	68
1	2594	1449.793533932434	69
1	2595	1451.522396720798	69
1	2597	1452.295034373408	69
1	2598	1452.463252868237	69
1	2600	1452.780717705141	69
1	2601	1454.270545072334	69
1	2603	1454.487091044801	69
1	2605	1454.755421286893	70
1	2606	1454.815506846015	70
1	2607	1454.993807249281	69
1	2608	1455.182812017174	68
1	2612	1456.922322231438	68
1	2614	1457.747655006945	68
1	2615	1458.547815697376	67
1	2616	1458.556257653661	66
1	2617	1459.3934420344	65
1	2619	1461.040462706445	65
1	2621	1461.291125826664	66
1	2622	1461.330404747551	66
1	2624	1461.349619882313	66
1	2626	1462.08572005593	67
1	2628	1462.415790673866	68
1	2629	1462.507746335201	68
1	2630	1463.701035630779	67
1	2631	1463.907242611872	66
1	2632	1466.769288092401	65
1	2633	1466.821388076453	64
1	2634	1466.929793598006	63
1	2635	1467.341748311032	62
1	2637	1468.467272413402	62
1	2638	1469.00383404507	62
1	2639	1469.587647375341	61
1	2641	1469.754933682551	61
1	2643	1470.239337285763	62
1	2645	1470.659391491246	63
1	2646	1471.596709556558	63
1	2647	1472.293747676526	62
1	2648	1472.299925644194	61
1	2649	1475.320292303517	60
1	2650	1476.21509366477	59
1	2651	1477.048862806615	58
1	2652	1478.382034587028	57
1	2654	1478.49306857193	57
1	2656	1478.62995791277	58
1	2658	1478.674927538906	59
1	2659	1480.527566961624	59
1	2661	1480.776854011086	59
1	2663	1480.93065687274	60
1	2667	1482.228238359131	61
1	2670	1484.443412775928	62
1	2671	1484.521454027313	62
1	2672	1484.695101363598	61
1	2674	1484.738687601186	61
1	2675	1486.116483056813	61
1	2679	1487.98107989164	60
1	2680	1489.157231993278	59
1	2682	1489.258268905872	59
1	2684	1489.393879136001	60
1	2685	1489.695621892236	60
1	2687	1490.329895907304	60
1	2689	1492.087638802458	61
1	2691	1492.870664896357	62
1	2695	1494.525930361094	63
1	2698	1495.410199689033	64
1	2699	1496.071336047464	64
1	2701	1496.277794855266	64
1	2702	1497.715842970442	64
1	2704	1497.784524570262	64
1	2708	1498.242249577372	64
1	2709	1498.368524942548	63
1	2710	1499.065270803281	62
1	2712	1499.855376272648	62
1	2713	1499.976737177217	62
1	2715	1500.131974571605	62
1	2717	1500.326068470284	63
1	2718	1502.500078331666	63
1	2719	1503.393395148101	62
1	2723	1506.888945748761	62
1	2725	1507.710953007685	63
1	2727	1508.151595669205	63
1	2729	1508.550075313466	63
1	2730	1509.181945671402	63
1	2731	1510.004356955876	62
1	2732	1510.238307257148	61
1	2733	1510.360004569914	60
1	2735	1511.05566500027	60
1	2736	1512.849502625539	60
1	2737	1513.148429786945	59
1	2739	1513.962193576078	59
1	2740	1514.152849466355	59
1	2742	1514.447757238634	59
1	2743	1514.4735768381	59
1	2744	1516.801435362208	58
1	2745	1516.819090102727	57
1	2746	1517.108853911154	56
1	2747	1517.526940560888	55
1	2749	1518.429493474022	55
1	2750	1519.595680303686	55
1	2751	1521.560022606887	54
1	2753	1522.082687964816	54
1	2754	1522.657798410496	54
1	2755	1523.037481956303	53
1	2756	1523.655541598396	52
1	2757	1524.828333942171	51
1	2758	1524.974770017593	50
1	2762	1528.620289649827	49
1	2763	1528.841924236096	48
1	2767	1532.543164257056	48
1	2769	1532.679756359636	49
1	2771	1536.107571474545	50
1	2773	1539.310033157086	50
1	2774	1539.930031782264	49
1	2776	1541.167017158358	49
1	2777	1542.293805423604	49
1	2778	1542.807894282321	48
1	2779	1542.832973871227	47
1	2781	1544.429380077297	47
1	2782	1544.467261158626	47
1	2784	1544.553515593741	47
1	2788	1546.886936565064	47
1	2789	1547.424264102983	46
1	2791	1548.107364339426	46
1	2792	1548.843956995807	46
1	2793	1549.263995712806	45
1	2794	1550.664783850726	44
1	2796	1550.715745268162	44
1	2797	1550.913536831993	44
1	2798	1552.251682106901	43
1	2799	1552.282261216902	42
1	2801	1553.151780672651	42
1	2802	1553.52243124966	42
1	2803	1554.235899332702	41
1	2805	1554.343025538216	41
1	2809	1554.499414644724	42
1	2812	1555.38602666087	43
1	2813	1556.177963419971	43
1	2814	1556.389950790428	42
1	2815	1558.491650143428	41
1	2816	1558.855960362711	40
1	2820	1560.555957341224	40
1	2822	1561.897032938188	40
1	2823	1563.051894043796	39
1	2824	1563.279235023078	38
1	2829	1563.844196031663	38
1	2833	1566.818738442714	38
1	2834	1568.599281192367	37
1	2835	1569.870083132286	36
1	2836	1570.466168285953	35
1	2837	1570.665798917469	34
1	2838	1570.945261890234	33
1	2840	1572.059966840953	33
1	2841	1572.320744153933	33
1	2842	1572.935223315626	32
1	2843	1573.507216066382	31
1	2844	1574.137536605589	30
1	2846	1575.481909279697	30
1	2847	1576.106253657101	30
1	2848	1577.008890919388	29
1	2849	1578.453707337178	28
1	2850	1578.509406836573	27
1	2851	1579.013879317473	26
1	2853	1579.106559509055	26
1	2854	1579.970966763062	26
1	2855	1580.221552723634	25
1	2857	1581.187006543963	25
1	2858	1581.357576379517	25
1	2860	1582.304690795928	25
1	2861	1583.381806227959	25
1	2862	1584.359031039181	24
1	2864	1584.570824632214	24
1	2866	1586.249663030601	25
1	2867	1586.377911361112	25
1	2868	1586.478066511676	24
1	2869	1587.169519246092	23
1	2870	1587.655971521326	22
1	2871	1587.729675420927	21
1	2872	1587.790930524951	20
1	2874	1588.196329100969	20
1	2875	1588.515383383746	20
1	2876	1588.670578490708	19
1	2877	1589.280689939178	18
1	2878	1589.786795574414	17
1	2880	1590.19692162641	17
1	2881	1590.380557513653	17
1	2883	1591.091672222919	17
1	2884	1591.460559830634	17
1	2885	1592.600704172423	16
1	2886	1592.651077657041	15
1	2887	1592.764559954958	14
1	2889	1594.309641736836	14
1	2890	1594.909507815681	14
1	2891	1595.604694757963	13
1	2895	1599.060620018887	13
1	2897	1600.991700095645	13
1	2898	1601.326411881785	12
1	2899	1601.599555568144	11
1	2901	1602.680439240156	11
1	2907	1603.598357703824	12
1	2909	1604.180306438793	13
1	2911	1605.029762636981	14
1	2913	1605.871933021781	15
1	2915	1606.908536553645	16
1	2917	1608.612525033623	17
1	2923	1615.363068432574	18
1	2925	1615.586244872048	19
1	2928	1617.857166530948	20
1	2929	1618.493864606262	20
1	2930	1619.588458150019	19
1	2931	1619.691023833695	18
1	2932	1620.73801665606	17
1	2934	1622.055537346075	17
1	2936	1622.356581069322	18
1	2937	1622.842686328062	18
1	2938	1623.088592642464	17
1	2940	1624.895980478025	17
1	2941	1626.529745590879	17
1	2942	1627.72377291822	16
1	2943	1628.582305996381	15
1	2944	1629.312640642984	14
1	2945	1630.284956155209	13
1	2950	1631.24145440518	13
1	2951	1631.565813812341	13
1	2952	1631.625802749014	12
1	2954	1631.727085363477	12
1	2955	1632.790396062556	12
1	2957	1632.849233000792	12
1	2958	1633.927458020682	12
1	2959	1637.815384598671	11
1	2961	1638.537757727568	11
1	2962	1639.089407269422	11
1	2963	1639.383782344883	10
1	2964	1639.504026012047	9
1	2966	1639.888701961087	9
1	2968	1640.100876033249	10
1	2970	1640.314704575957	11
1	2971	1641.121845384979	11
1	2973	1641.220853290281	11
1	2974	1641.407169025069	11
1	2976	1642.703844095148	11
1	2978	1643.301810942596	12
1	2982	1643.322272828885	13
1	2984	1643.798844519305	14
1	2986	1645.577377338591	14
1	2987	1646.134793811906	13
1	2989	1647.005921908473	13
1	2991	1647.513535488215	14
1	2993	1648.654092280751	15
1	2994	1649.575966417665	15
1	2996	1649.766064335667	15
1	2997	1651.203674254874	15
1	2998	1651.848253330936	14
1	3000	1652.144904273788	14
1	3002	1652.196828456949	15
1	3009	1659.320787285268	16
1	3011	1660.92648583083	17
1	3013	1661.792804363061	18
1	3015	1663.157642347891	19
1	3017	1664.17053860931	20
1	3019	1664.239010797009	21
1	3024	1668.550762234896	21
1	3026	1668.647065885937	21
1	3027	1668.926202859725	21
1	3028	1669.295949339629	20
1	3029	1670.048882233057	19
1	3031	1671.618337352652	19
1	3032	1671.851833945023	19
1	3033	1673.647266473896	18
1	3034	1674.838843641293	17
1	3036	1675.164615383273	17
1	3037	1675.260515157292	17
1	3039	1675.64825085774	17
1	3040	1675.799036608903	17
1	3041	1676.307420449322	16
1	3042	1676.77323565184	15
1	3043	1676.87381266674	14
1	3044	1677.545377803513	13
1	3046	1679.72703790779	13
1	3047	1679.727252478395	13
1	3049	1679.841207415526	13
1	3050	1679.889422185002	13
1	3052	1680.877195045513	13
1	3054	1681.302632879977	14
1	3055	1681.627463717939	14
1	3057	1681.899021167941	14
1	3059	1683.848151400786	15
1	3060	1684.13121911303	15
1	3061	1686.701223093893	14
1	3063	1687.678897970922	14
1	3064	1687.778458529093	14
1	3066	1687.962409722303	14
1	3067	1688.123837744208	14
1	3068	1688.601074106743	13
1	3069	1689.201440609524	12
1	3070	1689.302820329284	11
1	3071	1689.470220065705	10
1	3072	1690.185821290234	9
1	3076	1692.895462197355	9
1	3078	1693.313711479855	10
1	3080	1694.076633700462	11
1	3082	1694.399543850423	11
1	3084	1695.496266137708	11
1	3086	1696.57139968023	12
1	3088	1699.090438722379	13
1	3089	1699.698168017471	13
1	3091	1699.862215246515	13
1	3093	1700.254339270122	14
1	3094	1700.356563979004	14
1	3096	1702.006333154384	14
1	3097	1702.143384858067	14
1	3099	1702.580484225956	14
1	3100	1703.09550847788	14
1	3101	1703.22581589886	13
1	3105	1704.690426151703	12
1	3107	1704.83911409957	12
1	3108	1706.082544601057	12
1	3109	1707.096653817703	11
1	3110	1707.438316197798	10
1	3112	1707.458349566907	10
1	3113	1709.970965515152	10
1	3114	1710.531359723952	9
1	3116	1711.414082220315	9
1	3117	1711.684761971555	9
1	3118	1711.736455763174	8
1	3120	1712.075548066102	8
1	3124	1715.916311411248	9
1	3127	1716.74199384098	10
1	3128	1716.769948887747	10
1	3129	1717.029279621852	9
1	3131	1717.958537965147	9
1	3132	1718.050638762989	9
1	3133	1718.166007484625	8
1	3135	1720.030886144618	8
1	3136	1720.20291804705	8
1	3138	1720.573196217165	8
1	3139	1720.740470123217	8
1	3141	1720.865639835439	8
1	3143	1721.21828804883	9
1	3144	1721.224418678233	9
1	3145	1721.603373478434	8
1	3147	1721.974352994634	8
1	3149	1722.156798638796	9
1	3153	1726.943973613399	10
1	3156	1728.937968526835	11
1	3158	1729.155046250195	12
1	3160	1729.518625259949	13
1	3162	1729.529659929983	14
1	3163	1729.615012699157	14
1	3164	1730.743894498843	13
1	3165	1730.894021448917	12
1	3166	1732.05194159644	11
1	3167	1733.326177358783	10
1	3169	1733.37510605379	10
1	3171	1733.501227543022	11
1	3172	1733.788051135181	11
1	3173	1734.138474752289	10
1	3175	1734.169656369593	10
1	3176	1734.351910860503	10
1	3177	1736.561539342343	9
1	3181	1741.685516067188	9
1	3183	1744.82066765885	10
1	3185	1745.683351565678	11
1	3187	1746.720764844309	12
1	3189	1747.510915927636	13
1	3191	1747.523150685856	14
1	3193	1747.809579757788	14
1	3195	1748.657772917691	14
1	3199	1749.024605014073	15
1	3201	1750.653715206759	16
1	3206	1755.654883650059	17
1	3208	1757.423006562204	18
1	3212	1759.478796508865	19
1	3214	1759.618772937361	20
1	3216	1760.933542963334	21
1	3218	1762.356060010379	22
1	3227	1770.334879577828	23
1	3229	1770.847413343036	24
1	3231	1771.376486367689	25
1	3233	1772.704137871149	25
1	3234	1773.571136543883	24
1	3235	1774.021791569738	23
1	3236	1774.109887204591	22
1	3238	1774.826731551507	22
1	3239	1775.375627752812	22
1	3243	1776.435049649368	22
1	3247	1786.395677570358	23
1	3249	1787.490731221372	24
1	3251	1788.563994670238	25
1	3253	1789.989312609878	26
1	3255	1790.707923400216	27
1	3257	1790.742925444318	28
1	3259	1791.178432542722	29
1	3261	1791.837738882617	30
1	3263	1792.20337057155	31
1	3265	1794.702452061425	32
1	3269	1797.774878350883	33
1	3271	1797.985047992832	34
1	3273	1798.442653738512	35
1	3275	1801.348194345412	36
1	3277	1801.726297272428	37
1	3278	1802.595197180099	37
1	3279	1806.173934045242	36
1	3280	1806.367087395658	35
1	3281	1807.20518286282	34
1	3283	1807.242455156425	34
1	3285	1807.875610732502	35
1	3286	1808.119421676017	35
1	3288	1808.63867202222	35
1	3289	1808.990580080995	35
1	3290	1809.509694444214	34
1	3292	1810.54087306641	34
1	3294	1811.231495139416	35
1	3296	1811.744980335506	36
1	3297	1812.048602958897	36
1	3299	1812.913754759184	36
1	3300	1813.544590924281	36
1	3301	1813.607668439087	35
1	3302	1814.024692217563	34
1	3303	1814.58724437899	33
1	3304	1815.089182547643	32
1	3305	1815.34794472117	31
1	3306	1816.052352416339	30
1	3307	1816.055800560081	29
1	3309	1817.498839995649	29
1	3310	1817.672964695372	29
1	3311	1817.675389523278	28
1	3312	1817.952691484171	27
1	3313	1818.130778713814	26
1	3314	1819.566115408694	25
1	3315	1821.315237685602	24
1	3316	1821.39127800967	23
1	3317	1823.848409424722	22
1	3319	1824.090409184774	22
1	3320	1824.280097798935	22
1	3321	1825.304938897785	21
1	3322	1825.774411615936	20
1	3323	1826.042124908517	19
1	3324	1826.22673289865	18
1	3326	1827.167341575096	18
1	3327	1828.067993859639	18
1	3328	1828.091530832179	17
1	3329	1828.296751540001	16
1	3331	1828.697692898161	16
1	3332	1828.736477484501	16
1	3333	1828.929938289144	15
1	3334	1829.307941929459	14
1	3336	1829.429655302564	14
1	3337	1829.786119380147	14
1	3339	1830.312251426663	14
1	3340	1830.712421644823	14
1	3342	1831.19261595226	14
1	3344	1831.978015257896	15
1	3345	1831.981675020375	15
1	3346	1832.682158208142	14
1	3347	1832.952723134597	13
1	3348	1833.01325178424	12
1	3349	1833.929376958943	11
1	3351	1834.053959795957	11
1	3352	1834.763854488077	11
1	3354	1835.011674857963	11
1	3355	1837.928014832642	11
1	3357	1838.676654173049	11
1	3358	1838.985050376479	11
1	3360	1839.077653825519	11
1	3362	1839.262577891142	12
1	3363	1839.375828242	12
1	3364	1840.718673885214	11
1	3365	1841.881740107685	10
[...]
8	2963	1639.383782344883	24.020713912309
8	2964	1639.504026012047	23.917781139999
8	2971	1641.121845384979	23.264678854031
8	2974	1641.407169025069	19.351631678994
8	2986	1645.577377338591	20.681396860566
8	2987	1646.134793811906	14.945912065291
8	2994	1649.575966417665	18.334512012485
8	2997	1651.203674254874	19.476588891397
8	2998	1651.848253330936	18.999020330144
8	3024	1668.550762234896	28.662060273809
8	3027	1668.926202859725	28.825326826476
8	3028	1669.295949339629	28.981244763672
8	3029	1670.048882233057	28.828028942776
8	3032	1671.851833945023	29.147989849875
8	3033	1673.647266473896	30.3454555313
8	3034	1674.838843641293	31.522063223325
8	3037	1675.260515157292	31.938242328407
8	3040	1675.799036608903	32.000192089598
8	3041	1676.307420449322	29.301498540849
8	3042	1676.77323565184	29.259700163625
8	3043	1676.87381266674	28.219720385989
8	3044	1677.545377803513	27.779313467846
8	3047	1679.727252478395	27.582348204607
8	3050	1679.889422185002	27.692593728053
8	3055	1681.627463717939	28.693420236962
8	3060	1684.13121911303	24.810431827762
8	3061	1686.701223093893	25.774737263063
8	3064	1687.778458529093	25.985654166032
8	3067	1688.123837744208	24.966195396317
8	3068	1688.601074106743	24.430535497433
8	3069	1689.201440609524	24.962429812515
8	3070	1689.302820329284	20.655754443347
8	3071	1689.470220065705	17.851882713053
8	3072	1690.185821290234	15.021205906961
8	3082	1694.399543850423	14.672505942633
8	3089	1699.698168017471	19.856960601945
8	3094	1700.356563979004	19.479368933491
8	3097	1702.143384858067	20.84075197809
8	3100	1703.09550847788	21.196487309939
8	3101	1703.22581589886	19.377664498074
8	3105	1704.690426151703	16.7280164294
8	3108	1706.082544601057	15.433328321255
8	3109	1707.096653817703	14.201191620348
8	3110	1707.438316197798	14.124604717943
8	3113	1709.970965515152	15.89433181469
8	3114	1710.531359723952	15.035093586244
8	3117	1711.684761971555	15.113362291325
8	3118	1711.736455763174	12.646017040795
8	3128	1716.769948887747	16.515609617625
8	3129	1717.029279621852	15.022946467468
8	3132	1718.050638762989	15.470154537033
8	3133	1718.166007484625	14.936925043179
8	3136	1720.20291804705	15.36380394748
8	3139	1720.740470123217	13.28212055631
8	3144	1721.224418678233	9.810336457918
8	3145	1721.603373478434	9.527825412332
8	3163	1729.615012699157	13.698701287909
8	3164	1730.743894498843	14.001900657863
8	3165	1730.894021448917	12.93548348377
8	3166	1732.05194159644	12.021055451822
8	3167	1733.326177358783	12.752981141618
8	3172	1733.788051135181	12.922411299742
8	3173	1734.138474752289	12.920186703459
8	3176	1734.351910860503	12.377557865869
8	3177	1736.561539342343	14.404740703547
8	3193	1747.809579757788	20.865606144389
8	3233	1772.704137871149	43.549091620954
8	3234	1773.571136543883	44.052511283934
8	3235	1774.021791569738	44.492131639755
8	3236	1774.109887204591	40.734781150801
8	3239	1775.375627752812	41.87440020979
8	3278	1802.595197180099	65.215082853512
8	3279	1806.173934045242	64.488417978054
8	3280	1806.367087395658	61.546419736808
8	3281	1807.20518286282	61.521831297142
8	3286	1808.119421676017	61.398656831708
8	3289	1808.990580080995	61.479664153359
8	3290	1809.509694444214	61.986543758358
8	3297	1812.048602958897	63.390830041206
8	3300	1813.544590924281	64.743082556779
8	3301	1813.607668439087	64.583063425014
8	3302	1814.024692217563	63.370977010804
8	3303	1814.58724437899	58.932360728931
8	3304	1815.089182547643	57.666175985439
8	3305	1815.34794472117	55.869148212305
8	3306	1816.052352416339	56.433579478978
8	3307	1816.055800560081	55.122257596747
8	3310	1817.672964695372	55.316904684993
8	3311	1817.675389523278	47.34050994545
8	3312	1817.952691484171	47.105278141135
8	3313	1818.130778713814	46.754292346125
8	3314	1819.566115408694	44.739383857187
8	3315	1821.315237685602	45.795043253709
8	3316	1821.39127800967	44.956228360302
8	3317	1823.848409424722	37.452731854364
8	3320	1824.280097798935	36.789366577563
8	3321	1825.304938897785	36.740944227547
8	3322	1825.774411615936	35.785099006058
8	3323	1826.042124908517	35.334201508301
8	3324	1826.22673289865	35.483807454332
8	3327	1828.067993859639	36.889561316917
8	3328	1828.091530832179	36.253791949562
8	3329	1828.296751540001	36.093380968451
8	3332	1828.736477484501	34.034025423076
8	3333	1828.929938289144	31.155059938261
8	3334	1829.307941929459	31.322893936627
8	3337	1829.786119380147	31.343465641635
8	3340	1830.712421644823	29.364227299411
8	3345	1831.981675020375	30.255377747947
8	3346	1832.682158208142	25.439703051717
8	3347	1832.952723134597	25.077112402095
8	3348	1833.01325178424	24.37457976202
8	3349	1833.929376958943	23.388503892533
8	3352	1834.763854488077	23.532359348661
8	3355	1837.928014832642	26.183034497136
8	3358	1838.985050376479	26.071295617295
8	3363	1839.375828242	21.876988246351
8	3364	1840.718673885214	16.62826470044
8	3365	1841.881740107685	14.714398532589
8	3366	1841.907212849743	13.209519951582
8	3367	1842.134362886455	12.704707583891
8	3368	1842.653298972949	12.341047546286
8	3371	1845.640175982475	14.447560030215
8	3372	1846.150497055898	14.172481798002
8	3373	1846.973998683237	12.92003888728
8	3376	1847.706541517504	12.694866659541
8	3377	1847.731224814165	9.054570641116
8	3380	1850.482164396621	11.404510571102
8	3381	1850.55150699954	11.288929108398
8	3382	1851.06083546529	7.284628017192
8	3383	1852.903211697845	5.571191889161
8	3384	1853.285356994819	5.489108530116
8	3387	1854.363647903244	0.940924273684
8	3392	1855.700187189035	0.923076773085
8	3393	1856.478210928301	1.020241479653
8	3396	1858.994822009285	0.244084448273
8	3399	1859.450233929944	0.445805695081
8	3554	1973.121655839923	109.80599158267
8	3566	1981.983143600925	111.09653872447
8	3567	1983.626208164228	112.55915281822
8	3568	1984.502845429398	113.30477540037
8	3569	1985.54512866484	113.84165365835
8	3572	1986.03576897624	109.53895369213
8	3573	1986.19572217701	108.6693538421
8	3579	1992.298088656688	109.62574777984
8	3584	1992.922209059302	108.78006644734
8	3585	1993.536959171049	106.13475539391
8	3586	1993.850346530691	106.00414604394
8	3589	1995.171369501517	107.09310689324
8	3590	1995.655920974469	106.3831239231
8	3591	1996.460968664218	100.68896829386
8	3592	1996.554345769592	95.507265378917
9	22	6.532522407547	0
9	39	19.640526760632	0
9	79	43.997856644359	0
9	100	57.308381377417	0
9	123	69.03369837455	0
9	128	77.924771618094	5.713440925256
9	133	81.602954069946	0.490731500537
9	178	106.010223866391	0
9	189	111.772731558927	5.692695740784
9	212	132.200617245344	0
9	235	149.729547729568	12.243286348814
9	240	152.138659667792	6.947813523503
9	251	158.107447191816	4.349569988257
9	266	167.805617722429	7.582909039973
9	271	171.769616421307	5.322624981381
9	288	177.118024025418	0
9	293	181.046980286588	3.266590805229
9	308	188.496091209114	2.859519897215
9	313	190.585632137794	1.180483289724
9	321	194.847213968937	0
9	335	201.032584695923	0
9	344	202.888141836314	1.493290186416
9	393	235.592402337853	0
9	427	250.666567690216	0
9	433	255.011536463939	0
9	458	264.723868562254	0
9	488	278.714125794658	0
9	495	282.548604185971	0
9	511	291.164741354433	0
9	548	316.682059209847	0
9	563	324.887148065795	0
9	572	327.132305626783	2.012130823549
9	581	335.004656322293	8.727865979773
9	586	338.727523523203	9.567570345974
9	611	350.05389102412	0
9	658	379.985187001105	22.610966810004
9	659	380.335675629827	19.522876045466
9	660	380.700136098065	18.818857369396
9	728	425.94117207223	0
9	735	429.009802850722	2.801181761553
9	787	451.047755281406	0
9	848	483.383549883918	0
9	864	489.858264129287	0
9	880	498.921113514156	0
9	897	507.526936295693	0
9	937	523.851119266377	0
9	959	534.125753209794	0
9	972	540.021834476279	0
9	977	541.360832099819	0
9	994	555.057694659379	0
9	1013	561.180864569586	0
9	1028	578.448676083777	0
9	1047	591.034906697423	0
9	1056	597.532701711152	4.787449233747
9	1091	620.537696346895	0
9	1097	623.566796746956	0
9	1111	627.408583265208	0
9	1160	646.014496740473	0
9	1209	671.741962264516	0
9	1226	680.737196029964	0
9	1229	683.254589737641	2.169277302704
9	1244	693.537038136974	0
9	1251	695.267836498353	0
9	1266	703.619362704738	6.071861224105
9	1278	709.869376490431	0
9	1285	712.45943866304	2.264354801844
9	1292	715.490092434935	2.048897465077
9	1297	722.194839203312	6.751127262728
9	1316	735.384917303196	14.37543924427
9	1325	740.71429756368	10.680126697626
9	1340	746.729397830717	3.198281770431
9	1397	780.580159717026	0
9	1402	785.421761978973	3.911373571351
9	1415	790.704505613681	4.450871509469
9	1420	796.22167602077	7.83472235954
9	1421	798.179036318552	8.709487058018
9	1434	805.715399291981	0
9	1464	820.014752253472	0
9	1483	825.731650980572	4.456640964834
9	1494	831.093614272489	7.578607358049
9	1500	832.337603466235	0
9	1513	839.386059249596	0
9	1522	842.4872150729	2.75892219904
9	1537	848.77269776094	0
9	1567	862.160103814598	0
9	1632	893.040080323927	0
9	1646	904.665220315402	0
9	1659	909.249922282846	0
9	1670	920.786859361628	0
9	1681	923.564143578079	0
9	1700	934.018376045001	4.843406965825
9	1709	941.489178495016	4.110476505912
9	1715	945.901321612401	0
9	1731	956.072069536213	0
9	1763	973.59100891197	0
9	1769	974.769284982384	0
9	1788	986.315220185176	0
9	1807	999.031400654607	11.781066673449
9	1845	1025.041213244173	0
9	1858	1031.06390678319	5.801442490996
9	1882	1037.430405147414	0
9	1918	1055.989812688804	0
9	1933	1066.274397525714	0
9	1958	1079.061521979862	9.709354909701
9	1975	1096.290493988111	5.021488140903
9	1982	1103.174665659729	3.061852986108
9	2005	1110.067723560493	0
9	2019	1118.147905383866	0
9	2093	1154.855335102551	0
9	2163	1197.20992388781	0
9	2182	1210.334210569313	10.470966254362
9	2203	1215.948208455305	0
9	2222	1226.671278480035	0
9	2243	1233.539693213833	0
9	2256	1237.981219002934	0
9	2288	1252.402196851847	0
9	2306	1260.363513267216	0
9	2315	1268.750944465337	0
9	2324	1274.240647577158	0
9	2327	1275.32613888564	0
9	2330	1283.376522223007	6.420305511709
9	2345	1295.084159708748	7.629876173867
9	2364	1309.462549145094	8.8590668165
9	2395	1337.228203463878	18.905891606571
9	2398	1340.413343862027	14.982773846454
9	2407	1348.674861531357	2.879252418853
9	2412	1351.990613073663	1.199634243801
9	2421	1354.177211628685	0
9	2432	1360.37160140262	0
9	2437	1364.317014616941	0
9	2462	1374.779105556064	7.063422866907
9	2470	1376.604344101599	0
9	2493	1397.196150926087	13.474391461311
9	2496	1399.820018687637	9.459309135087
9	2513	1408.430942010037	0
9	2545	1421.445886332972	0
9	2562	1430.83511747725	0.09078260052
9	2610	1456.329065715537	0
9	2665	1481.165265425747	0
9	2677	1486.821614067659	0
9	2693	1494.186940554983	0
9	2706	1498.046600892016	0
9	2721	1504.759149763816	0
9	2760	1525.723642983715	0
9	2765	1529.308741021407	0
9	2786	1544.730468830729	0
9	2807	1554.487170610149	0
9	2818	1559.674877872329	0
9	2826	1563.38360289493	0
9	2831	1563.878702179113	0
9	2893	1596.869453670718	0
9	2903	1602.733163144976	0
9	2918	1613.258972205206	10.407327963024
9	2921	1614.984460257725	0.29004166344
9	2947	1631.188881746615	0
9	2980	1643.316780417968	0
9	3004	1652.934043480977	0
9	3007	1656.403526734723	1.68744318785
9	3022	1667.274289734451	0.393352423997
9	3074	1690.649216279802	0
9	3103	1703.229082441446	0
9	3122	1714.673907746703	0
9	3151	1723.306942793199	0
9	3179	1737.380114326587	0
9	3197	1748.801508367502	0
9	3204	1755.498718569398	2.495315645867
9	3223	1767.399093721899	9.301099811013
9	3224	1768.832062029039	2.822451272518
9	3225	1769.943186230953	3.221713906723
9	3241	1775.520194431893	0
9	3266	1795.471688263399	18.680444581577
9	3401	1860.724052119432	0
9	3408	1863.980766768078	2.656573694819
9	3461	1906.959284495175	45.476227460038
9	3464	1909.979977165587	44.549035615941
9	3475	1917.673375977867	42.055862532753
9	3476	1917.994189216163	39.747895669331
9	3479	1920.57316250958	37.730763695106
9	3490	1929.319384340623	38.83965806617
9	3493	1933.114320975286	35.197524609278
9	3504	1942.371878779855	31.315908226395
9	3507	1944.024975358291	31.9586626001
9	3512	1949.1223979655	33.436633120037
9	3515	1949.540173986201	33.535293710232
9	3516	1949.925031573649	24.291135992886
9	3521	1951.070897811685	4.911745548375
9	3538	1965.987748575331	14.909830549764
9	3547	1971.6877703768	3.410543239559
9	3548	1972.455447319645	3.993175906293
9	3556	1973.349627068628	0
9	3575	1986.252978293617	0
9	3594	1998.019358993612	0
10	23	8.812476395673	2.279953988126
10	40	20.804304396268	1.163777635636
10	94	55.902833786616	11.904977142257
10	103	60.178791331892	2.870409954475
10	128	77.924771618094	8.891073243544
10	133	81.602954069946	9.391623377108
10	134	82.052084511811	0.939861942402
10	189	111.772731558927	5.762507692536
10	192	116.694872996072	10.614837177929
10	235	149.729547729568	17.528930484224
10	240	152.138659667792	14.652398287038
10	251	158.107447191816	12.916601047527
10	266	167.805617722429	14.04774051887
10	271	171.769616421307	11.546907738851
10	276	175.782534108604	9.335542668678
10	293	181.046980286588	3.92895626117
10	308	188.496091209114	10.715701727755
10	313	190.585632137794	4.949060825895
10	314	192.794007456323	3.388858608253
10	326	196.902447195738	2.055233226801
10	344	202.888141836314	1.855557140391
10	345	203.821658954458	2.42680730456
10	396	236.714374361635	1.121972023782
10	430	253.065567985828	2.399000295612
10	438	257.121069224339	2.1095327604
10	473	273.142122252185	8.418253689931
10	493	281.804643080278	3.09051728562
10	496	282.596389962039	0.047785776068
10	530	302.039311615748	10.874570261315
10	549	317.382202822539	0.700143612692
10	572	327.132305626783	2.245157560988
10	581	335.004656322293	9.884481519059
10	586	338.727523523203	12.450733180683
10	593	342.589092990262	13.429139813033
10	658	379.985187001105	29.931295976985
10	659	380.335675629827	22.961455438726
10	660	380.700136098065	19.887336513704
10	671	396.520789884675	34.639511156006
10	735	429.009802850722	3.068630778492
10	740	435.535098201348	9.326477112179
10	790	451.910059818037	0.862304536631
10	861	488.596328276755	5.212778392837
10	871	495.332363238392	5.474099109105
10	889	503.255724942551	4.334611428395
10	900	508.277960629747	0.751024334054
10	942	527.729398080387	3.87827881401
10	966	537.531035598889	3.405282389095
10	975	540.99255674728	0.970722271001
10	978	545.834080109751	4.473248009932
10	1001	557.037364055884	1.979669396505
10	1016	567.189592050115	6.008727480529
10	1035	585.920542234993	7.471866151216
10	1056	597.532701711152	6.497795013729
10	1057	598.086123737219	5.340871259814
10	1094	622.786687153162	2.248990806267
10	1098	623.640906604841	0.074109857885
10	1120	632.433827975494	5.025244710286
10	1161	646.804680365085	0.790183624612
10	1214	674.608218311475	2.866256046959
10	1229	683.254589737641	2.517393707677
10	1232	686.359249516201	5.273937081264
10	1249	695.263807962348	1.726769825374
10	1266	703.619362704738	8.351526206385
10	1267	704.531901871016	6.984400390383
10	1285	712.45943866304	2.590062172609
10	1292	715.490092434935	5.295008573739
10	1297	722.194839203312	8.753644233454
10	1316	735.384917303196	19.941205362612
10	1325	740.71429756368	19.704819504754
10	1340	746.729397830717	16.695226964663
10	1343	750.547846034449	7.016729974163
10	1402	785.421761978973	4.841602261947
10	1415	790.704505613681	9.194117206059
10	1420	796.22167602077	9.968041916558
10	1421	798.179036318552	9.792082657322
10	1426	800.781032608467	11.311483347933
10	1439	813.271731642612	7.556332350631
10	1483	825.731650980572	5.7168987271
10	1494	831.093614272489	9.818604256751
10	1495	831.586241891654	8.071234977214
10	1501	833.407948560684	1.070345094449
10	1522	842.4872150729	3.101155823304
10	1525	844.157107758637	4.428814884777
10	1538	849.959455796763	1.186758035823
10	1576	868.435235971807	6.275132157209
10	1635	900.355682578488	7.315602254561
10	1649	905.264425994944	0.599205679542
10	1666	918.949383693958	9.699461411112
10	1677	922.647260201279	1.860400839651
10	1700	934.018376045001	10.454232466922
10	1709	941.489178495016	12.31420941584
10	1710	943.723157135304	6.3444551462
10	1716	949.04087980608	3.139558193679
10	1736	961.327221463457	5.255151927244
10	1764	973.743341166835	0.152332254865
10	1770	975.217738830035	0.448453847651
10	1807	999.031400654607	12.716180469431
10	1808	1000.287568822726	13.037234841568
10	1858	1031.06390678319	6.022693539017
10	1859	1031.176143161853	5.913678869659
10	1883	1038.456708759909	1.026303612495
10	1919	1057.952901507536	1.963088818732
10	1958	1079.061521979862	12.787124454148
10	1975	1096.290493988111	26.93832691795
10	1982	1103.174665659729	11.905659812521
10	1983	1103.452069452228	3.339256778607
10	2006	1111.776027826518	1.708304266025
10	2024	1123.529995503206	5.38209011934
10	2100	1162.36404504093	7.508709938379
10	2182	1210.334210569313	13.124286681503
10	2183	1210.543533739501	10.68028942455
10	2212	1222.954693651883	7.006485196578
10	2225	1227.992145899037	1.320867419002
10	2248	1235.135571501919	1.595878288086
10	2257	1239.505958475928	1.524739472994
10	2291	1254.035675345299	1.633478493452
10	2309	1267.28865585872	6.925142591504
10	2316	1269.424644767281	0.673700301944
10	2325	1274.832630648639	0.591983071481
10	2330	1283.376522223007	8.050383337367
10	2345	1295.084159708748	18.12794299745
10	2364	1309.462549145094	22.008265610213
10	2395	1337.228203463878	36.624721135284
10	2398	1340.413343862027	22.09103200472
10	2407	1348.674861531357	23.244291515784
10	2412	1351.990613073663	6.195003961159
10	2419	1354.087921677567	3.296942847705
10	2428	1358.854968863408	4.677757234723
10	2433	1362.039384561544	1.667783158924
10	2462	1374.779105556064	10.462090939123
10	2465	1375.614168113666	7.898485424509
10	2493	1397.196150926087	20.591806824488
10	2496	1399.820018687637	16.098259222861
10	2499	1402.986909457724	12.626199905174
10	2522	1411.815346257156	3.384404247119
10	2562	1430.83511747725	9.389231144278
10	2563	1432.946764207478	2.202429330748
10	2613	1457.075526070213	0.746460354676
10	2668	1483.516239026995	2.350973601248
10	2678	1487.445224068982	0.623610001323
10	2696	1495.284773739256	1.097833184273
10	2707	1498.156281740954	0.109680848938
10	2726	1507.758146640809	2.998996876993
10	2761	1527.757806788762	2.034163805047
10	2772	1538.368292513863	9.059551492456
10	2787	1546.692840104484	1.962371273755
10	2810	1555.139444507827	0.652273897678
10	2821	1561.701705983303	2.026828110974
10	2827	1563.718870360086	0.335267465156
10	2832	1564.079484702763	0.20078252365
10	2896	1600.87633385012	4.006880179402
10	2918	1613.258972205206	10.52580906023
10	2921	1614.984460257725	12.132816015543
10	2926	1616.154909312855	1.46049071857
10	2948	1631.224206923705	0.03532517709
10	2985	1644.180398786053	0.863618368085
10	3007	1656.403526734723	3.469483253746
10	3022	1667.274289734451	12.558206187578
10	3023	1668.531137516518	1.650200206064
10	3081	1694.38940528267	3.740189002868
10	3104	1703.487320377459	0.258237936013
10	3125	1716.149207813053	1.47530006635
10	3154	1728.066378965216	4.759436172017
10	3192	1747.653768028531	10.273653701944
10	3204	1755.498718569398	6.697210201896
10	3223	1767.399093721899	14.395690798368
10	3224	1768.832062029039	10.734068118153
10	3225	1769.943186230953	3.933575474432
10	3232	1771.745522732187	5.024050407957
10	3266	1795.471688263399	19.951493831506
10	3267	1797.00787451675	20.216630834928
10	3408	1863.980766768078	3.256714648646
10	3461	1906.959284495175	45.635091421916
10	3464	1909.979977165587	48.49692013045
10	3475	1917.673375977867	52.242434428221
10	3476	1917.994189216163	42.376675771049
10	3479	1920.57316250958	42.326868962748
10	3490	1929.319384340623	46.476985526149
10	3493	1933.114320975286	42.634594700833
10	3504	1942.371878779855	44.455082413847
10	3507	1944.024975358291	32.969004804831
10	3512	1949.1223979655	37.056085207309
10	3515	1949.540173986201	33.854409140738
10	3516	1949.925031573649	33.92015129768
10	3521	1951.070897811685	25.437002230922
10	3538	1965.987748575331	19.828596312021
10	3547	1971.6877703768	20.609852351233
10	3548	1972.455447319645	4.178220182404
10	3549	1972.700708124094	4.238436710742
10	3561	1981.155861947071	7.806234878443
10	3576	1991.026143824573	4.773165530956
11	3601	2000	0.4885
12	3601	2000	0.0955

