file 224481 1671201042                                          
version 2
run Continuity_test_mean_response_time-7-20221216-15:30:42-5185
attr configname Continuity_test_mean_response_time
attr datetime 20221216-15:30:42
attr experiment Continuity_test_mean_response_time
attr inifile omnetpp.ini
attr iterationvars $0=5
attr iterationvarsf 5-
attr measurement $0=5
attr network Network
attr processid 5185
attr repetition 7
attr replication #7
attr resultdir results
attr runnumber 7
attr seedset 7
param *.minion.arrival_mean 2
param *.minion.service_mean 1
param *.boss.arrival_mean 10
param *.boss.service_mean 5
param *.player.recover_rate_x 100
param **.minion.arrival_distribution 0
param **.minion.service_distribution 0
param **.boss.arrival_distribution 0
param **.boss.service_distribution 0

vector 0 Network.player minion_jobs_number_stat:vector ETV
attr source signal_minion_jobs_number
vector 1 Network.player minion_jobs_queue_number_stat:vector ETV
attr source signal_minion_jobs_queue_number
vector 2 Network.player minion_recovered_stat:vector ETV
attr source signal_minion_recovered
vector 3 Network.player minion_defeated_stat:vector ETV
attr source signal_minion_defeated
vector 4 Network.player boss_jobs_number_stat:vector ETV
attr source signal_boss_jobs_number
vector 5 Network.player boss_jobs_queue_number_stat:vector ETV
attr source signal_boss_jobs_queue_number
vector 6 Network.player boss_defeated_stat:vector ETV
attr source signal_boss_defeated
vector 7 Network.player minion_waiting_time_stat:vector ETV
attr source signal_minion_waiting_time
vector 8 Network.player minion_response_time_stat:vector ETV
attr source signal_minion_response_time
vector 9 Network.player boss_waiting_time_stat:vector ETV
attr source signal_boss_waiting_time
vector 10 Network.player boss_response_time_stat:vector ETV
attr source signal_boss_response_time
vector 11 Network.player minion_throughput:vector ETV
attr source signal_minion_throughput
vector 12 Network.player boss_throughput:vector ETV
attr source signal_boss_throughput
0	1986 26930 0 3563 0 1999.962846164365 1006 0 68 17824 457504
1	28916 51952 0 3563 0 1999.962846164365 1943 0 67 31360 743212
2	80868 2809 0 3523 0 1965.762866538921 104 0 103 5356 369564
3	83677 26170 0 3514 0 1961.929261701144 938 0 937 439453 274658125
4	109847 5384 0 3543 0 1984.764803996667 207 0 6 352 792
5	115231 10700 0 3553 0 1989.901755278929 411 0 5 291 587
6	125931 5624 0 3553 0 1989.901755278929 205 0 204 20910 2850730
7	131555 40877 2 3519 2.611374330209 1964.2708886624 1040 0 93.522593829387 28771.094847167 1184473.0109468
8	172432 37241 5 3514 4.604711459031 1961.929261701144 937 0.016824847556 94.770223563315 26971.946794435 1128285.1478495
9	209673 6562 23 3553 10.332278047093 1989.901755278929 205 0 25.953201886446 550.29008069266 5921.4148030252
10	216235 8206 28 3553 12.017016574734 1989.901755278929 204 0.037071672285 31.162251965924 1434.5406202532 18000.463380694
11	224441 20 3564 3564 2000 2000 1 0.4685 0.4685 0.4685 0.21949225
12	224461 19 3564 3564 2000 2000 1 0.102 0.102 0.102 0.010404

