file 227903 1671201043                                          
version 2
run Continuity_test_mean_response_time-12-20221216-15:30:43-5211
attr configname Continuity_test_mean_response_time
attr datetime 20221216-15:30:43
attr experiment Continuity_test_mean_response_time
attr inifile omnetpp.ini
attr iterationvars $0=5
attr iterationvarsf 5-
attr measurement $0=5
attr network Network
attr processid 5211
attr repetition 12
attr replication #12
attr resultdir results
attr runnumber 12
attr seedset 12
param *.minion.arrival_mean 2
param *.minion.service_mean 1
param *.boss.arrival_mean 10
param *.boss.service_mean 5
param *.player.recover_rate_x 100
param **.minion.arrival_distribution 0
param **.minion.service_distribution 0
param **.boss.arrival_distribution 0
param **.boss.service_distribution 0

vector 0 Network.player minion_jobs_number_stat:vector ETV
attr source signal_minion_jobs_number
vector 1 Network.player minion_jobs_queue_number_stat:vector ETV
attr source signal_minion_jobs_queue_number
vector 2 Network.player minion_recovered_stat:vector ETV
attr source signal_minion_recovered
vector 3 Network.player minion_defeated_stat:vector ETV
attr source signal_minion_defeated
vector 4 Network.player boss_jobs_number_stat:vector ETV
attr source signal_boss_jobs_number
vector 5 Network.player boss_jobs_queue_number_stat:vector ETV
attr source signal_boss_jobs_queue_number
vector 6 Network.player boss_defeated_stat:vector ETV
attr source signal_boss_defeated
vector 7 Network.player minion_waiting_time_stat:vector ETV
attr source signal_minion_waiting_time
vector 8 Network.player minion_response_time_stat:vector ETV
attr source signal_minion_response_time
vector 9 Network.player boss_waiting_time_stat:vector ETV
attr source signal_boss_waiting_time
vector 10 Network.player boss_response_time_stat:vector ETV
attr source signal_boss_response_time
vector 11 Network.player minion_throughput:vector ETV
attr source signal_minion_throughput
vector 12 Network.player boss_throughput:vector ETV
attr source signal_boss_throughput
0	1991 26871 0 3584 0 1998.785080488527 1013 0 46 12766 268436
1	28862 53543 0 3584 0 1998.785080488527 2018 0 45 23487 487741
2	82405 2511 0 3572 0 1988.920092430572 94 0 93 4371 272459
3	84916 28135 0 3564 0 1987.780014186514 1006 0 1005 505515 338863555
4	113051 4833 0 3580 0 1997.098457862832 187 0 5 308 668
5	117884 9585 0 3580 0 1997.098457862832 370 0 4 241 471
6	127469 5018 0 3525 0 1971.352552610454 184 0 183 16836 2059604
7	132487 42449 2 3566 0.035290059387 1988.416667578501 1098 0 86.616785962734 22475.103952928 857047.19257455
8	174936 39812 3 3564 0.393343745718 1987.780014186514 1005 0.000469722726 88.726049708863 21876.422111956 846077.31849938
9	214748 5781 13 3572 6.824083454122 1988.920092430572 184 0 23.9045733649 461.88382980384 4559.3050404866
10	220529 7333 28 3525 12.454999234725 1971.352552610454 183 0.030087313309 30.401331750173 1253.0793234935 15260.479957387
11	227862 20 3585 3585 2000 2000 1 0.5025 0.5025 0.5025 0.25250625
12	227882 20 3585 3585 2000 2000 1 0.0915 0.0915 0.0915 0.00837225

