version 2
run Continuity_test_mean_response_time-108-20221216-15:31:02-5701
attr configname Continuity_test_mean_response_time
attr datetime 20221216-15:31:02
attr experiment Continuity_test_mean_response_time
attr inifile omnetpp.ini
attr iterationvars $0=5.2
attr iterationvarsf 5.2-
attr measurement $0=5.2
attr network Network
attr processid 5701
attr repetition 8
attr replication #8
attr resultdir results
attr runnumber 108
attr seedset 8
param *.minion.arrival_mean 2
param *.minion.service_mean 1
param *.boss.arrival_mean 10
param *.boss.service_mean 5.2
param *.player.recover_rate_x 100
param **.minion.arrival_distribution 0
param **.minion.service_distribution 0
param **.boss.arrival_distribution 0
param **.boss.service_distribution 0

vector 0 Network.player minion_jobs_number_stat:vector ETV
attr source signal_minion_jobs_number
vector 1 Network.player minion_jobs_queue_number_stat:vector ETV
attr source signal_minion_jobs_queue_number
vector 2 Network.player minion_recovered_stat:vector ETV
attr source signal_minion_recovered
vector 3 Network.player minion_defeated_stat:vector ETV
attr source signal_minion_defeated
vector 4 Network.player boss_jobs_number_stat:vector ETV
attr source signal_boss_jobs_number
vector 5 Network.player boss_jobs_queue_number_stat:vector ETV
attr source signal_boss_jobs_queue_number
vector 6 Network.player boss_defeated_stat:vector ETV
attr source signal_boss_defeated
vector 7 Network.player boss_waiting_time_stat:vector ETV
attr source signal_boss_waiting_time
vector 8 Network.player boss_response_time_stat:vector ETV
attr source signal_boss_response_time
vector 9 Network.player minion_waiting_time_stat:vector ETV
attr source signal_minion_waiting_time
vector 10 Network.player minion_response_time_stat:vector ETV
attr source signal_minion_response_time
vector 11 Network.player minion_throughput:vector ETV
attr source signal_minion_throughput
vector 12 Network.player boss_throughput:vector ETV
attr source signal_boss_throughput
0	0	0	0
0	7	3.916420786547	1
0	9	4.039440899453	2
0	11	4.97213722628	3
0	13	6.065174040816	4
0	17	7.685114913974	4
0	20	8.487228752263	4
0	26	14.718809245391	1
0	29	17.52362218543	1
0	35	20.192313701415	1
0	38	22.823909270233	1
0	44	26.211779377177	2
0	46	27.08445638231	3
0	48	27.297593444806	4
0	50	28.515053303549	5
0	59	33.790835300742	4
0	63	34.462500739458	3
0	66	36.341154640149	3
0	68	39.245865600499	4
0	73	41.061288052722	4
0	79	44.570898669436	2
0	81	44.763445052567	3
0	83	44.842573940862	4
0	88	45.689382785273	4
0	93	46.441099235687	5
0	97	48.614975741388	6
0	99	52.99772338337	7
0	101	54.163489342747	8
0	104	57.934152714679	9
0	106	59.537791441261	10
0	109	62.010416445659	11
0	113	64.443266380155	10
0	117	67.335887240463	9
0	119	69.116164787222	10
0	121	69.431091611405	11
0	123	69.533536640825	12
0	129	71.007840450492	9
0	134	72.657962910193	7
0	136	73.566185999993	8
0	141	76.474120501332	9
0	152	87.334354788419	1
0	156	92.170533724565	2
0	160	93.274807509172	2
0	162	93.469834597367	3
0	169	100.708213368503	4
0	174	105.364458045197	5
0	179	106.568379178766	6
0	181	107.80431167298	7
0	187	108.745904670224	7
0	189	109.948932067724	8
0	191	109.951530422823	9
0	203	124.875525983466	1
0	208	125.275402291493	1
0	210	125.629888227261	2
0	212	129.20827862321	3
0	216	131.679691282266	4
0	218	131.9381848613	5
0	220	132.288378083977	6
0	222	134.720317644277	7
0	225	138.049973278596	8
0	227	140.655119970716	9
0	229	140.726679361575	10
0	237	145.878125308512	10
0	239	147.409073929416	11
0	241	148.6771040695	12
0	243	149.041347527685	13
0	245	149.549259677104	14
0	247	150.286784741763	15
0	249	151.636951729901	16
0	251	151.729170322386	17
0	253	153.986194605207	18
0	255	154.531324760706	19
0	257	156.521107740323	20
0	261	158.767949923627	21
0	263	159.649199077165	22
0	265	162.699234073917	23
0	267	162.83718454632	24
0	269	165.213394164485	25
0	273	169.635901333613	26
0	275	170.433737854298	27
0	278	173.803311689383	28
0	280	175.165874865628	29
0	282	177.292229063062	30
0	284	178.777413905937	31
0	287	180.166648872514	32
0	289	180.875835229855	33
0	291	183.014145288756	34
0	293	184.258062457946	35
0	295	185.251840842942	36
0	306	193.622694961457	33
0	309	194.411969346081	33
0	313	195.802808541319	32
0	315	197.280317982108	33
0	317	198.295554363789	34
0	320	199.314664008198	34
0	324	201.917874359438	33
0	327	205.458652105786	33
0	334	209.439038368058	31
0	336	210.317684428121	32
0	338	210.370720532653	33
0	340	213.914061897477	34
0	342	214.599090918601	35
0	344	214.865955416477	36
0	346	217.978405681223	37
0	348	219.257350197568	38
0	350	220.479082930853	39
0	354	221.717912294478	39
0	356	221.731817469004	40
0	367	226.414521502554	32
0	370	227.501685640937	32
0	372	228.153045953947	33
0	378	228.956016311863	32
0	380	230.372269576727	33
0	382	232.225720177658	34
0	384	238.036456951592	35
0	388	238.821418998324	36
0	390	239.162034121545	37
0	395	247.115272085799	38
0	398	249.150113588012	39
0	400	250.924703715192	40
0	402	259.515360265466	41
0	406	259.796396208249	42
0	409	261.034806114493	43
0	414	262.506822389137	42
0	419	265.058928104672	42
0	421	265.945194757476	43
0	423	267.583669273007	44
0	425	267.613896501144	45
0	431	272.001737051345	43
0	433	272.204540228746	44
0	445	280.056820455543	35
0	451	283.123949361086	34
0	453	283.792026000901	35
0	455	284.905775754088	36
0	457	286.143763218409	37
0	459	286.584936421542	38
0	461	291.311512737905	39
0	463	293.268385079793	40
0	465	299.313829705979	41
0	467	301.358738035055	42
0	469	303.693157546918	43
0	471	304.324505301167	44
0	475	307.447376529012	44
0	477	307.72548180428	45
0	487	313.761155247767	44
0	489	315.041214192058	45
0	493	317.519505906453	44
0	495	318.510153624178	45
0	497	318.957050939666	46
0	503	319.995707987685	43
0	510	323.280993777094	39
0	513	324.224681355729	39
0	516	326.250950082845	39
0	518	326.942066153179	40
0	524	330.508641499949	39
0	526	332.11850964184	40
0	528	332.335344281	41
0	530	333.463746500876	42
0	532	333.767999734626	43
0	534	336.830747569485	44
0	536	337.077453945858	45
0	538	339.490560847382	46
0	540	340.312311871691	47
0	542	343.308189580919	48
0	544	343.826429371891	49
0	546	344.50530534665	50
0	550	346.60940740959	51
0	552	347.081648553047	52
0	554	348.140943655773	53
0	556	349.543760155673	54
0	560	352.333181774688	55
0	562	352.618903067295	56
0	564	352.642751544675	57
0	566	353.018699850074	58
0	568	353.09400268261	59
0	570	353.657307826564	60
0	574	355.719901715601	61
0	576	355.807102456581	62
0	578	357.620128082388	63
0	580	358.133494771721	64
0	582	358.670617077942	65
0	586	360.636184051116	66
0	590	362.545909558653	67
0	592	364.557919448585	68
0	594	365.545908491281	69
0	599	367.06850219556	70
0	601	369.263176013343	71
0	603	371.922138824471	72
0	605	373.34171649595	73
0	607	376.718306398117	74
0	609	377.493446818173	75
0	611	378.432993890857	76
0	613	379.397612465772	77
0	617	382.666329316104	78
0	621	383.647910713815	79
0	623	387.882602964898	80
0	629	392.381242743408	81
0	631	394.149321823634	82
0	633	396.048876198007	83
0	636	398.182216169988	84
0	640	400.445303750566	85
0	642	401.13151359358	86
0	644	401.41531705397	87
0	646	402.398563387381	88
0	648	403.063701287426	89
0	650	403.33604071065	90
0	652	403.391761761187	91
0	654	403.87033687275	92
0	656	404.46412300138	93
0	659	407.277555431556	94
0	662	408.032072719437	95
0	666	409.76170338167	96
0	668	409.953662169878	97
0	671	411.952092428327	98
0	673	412.381589147442	99
0	678	418.701030490526	100
0	680	419.445990032409	101
0	682	419.643981368745	102
0	684	421.076747642662	103
0	686	421.350053035053	104
0	690	422.247311449222	105
0	692	423.291339164035	106
0	695	426.032458494153	107
0	697	426.536366255475	108
0	702	427.853241171213	109
0	704	429.370082826348	110
0	706	431.042935645669	111
0	710	434.593672383311	112
0	715	442.047173147815	113
0	720	443.90094409368	111
0	723	445.240475048691	111
0	725	445.650565391983	112
0	727	446.237808710915	113
0	731	447.198105831893	112
0	738	454.863212470444	108
0	740	455.529873171505	109
0	742	455.873874324998	110
0	746	458.304025755451	109
0	751	460.401921937195	109
0	753	460.987439655972	110
0	755	461.001483054972	111
0	758	463.867341214548	112
0	760	464.052490251005	113
0	762	464.701331528679	114
0	766	465.805263696869	113
0	770	465.897604603246	114
0	774	467.576741402589	115
0	781	473.290613608975	113
0	785	475.376632041809	112
0	788	476.828961612593	112
0	790	477.063798806239	113
0	793	479.767104600048	113
0	796	480.556172591671	113
0	800	482.380821434645	112
0	807	489.417868435504	108
0	818	499.989878340888	100
0	820	500.259879692862	101
0	822	500.607597358181	102
0	824	500.655858299092	103
0	826	501.737096666521	104
0	832	505.424032087661	101
0	836	506.80773772192	100
0	839	507.255741666725	100
0	843	509.550390246772	99
0	847	510.701934371821	98
0	853	513.423678443141	95
0	857	513.974377652572	94
0	859	514.067950322396	95
0	861	514.282407945335	96
0	865	515.951825759665	95
0	867	516.298205345638	96
0	871	522.374517034523	95
0	873	522.464371237559	96
0	877	526.497610077274	95
0	882	527.118269385463	93
0	884	527.579577130161	94
0	892	531.682919477915	91
0	894	533.572426542712	92
0	896	533.946482933972	93
0	898	535.042532999748	94
0	900	535.233834069005	95
0	902	536.430510006116	96
0	907	538.744643684094	95
0	909	538.834649453024	96
0	913	541.968491404339	95
0	915	541.982230158334	96
0	917	542.70474126349	97
0	920	544.124719196285	97
0	927	547.4434074662	93
0	929	548.428209260346	94
0	931	548.530812501826	95
0	934	550.257999576215	95
0	936	550.762131300229	96
0	939	551.102598887422	96
0	943	553.049767566151	95
0	948	557.526889734878	95
0	950	559.072968219445	96
0	952	559.095286129854	97
0	954	561.626825473118	98
0	959	564.510238123991	97
0	970	568.696415504181	96
0	972	571.662530595221	97
0	974	572.109486800769	98
0	976	573.810456366762	99
0	980	574.783046611082	100
0	985	582.761934051697	101
0	987	583.731777848667	102
0	989	583.749208220343	103
0	998	599.942326828402	104
0	1000	600.244439951167	105
0	1002	601.677537830707	106
0	1004	602.158165395523	107
0	1006	602.715889031632	108
0	1009	603.975557974044	109
0	1011	605.393962808089	110
0	1017	608.695654294465	111
0	1019	609.60611134896	112
0	1022	611.444679598284	113
0	1024	613.320819634774	114
0	1026	614.388191922671	115
0	1030	617.44275636639	116
0	1032	618.363720736656	117
0	1035	619.774264056599	118
0	1038	622.107141231082	119
0	1040	623.398056328938	120
0	1043	625.341679239785	121
0	1046	626.886984002966	121
0	1051	630.000968821658	119
0	1053	630.054310925111	120
0	1055	630.233370954797	121
0	1058	631.332880528452	121
0	1060	631.438983731368	122
0	1063	633.717474812627	122
0	1065	634.702236641469	123
0	1070	637.201346972567	123
0	1072	638.493750006673	124
0	1074	639.969159033214	125
0	1080	642.873070723528	123
0	1083	645.986257074579	123
0	1085	647.640710094945	124
0	1093	648.997326593938	119
0	1095	649.473119210582	120
0	1098	650.782852779385	120
0	1105	655.795963815323	116
0	1108	658.104049466935	116
0	1110	658.524332781908	117
0	1114	662.084577891361	118
0	1116	662.624817825732	119
0	1118	663.104718275415	120
0	1120	663.408804231936	121
0	1122	663.764771872086	122
0	1124	664.185809481962	123
0	1126	669.198806345173	124
0	1130	671.609198276336	124
0	1136	675.535331549947	121
0	1139	677.21039460594	121
0	1143	678.968374890127	120
0	1148	681.493447362957	121
0	1156	688.194166821405	116
0	1158	688.560653061135	117
0	1161	689.302660000947	117
0	1164	690.607028643204	117
0	1166	691.424937515637	118
0	1169	695.148820229527	118
0	1172	698.446918390281	118
0	1179	700.054206775548	114
0	1187	704.762616470474	109
0	1197	708.914072462773	105
0	1203	715.683763283382	104
0	1205	715.773810485621	105
0	1207	716.068726673621	106
0	1209	716.743201098891	107
0	1211	717.474539836818	108
0	1213	718.203205139001	109
0	1215	719.535227932538	110
0	1219	723.431068214305	110
0	1221	725.013218450444	111
0	1225	727.607615085799	110
0	1227	727.675270854914	111
0	1231	728.543603612448	112
0	1234	730.480337703097	113
0	1237	731.598042291734	113
0	1243	734.143882947703	110
0	1250	737.728014886272	106
0	1255	739.452388340084	104
0	1257	739.644910464484	105
0	1260	740.279065626368	105
0	1262	740.711463441132	106
0	1264	741.204898971096	107
0	1267	741.880523112494	107
0	1270	742.031465557417	107
0	1275	743.670386114765	105
0	1285	749.35400080195	98
0	1287	749.727335813627	99
0	1289	750.576001050246	100
0	1292	751.017880793835	100
0	1294	752.157672428595	101
0	1302	757.141934249665	98
0	1304	759.339507287948	99
0	1306	759.513391091394	100
0	1308	759.768417884036	101
0	1310	761.133216728832	102
0	1314	765.465871825149	103
0	1316	767.182093215448	104
0	1318	771.250847057823	105
0	1320	771.351640898625	106
0	1322	772.552357328017	107
0	1327	778.835424781065	108
0	1329	778.960782877194	109
0	1331	779.3218646576	110
0	1333	780.489352757643	111
0	1335	780.646884623691	112
0	1337	782.183759622594	113
0	1339	784.892471924192	114
0	1342	788.08718558267	115
0	1347	789.913215783805	114
0	1351	791.412134132491	115
0	1353	795.15462289679	116
0	1355	795.766354242092	117
0	1357	799.668531654578	118
0	1359	800.779716990018	119
0	1361	805.403744806986	120
0	1365	808.33446811599	121
0	1368	810.188529587933	122
0	1371	814.662956548694	123
0	1373	815.043465570599	124
0	1378	818.635460041584	122
0	1383	822.161802435203	120
0	1385	823.075708355059	121
0	1389	823.690104814858	120
0	1393	825.184517064639	119
0	1396	825.906882127551	119
0	1400	827.149443761035	118
0	1402	827.413908261554	119
0	1405	827.54440003504	119
0	1407	828.104441922114	120
0	1409	828.1982557005	121
0	1412	829.961897103522	121
0	1415	830.499871602215	121
0	1417	831.105466210934	122
0	1423	835.36792976058	121
0	1425	835.828238389794	122
0	1427	837.068494041228	123
0	1432	841.605053110058	122
0	1436	847.114380929889	121
0	1438	847.310589978675	122
0	1441	847.773463871542	122
0	1443	848.242148769628	123
0	1445	848.326270687632	124
0	1451	850.704445446251	121
0	1453	851.110132609278	122
0	1461	853.639820894422	117
0	1464	854.095856027687	117
0	1466	855.759679025537	118
0	1469	856.548951331035	118
0	1480	862.42654099757	110
0	1486	866.906031136127	107
0	1494	873.811410090334	102
0	1499	876.307636237267	100
0	1505	878.331663673267	100
0	1508	878.891781295021	100
0	1511	880.223990688565	100
0	1515	881.843266562581	99
0	1520	883.631424460483	97
0	1522	884.166475507438	98
0	1526	885.536672740463	97
0	1532	887.94290677033	94
0	1543	896.540896446384	88
0	1545	898.757886073071	89
0	1547	902.487653387744	90
0	1549	902.610501722465	91
0	1554	904.315327762311	90
0	1560	907.191731998223	87
0	1564	910.632077496778	86
0	1567	911.678428506347	86
0	1573	915.524283736393	85
0	1575	916.876551360863	86
0	1577	917.427958781667	87
0	1579	917.810626345359	88
0	1581	918.356064517384	89
0	1585	919.871382437253	90
0	1587	924.021076826959	91
0	1591	927.238014210512	92
0	1596	930.473606151477	90
0	1598	930.87754272746	91
0	1603	931.661931494075	92
0	1605	931.791985401453	93
0	1608	933.822763272667	93
0	1614	935.974991307359	92
0	1616	939.036022886302	93
0	1618	940.464189090846	94
0	1625	943.356263470897	95
0	1627	945.081848763083	96
0	1631	952.140874759732	97
0	1633	953.682690601841	98
0	1635	956.974895256899	99
0	1637	957.639559493664	100
0	1639	958.236809741966	101
0	1641	959.044455265224	102
0	1645	966.443395500899	103
0	1647	967.077678291844	104
0	1649	968.536836055521	105
0	1651	969.506605374727	106
0	1653	969.797765855932	107
0	1655	969.88978001191	108
0	1659	971.225256345039	108
0	1662	972.018387198809	108
0	1664	973.812186569487	109
0	1676	984.108265502876	100
0	1679	985.542779727404	100
0	1682	986.250151562076	100
0	1684	986.850756178646	101
0	1688	988.616071887995	100
0	1697	995.710530714225	97
0	1699	995.832687028867	98
0	1701	995.849178500916	99
0	1707	1000.099086557465	96
0	1709	1001.452295908778	97
0	1711	1002.078526205301	98
0	1713	1002.704762939368	99
0	1720	1008.195465032965	95
0	1727	1014.643218066679	95
0	1729	1014.991341972661	96
0	1733	1017.00212424879	97
0	1735	1017.399230401674	98
0	1739	1019.489262756018	99
0	1741	1023.897797282363	100
0	1746	1027.631506098931	101
0	1748	1028.395356466992	102
0	1750	1028.425117614467	103
0	1753	1030.204597451667	104
0	1755	1030.279907184648	105
0	1757	1030.476054096343	106
0	1759	1031.201831353773	107
0	1762	1031.499421556836	108
0	1777	1037.36573902516	102
0	1779	1037.730719834647	103
0	1782	1040.411537838565	104
0	1787	1041.482589708059	103
0	1789	1042.087100261356	104
0	1798	1047.878001170785	100
0	1800	1048.135853521238	101
0	1802	1050.052923363906	102
0	1804	1051.06845979527	103
0	1810	1054.873809504648	101
0	1813	1056.191856112335	101
0	1815	1057.450473397239	102
0	1819	1060.064062718172	101
0	1821	1060.380772624942	102
0	1823	1060.605598619033	103
0	1826	1061.598742497903	103
0	1832	1065.169453020764	100
0	1842	1070.388764775577	93
0	1849	1072.578014533264	92
0	1854	1073.622430365012	90
0	1856	1074.27283058041	91
0	1862	1077.60951092111	92
0	1864	1077.708425201823	93
0	1866	1078.795568015789	94
0	1868	1079.696675470247	95
0	1870	1080.578505426827	96
0	1872	1082.436836284774	97
0	1874	1082.865530305703	98
0	1877	1084.939221008051	99
0	1879	1086.404232714277	100
0	1881	1086.830639558626	101
0	1883	1087.582073889741	102
0	1892	1092.111446723279	99
0	1896	1096.156759799007	99
0	1899	1099.959055262333	99
0	1902	1100.727925766117	99
0	1907	1103.471399295281	99
0	1911	1105.623356847158	99
0	1913	1106.02092695098	100
0	1918	1107.50762074563	98
0	1921	1107.911203719756	98
0	1925	1108.732255477723	99
0	1929	1110.785733669377	99
0	1933	1115.355968880711	98
0	1938	1117.693877870779	96
0	1941	1118.722165903362	96
0	1944	1120.168164013802	96
0	1946	1121.411926018846	97
0	1949	1124.576086466994	97
0	1953	1124.893930005548	98
0	1958	1126.761236989814	99
0	1960	1130.309919937255	100
0	1962	1133.339794789963	101
0	1964	1134.499271629966	102
0	1967	1134.837936715614	103
0	1969	1136.178182261819	104
0	1971	1136.243071291833	105
0	1978	1138.313939649631	101
0	1981	1139.320102554962	101
0	1983	1139.573896070047	102
0	1990	1142.621222950103	103
0	1992	1144.162815881716	104
0	1994	1144.508541969904	105
0	2000	1147.580850215109	105
0	2002	1149.532891109719	106
0	2004	1149.866376728641	107
0	2006	1149.876156675373	108
0	2008	1150.918852115847	109
0	2010	1150.96622693047	110
0	2012	1151.324951730512	111
0	2014	1151.9402893947	112
0	2016	1153.456799408931	113
0	2019	1154.829767942104	114
0	2023	1155.339673863915	113
0	2027	1156.220244584578	114
0	2031	1157.856334456743	115
0	2038	1161.232460856012	116
0	2040	1161.795191238778	117
0	2042	1163.092367510274	118
0	2050	1164.700049354732	119
0	2052	1165.011185488036	120
0	2054	1165.938361499415	121
0	2059	1169.787330324831	122
0	2061	1169.863568194792	123
0	2063	1171.916118943996	124
0	2065	1172.108096332442	125
0	2067	1172.791214944743	126
0	2069	1176.24097207437	127
0	2075	1183.389959302039	128
0	2079	1185.569903128226	129
0	2081	1187.176440449509	130
0	2084	1188.564022956712	131
0	2086	1189.727268030003	132
0	2088	1189.826181511248	133
0	2090	1191.076709997514	134
0	2093	1196.23845656971	135
0	2095	1196.437588000751	136
0	2098	1197.952858591391	137
0	2100	1199.507125277261	138
0	2103	1201.650528944241	139
0	2106	1202.972515582805	140
0	2110	1205.408895520015	141
0	2112	1205.709534067649	142
0	2115	1206.314418773518	143
0	2119	1207.45669927708	143
0	2122	1209.010049897097	143
0	2125	1209.668391750652	143
0	2128	1210.032023245227	143
0	2130	1210.844465167286	144
0	2132	1211.42279816072	145
0	2139	1214.246971044042	146
0	2144	1217.799690255823	147
0	2147	1220.721154720786	148
0	2149	1220.748040957416	149
0	2153	1221.745715148395	148
0	2155	1221.872949309375	149
0	2159	1223.081600665168	148
0	2163	1226.598779161324	147
0	2165	1226.694269114103	148
0	2167	1227.813591873888	149
0	2169	1228.708898289426	150
0	2173	1229.212189453596	149
0	2175	1229.894181748423	150
0	2178	1230.386431397615	150
0	2183	1234.003750997634	150
0	2185	1235.014500122995	151
0	2191	1237.164444444907	152
0	2195	1239.968134837808	153
0	2197	1240.021673342038	154
0	2200	1242.358180316437	155
0	2203	1245.504001026825	156
0	2205	1248.077424699872	157
0	2207	1248.869610446026	158
0	2215	1255.295432425885	159
0	2218	1257.140842048209	160
0	2223	1261.682538105081	159
0	2229	1266.440371804401	156
0	2231	1267.410292594288	157
0	2236	1272.374272074981	157
0	2238	1274.161334730804	158
0	2240	1275.286269820936	159
0	2242	1275.416579539731	160
0	2248	1281.021383995517	160
0	2250	1281.190814012279	161
0	2254	1284.369466470228	162
0	2256	1285.348137053206	163
0	2261	1291.618480732869	164
0	2263	1292.920033991161	165
0	2265	1293.741004997687	166
0	2267	1293.86384012255	167
0	2269	1295.203034431945	168
0	2273	1297.481240944431	169
0	2275	1300.595664792498	170
0	2282	1308.413388974055	171
0	2284	1309.349430135443	172
0	2286	1312.228024177158	173
0	2288	1312.53894131886	174
0	2290	1312.925025317178	175
0	2292	1313.570094390989	176
0	2294	1314.133097621721	177
0	2296	1315.485977416197	178
0	2300	1316.933928780616	179
0	2302	1317.878140922996	180
0	2304	1318.658514378934	181
0	2306	1319.278031595866	182
0	2308	1320.039183043433	183
0	2310	1320.254908179987	184
0	2312	1320.837071062697	185
0	2314	1322.512170790683	186
0	2317	1324.34919695497	187
0	2321	1326.932861242319	188
0	2323	1327.581091148777	189
0	2325	1331.270812924579	190
0	2327	1332.29190772577	191
0	2331	1343.303641538922	192
0	2339	1346.209348515403	187
0	2346	1349.487467715743	186
0	2348	1349.57947901691	187
0	2351	1350.432799568348	187
0	2356	1353.198901555631	185
0	2359	1353.829196757428	185
0	2363	1357.524795070702	184
0	2369	1361.879211228074	181
0	2372	1362.416846934048	181
0	2378	1367.952469154064	178
0	2380	1368.875589877287	179
0	2388	1376.742858184314	174
0	2390	1377.253399828932	175
0	2406	1383.528585468163	169
0	2408	1385.262681001325	170
0	2410	1390.611246876484	171
0	2412	1391.698551360245	172
0	2414	1392.369688254587	173
0	2416	1392.72949826075	174
0	2418	1396.997434363786	175
0	2420	1399.273766972318	176
0	2424	1403.552393599819	177
0	2429	1409.259220729538	178
0	2432	1414.562372771761	179
0	2435	1416.533323505003	180
0	2437	1418.808489510235	181
0	2446	1425.493743698549	176
0	2452	1428.768533613186	176
0	2457	1430.851810629388	174
0	2459	1430.877800397209	175
0	2464	1433.103135260996	173
0	2468	1434.494607074792	172
0	2471	1435.292769687743	172
0	2476	1439.437351368825	172
0	2483	1444.689372999248	169
0	2485	1446.20494365202	170
0	2487	1446.668922466388	171
0	2493	1450.344280677899	168
0	2496	1450.9736969854	168
0	2499	1452.077498085046	168
0	2502	1452.875623813898	168
0	2506	1453.370265294237	167
0	2509	1454.542575869421	167
0	2511	1455.781363088095	168
0	2517	1459.465782559478	165
0	2519	1459.472261608342	166
0	2524	1462.249316475276	164
0	2527	1463.52777620269	164
0	2531	1464.596098750978	163
0	2534	1465.590000412654	163
0	2538	1467.555244025188	162
0	2540	1467.599088951794	163
0	2547	1476.047833132845	162
0	2549	1476.977408500374	163
0	2553	1478.308829258635	162
0	2563	1488.178444007151	155
0	2566	1489.793387705978	155
0	2569	1491.939045756507	155
0	2572	1494.390864146928	155
0	2576	1494.899028007613	156
0	2580	1496.571054633118	157
0	2582	1497.247614344528	158
0	2584	1500.335207022073	159
0	2586	1501.522449663857	160
0	2588	1502.071325254032	161
0	2590	1504.136733491523	162
0	2594	1507.078787758028	163
0	2597	1508.211104007847	164
0	2599	1508.359067130103	165
0	2601	1508.455327049286	166
0	2604	1510.079732001229	167
0	2606	1515.563748646152	168
0	2608	1517.247920472067	169
0	2610	1518.842487888859	170
0	2612	1520.62806327363	171
0	2614	1522.295075497859	172
0	2616	1524.235693511037	173
0	2618	1527.576170554719	174
0	2620	1528.039778483285	175
0	2622	1529.403797302034	176
0	2624	1530.333145590962	177
0	2628	1532.658222126282	177
0	2631	1534.610283974099	177
0	2635	1537.112581334793	176
0	2637	1537.439578968597	177
0	2640	1538.479979260132	177
0	2644	1541.980109535146	178
0	2654	1550.341960150042	172
0	2656	1550.83066062702	173
0	2659	1552.553656947312	173
0	2663	1554.444160379773	172
0	2666	1556.46965574238	172
0	2671	1558.200153605498	170
0	2673	1558.323537992985	171
0	2675	1559.611521340144	172
0	2678	1561.921517248041	172
0	2681	1562.249196730998	172
0	2686	1564.264011313178	170
0	2688	1565.017475779134	171
0	2697	1568.791476641076	169
0	2701	1573.135464158439	170
0	2709	1578.960277876502	165
0	2712	1579.301235420959	165
0	2721	1586.221490982371	159
0	2728	1590.264922845298	155
0	2733	1595.980184083324	153
0	2737	1598.57929918881	152
0	2739	1599.988159408847	153
0	2743	1600.476144940173	152
0	2746	1601.313092761309	152
0	2754	1607.776933694122	147
0	2756	1608.366045671167	148
0	2763	1610.059039017694	144
0	2767	1611.587092698381	143
0	2769	1611.593855051221	144
0	2771	1611.967951781056	145
0	2776	1616.810111203731	143
0	2779	1617.633125003924	143
0	2781	1618.673168568527	144
0	2785	1619.985660983828	143
0	2790	1620.581757724722	141
0	2795	1623.351097092077	139
0	2797	1624.388150608152	140
0	2801	1626.531071652044	139
0	2805	1628.528297325991	138
0	2807	1628.97033763747	139
0	2810	1629.238341134433	139
0	2814	1630.362935843495	138
0	2825	1637.187541537461	136
0	2828	1641.716519042777	137
0	2830	1645.036979548545	138
0	2832	1645.061137397707	139
0	2834	1648.255600764167	140
0	2843	1652.989624735826	141
0	2847	1654.069347738449	141
0	2850	1654.737532078934	141
0	2853	1655.937098800819	141
0	2855	1656.888317853678	142
0	2858	1657.745633214502	142
0	2866	1662.949831096336	137
0	2869	1665.401276512695	137
0	2873	1668.035899860959	136
0	2875	1668.6218766264	137
0	2881	1671.550246404795	134
0	2885	1673.858873370646	135
0	2887	1675.667953418453	136
0	2889	1675.952587229349	137
0	2894	1677.181667635725	136
0	2902	1681.023136093337	134
0	2904	1681.687740252343	135
0	2907	1682.389016669198	135
0	2915	1685.198825179304	130
0	2917	1685.300232104466	131
0	2921	1687.015336951529	130
0	2923	1687.245782921433	131
0	2930	1690.033004860035	127
0	2934	1691.441730365123	126
0	2938	1695.67976248533	125
0	2940	1696.779945000349	126
0	2943	1698.433750128985	126
0	2945	1698.963228349357	127
0	2948	1699.169648782598	127
0	2950	1701.15586921067	128
0	2952	1701.890032255524	129
0	2954	1702.47176712915	130
0	2958	1703.621283076167	129
0	2960	1703.827614268082	130
0	2962	1703.839036041845	131
0	2966	1706.321389686286	132
0	2968	1706.442263814367	133
0	2970	1706.802290614209	134
0	2972	1708.478092880226	135
0	2977	1710.946149133675	136
0	2983	1712.071178720411	134
0	2985	1713.546071583437	135
0	2987	1713.949136234495	136
0	2990	1714.005996752244	136
0	2992	1715.386809461806	137
0	3000	1717.703918270167	132
0	3003	1718.83809222992	132
0	3009	1721.4202874441	133
0	3013	1722.543930821187	134
0	3017	1727.29529828324	135
0	3019	1727.995293976927	136
0	3022	1729.79924404215	137
0	3024	1731.454046475042	138
0	3027	1733.641792292647	138
0	3030	1736.576453002462	138
0	3035	1740.692671466698	136
0	3037	1741.886963699366	137
0	3040	1743.192345084033	137
0	3042	1745.407344963208	138
0	3046	1748.252661472725	137
0	3049	1749.736882997458	137
0	3051	1749.750658837157	138
0	3053	1749.930291421475	139
0	3056	1750.914320981967	139
0	3059	1754.039251679122	139
0	3065	1758.617284035796	139
0	3074	1761.406234280016	136
0	3076	1763.433605905426	137
0	3079	1763.772103106948	137
0	3083	1765.581739657176	136
0	3085	1766.239539826369	137
0	3088	1769.147363102182	137
0	3097	1776.515058825508	134
0	3103	1779.589518827506	131
0	3108	1783.103777808372	129
0	3118	1786.876966045172	124
0	3122	1790.745455258415	124
0	3124	1792.190753440125	125
0	3129	1797.670507033302	123
0	3131	1798.287041160017	124
0	3134	1800.091334877918	124
0	3139	1802.144987185443	122
0	3141	1803.10586536905	123
0	3144	1804.630391557477	123
0	3147	1806.107547564989	123
0	3149	1806.76964296415	124
0	3152	1808.03897878339	124
0	3154	1808.364685922008	125
0	3170	1817.603555967564	115
0	3172	1818.124625959279	116
0	3176	1819.644032054649	115
0	3180	1821.907714268948	114
0	3184	1822.604374187522	113
0	3188	1824.932569132611	112
0	3191	1825.388009113513	112
0	3193	1825.946292318511	113
0	3195	1826.110688267935	114
0	3199	1829.944412803799	113
0	3201	1830.902739394103	114
0	3205	1832.750617347929	113
0	3222	1845.999639627752	106
0	3225	1851.034034539787	107
0	3227	1851.773624786027	108
0	3229	1854.502195527194	109
0	3231	1854.619376693676	110
0	3233	1854.765734155049	111
0	3235	1860.589070969222	112
0	3237	1861.485131482468	113
0	3239	1861.50337269731	114
0	3241	1865.996245510269	115
0	3243	1866.063002967346	116
0	3246	1866.662916604058	117
0	3248	1867.458192841263	118
0	3250	1867.578487058035	119
0	3252	1867.963637387873	120
0	3255	1869.918890622	120
0	3261	1873.125315866874	117
0	3266	1876.272539694962	115
0	3268	1877.487938673112	116
0	3279	1886.027148850649	111
0	3281	1886.520100324665	112
0	3284	1887.891833856357	112
0	3287	1888.460095649785	112
0	3289	1889.819228007956	113
0	3292	1891.750762404677	113
0	3294	1891.851351127439	114
0	3299	1895.628309114366	115
0	3302	1896.542579579093	115
0	3309	1901.643844262195	116
0	3311	1903.020768667383	117
0	3316	1904.03318841224	116
0	3321	1907.852908251565	114
0	3323	1908.118645426677	115
0	3325	1908.722043968504	116
0	3333	1914.597735528967	111
0	3335	1914.820846997013	112
0	3343	1917.518157964064	111
0	3347	1922.705719254794	112
0	3351	1924.76446157686	113
0	3353	1924.937311468795	114
0	3355	1926.027710588283	115
0	3361	1931.670564988525	113
0	3363	1932.571743026849	114
0	3365	1933.043017924434	115
0	3367	1934.336704741291	116
0	3369	1935.641701428457	117
0	3371	1936.033886985515	118
0	3374	1936.994515771889	118
0	3379	1939.463895624523	116
0	3383	1942.657149263497	117
0	3385	1943.966875546821	118
0	3390	1946.568051527348	119
0	3392	1947.280393569197	120
0	3394	1947.316394465465	121
0	3396	1947.674653577627	122
0	3402	1951.424340063885	120
0	3405	1952.232624072083	120
0	3414	1956.922108794337	114
0	3416	1957.092867127681	115
0	3418	1958.192287076518	116
0	3421	1958.670258760372	116
0	3423	1958.691273318638	117
0	3426	1960.757522712785	117
0	3430	1965.063878946626	116
0	3432	1965.52813531679	117
0	3434	1966.07874774586	118
0	3455	1981.374729437098	102
0	3457	1982.602509566206	103
0	3459	1982.661947153012	104
0	3461	1982.85727806091	105
0	3463	1983.487240238613	106
0	3470	1988.972804999477	103
0	3472	1989.74096798963	104
0	3474	1989.988248934936	105
0	3479	1990.484118115026	105
0	3483	1996.280264655654	105
0	3485	1997.232910848858	106
0	3488	1997.892794150222	106
0	3490	1998.282685973159	107
0	3494	1998.846061198121	106
0	3496	1999.07610559528	107
1	0	0	0
1	7	3.916420786547	0
1	9	4.039440899453	1
1	11	4.97213722628	2
1	13	6.065174040816	3
1	15	6.971232888542	3
1	17	7.685114913974	3
1	18	8.141392441378	3
1	20	8.487228752263	3
1	21	8.739184755227	3
1	22	9.845671386623	2
1	23	10.374899978223	1
1	24	12.909307406384	0
1	26	14.718809245391	0
1	27	15.020319414651	0
1	29	17.52362218543	0
1	30	17.640090840644	0
1	35	20.192313701415	0
1	36	22.235582895715	0
1	38	22.823909270233	0
1	44	26.211779377177	1
1	46	27.08445638231	2
1	48	27.297593444806	3
1	50	28.515053303549	4
1	56	33.20560430339	4
1	57	33.410220460538	3
1	59	33.790835300742	3
1	60	34.359438334867	3
1	61	34.379295617782	2
1	63	34.462500739458	2
1	64	36.27949995316	2
1	66	36.341154640149	2
1	68	39.245865600499	3
1	69	39.342484356501	3
1	73	41.061288052722	3
1	75	42.460839798643	3
1	76	42.487976431124	2
1	77	44.567570338705	1
1	79	44.570898669436	1
1	81	44.763445052567	2
1	83	44.842573940862	3
1	84	45.234247224621	3
1	88	45.689382785273	3
1	93	46.441099235687	4
1	97	48.614975741388	5
1	99	52.99772338337	6
1	101	54.163489342747	7
1	104	57.934152714679	8
1	106	59.537791441261	9
1	109	62.010416445659	10
1	110	64.100533938625	10
1	111	64.350886352048	9
1	113	64.443266380155	9
1	114	65.985724168078	9
1	115	66.485607765987	8
1	117	67.335887240463	8
1	119	69.116164787222	9
1	121	69.431091611405	10
1	123	69.533536640825	11
1	124	69.781644068763	11
1	125	69.864544894337	10
1	126	70.486907443893	9
1	127	70.91985798041	8
1	129	71.007840450492	8
1	130	71.033196315979	8
1	131	71.211886663735	7
1	132	72.581388643678	6
1	134	72.657962910193	6
1	136	73.566185999993	7
1	141	76.474120501332	8
1	142	78.234497931217	8
1	143	80.360010126494	7
1	144	80.463300750005	6
1	145	81.144644804744	5
1	146	81.34033674759	4
1	147	81.852762384871	3
1	148	82.304574672243	2
1	149	85.672404309711	1
1	150	86.272592182953	0
1	152	87.334354788419	0
1	156	92.170533724565	1
1	158	93.252775738788	1
1	160	93.274807509172	1
1	162	93.469834597367	2
1	169	100.708213368503	3
1	174	105.364458045197	4
1	179	106.568379178766	5
1	181	107.80431167298	6
1	183	108.495550864383	6
1	187	108.745904670224	6
1	189	109.948932067724	7
1	191	109.951530422823	8
1	193	114.786094061759	8
1	194	115.761020648387	7
1	195	116.936350538308	6
1	196	117.231572019007	5
1	197	117.385246427928	4
1	198	117.984387034592	3
1	199	118.53213292735	2
1	200	118.756747911759	1
1	201	119.579700017972	0
1	203	124.875525983466	0
1	204	124.960232093491	0
1	208	125.275402291493	0
1	210	125.629888227261	1
1	212	129.20827862321	2
1	216	131.679691282266	3
1	218	131.9381848613	4
1	220	132.288378083977	5
1	222	134.720317644277	6
1	225	138.049973278596	7
1	227	140.655119970716	8
1	229	140.726679361575	9
1	231	141.771461702761	9
1	237	145.878125308512	9
1	239	147.409073929416	10
1	241	148.6771040695	11
1	243	149.041347527685	12
1	245	149.549259677104	13
1	247	150.286784741763	14
1	249	151.636951729901	15
1	251	151.729170322386	16
1	253	153.986194605207	17
1	255	154.531324760706	18
1	257	156.521107740323	19
1	261	158.767949923627	20
1	263	159.649199077165	21
1	265	162.699234073917	22
1	267	162.83718454632	23
1	269	165.213394164485	24
1	273	169.635901333613	25
1	275	170.433737854298	26
1	278	173.803311689383	27
1	280	175.165874865628	28
1	282	177.292229063062	29
1	284	178.777413905937	30
1	287	180.166648872514	31
1	289	180.875835229855	32
1	291	183.014145288756	33
1	293	184.258062457946	34
1	295	185.251840842942	35
1	301	189.528184470192	35
1	302	189.585536360469	34
1	303	192.039217646439	33
1	304	192.954350260042	32
1	306	193.622694961457	32
1	307	194.04053432517	32
1	309	194.411969346081	32
1	310	195.324263550504	32
1	311	195.701460110798	31
1	313	195.802808541319	31
1	315	197.280317982108	32
1	317	198.295554363789	33
1	318	199.217722259888	33
1	320	199.314664008198	33
1	321	199.9520148396	33
1	322	200.959609835562	32
1	324	201.917874359438	32
1	325	202.683165695795	32
1	327	205.458652105786	32
1	328	206.126877235135	32
1	329	206.876702855404	31
1	330	208.002745406939	30
1	334	209.439038368058	30
1	336	210.317684428121	31
1	338	210.370720532653	32
1	340	213.914061897477	33
1	342	214.599090918601	34
1	344	214.865955416477	35
1	346	217.978405681223	36
1	348	219.257350197568	37
1	350	220.479082930853	38
1	352	221.465877383387	38
1	354	221.717912294478	38
1	356	221.731817469004	39
1	357	221.902805602853	39
1	358	221.948481709212	38
1	359	222.030809849255	37
1	360	222.680872938894	36
1	361	223.492610835947	35
1	362	223.601558897982	34
1	363	223.782834360673	33
1	364	223.915270415036	32
1	365	224.265165292205	31
1	367	226.414521502554	31
1	368	226.587507238107	31
1	370	227.501685640937	31
1	372	228.153045953947	32
1	373	228.423898994972	32
1	374	228.439534857339	31
1	378	228.956016311863	31
1	380	230.372269576727	32
1	382	232.225720177658	33
1	384	238.036456951592	34
1	388	238.821418998324	35
1	390	239.162034121545	36
1	395	247.115272085799	37
1	398	249.150113588012	38
1	400	250.924703715192	39
1	402	259.515360265466	40
1	406	259.796396208249	41
1	409	261.034806114493	42
1	411	261.886279791198	42
1	412	262.303029291521	41
1	414	262.506822389137	41
1	415	263.626296572723	41
1	419	265.058928104672	41
1	421	265.945194757476	42
1	423	267.583669273007	43
1	425	267.613896501144	44
1	427	271.201150184974	44
1	428	271.233371514869	43
1	429	271.695688266967	42
1	431	272.001737051345	42
1	433	272.204540228746	43
1	434	272.335082128874	43
1	435	272.457517794718	42
1	436	273.772707590998	41
1	437	273.928227654706	40
1	438	275.411983923674	39
1	439	276.057165484598	38
1	440	276.333241553329	37
1	441	278.605872204046	36
1	442	279.003145048313	35
1	443	279.368712328446	34
1	445	280.056820455543	34
1	446	280.832848396835	34
1	447	280.979783085063	33
1	451	283.123949361086	33
1	453	283.792026000901	34
1	455	284.905775754088	35
1	457	286.143763218409	36
1	459	286.584936421542	37
1	461	291.311512737905	38
1	463	293.268385079793	39
1	465	299.313829705979	40
1	467	301.358738035055	41
1	469	303.693157546918	42
1	471	304.324505301167	43
1	473	306.537403263602	43
1	475	307.447376529012	43
1	477	307.72548180428	44
1	478	308.098908494591	44
1	479	308.276324741365	43
1	487	313.761155247767	43
1	489	315.041214192058	44
1	490	315.469386187054	44
1	491	316.162786691964	43
1	493	317.519505906453	43
1	495	318.510153624178	44
1	497	318.957050939666	45
1	498	319.622081627956	45
1	499	319.683419229842	44
1	500	319.864968791882	43
1	501	319.878523906808	42
1	503	319.995707987685	42
1	504	320.375883567197	42
1	505	320.517959144481	41
1	506	321.484952546309	40
1	507	322.86830392946	39
1	508	323.076795153735	38
1	510	323.280993777094	38
1	511	324.084030113189	38
1	513	324.224681355729	38
1	514	324.642451440135	38
1	516	326.250950082845	38
1	518	326.942066153179	39
1	519	328.088658083831	39
1	520	328.1818503147	38
1	524	330.508641499949	38
1	526	332.11850964184	39
1	528	332.335344281	40
1	530	333.463746500876	41
1	532	333.767999734626	42
1	534	336.830747569485	43
1	536	337.077453945858	44
1	538	339.490560847382	45
1	540	340.312311871691	46
1	542	343.308189580919	47
1	544	343.826429371891	48
1	546	344.50530534665	49
1	550	346.60940740959	50
1	552	347.081648553047	51
1	554	348.140943655773	52
1	556	349.543760155673	53
1	560	352.333181774688	54
1	562	352.618903067295	55
1	564	352.642751544675	56
1	566	353.018699850074	57
1	568	353.09400268261	58
1	570	353.657307826564	59
1	574	355.719901715601	60
1	576	355.807102456581	61
1	578	357.620128082388	62
1	580	358.133494771721	63
1	582	358.670617077942	64
1	586	360.636184051116	65
1	590	362.545909558653	66
1	592	364.557919448585	67
1	594	365.545908491281	68
1	599	367.06850219556	69
1	601	369.263176013343	70
1	603	371.922138824471	71
1	605	373.34171649595	72
1	607	376.718306398117	73
1	609	377.493446818173	74
1	611	378.432993890857	75
1	613	379.397612465772	76
1	617	382.666329316104	77
1	621	383.647910713815	78
1	623	387.882602964898	79
1	629	392.381242743408	80
1	631	394.149321823634	81
1	633	396.048876198007	82
1	636	398.182216169988	83
1	640	400.445303750566	84
1	642	401.13151359358	85
1	644	401.41531705397	86
1	646	402.398563387381	87
1	648	403.063701287426	88
1	650	403.33604071065	89
1	652	403.391761761187	90
1	654	403.87033687275	91
1	656	404.46412300138	92
1	659	407.277555431556	93
1	662	408.032072719437	94
1	666	409.76170338167	95
1	668	409.953662169878	96
1	671	411.952092428327	97
1	673	412.381589147442	98
1	678	418.701030490526	99
1	680	419.445990032409	100
1	682	419.643981368745	101
1	684	421.076747642662	102
1	686	421.350053035053	103
1	690	422.247311449222	104
1	692	423.291339164035	105
1	695	426.032458494153	106
1	697	426.536366255475	107
1	702	427.853241171213	108
1	704	429.370082826348	109
1	706	431.042935645669	110
1	710	434.593672383311	111
1	715	442.047173147815	112
1	716	442.626089381285	112
1	717	443.238130603374	111
1	718	443.737850381109	110
1	720	443.90094409368	110
1	721	444.157941322534	110
1	723	445.240475048691	110
1	725	445.650565391983	111
1	727	446.237808710915	112
1	728	446.506360927774	112
1	729	446.928163348027	111
1	731	447.198105831893	111
1	732	449.33401652175	111
1	733	449.839663472749	110
1	734	450.534260592761	109
1	735	450.551785277707	108
1	736	452.44638837524	107
1	738	454.863212470444	107
1	740	455.529873171505	108
1	742	455.873874324998	109
1	743	456.869485564083	109
1	744	457.501283666457	108
1	746	458.304025755451	108
1	747	458.763232828944	108
1	751	460.401921937195	108
1	753	460.987439655972	109
1	755	461.001483054972	110
1	758	463.867341214548	111
1	760	464.052490251005	112
1	762	464.701331528679	113
1	763	465.448173429065	113
1	764	465.624390946547	112
1	766	465.805263696869	112
1	770	465.897604603246	113
1	774	467.576741402589	114
1	777	470.635520198473	114
1	778	471.339082754838	113
1	779	471.660760587195	112
1	781	473.290613608975	112
1	782	473.559837358432	112
1	783	475.024017722237	111
1	785	475.376632041809	111
1	786	476.318102327501	111
1	788	476.828961612593	111
1	790	477.063798806239	112
1	791	478.113885620069	112
1	793	479.767104600048	112
1	794	479.791766093488	112
1	796	480.556172591671	112
1	797	481.171356904769	112
1	798	481.186898955392	111
1	800	482.380821434645	111
1	801	483.502532017126	111
1	802	483.518944317957	110
1	803	487.088261583269	109
1	804	488.502900827774	108
1	805	489.063330237611	107
1	807	489.417868435504	107
1	808	489.568474133431	107
1	809	490.72710494442	106
1	810	492.301420527244	105
1	811	492.696357468705	104
1	812	492.997019545722	103
1	813	494.743012753717	102
1	814	496.339974762604	101
1	815	497.893122809459	100
1	816	498.463217960352	99
1	818	499.989878340888	99
1	820	500.259879692862	100
1	822	500.607597358181	101
1	824	500.655858299092	102
1	826	501.737096666521	103
1	827	502.629907411523	103
1	828	503.343654096841	102
1	829	503.844978768702	101
1	830	505.286061512999	100
1	832	505.424032087661	100
1	833	505.825377747568	100
1	834	506.016440375224	99
1	836	506.80773772192	99
1	837	506.847885926164	99
1	839	507.255741666725	99
1	840	507.450179273184	99
1	841	507.653078167363	98
1	843	509.550390246772	98
1	844	509.937738503834	98
1	845	510.668928947319	97
1	847	510.701934371821	97
1	848	511.837802091372	97
1	849	512.390678266308	96
1	850	512.727508572688	95
1	851	512.926419591978	94
1	853	513.423678443141	94
1	854	513.472636653562	94
1	855	513.955090624499	93
1	857	513.974377652572	93
1	859	514.067950322396	94
1	861	514.282407945335	95
1	862	514.794236885159	95
1	863	515.273867964356	94
1	865	515.951825759665	94
1	867	516.298205345638	95
1	868	518.704440075861	95
1	869	521.905208442082	94
1	871	522.374517034523	94
1	873	522.464371237559	95
1	874	522.727805059827	95
1	875	522.979254721032	94
1	877	526.497610077274	94
1	878	526.586156604512	94
1	879	526.686287680851	93
1	880	526.873811609899	92
1	882	527.118269385463	92
1	884	527.579577130161	93
1	885	527.827792398505	93
1	886	528.096856029828	92
1	887	528.354676779038	91
1	888	529.190065140122	90
1	892	531.682919477915	90
1	894	533.572426542712	91
1	896	533.946482933972	92
1	898	535.042532999748	93
1	900	535.233834069005	94
1	902	536.430510006116	95
1	904	537.849197516253	95
1	905	538.036366057	94
1	907	538.744643684094	94
1	909	538.834649453024	95
1	910	541.357032766969	95
1	911	541.521303807045	94
1	913	541.968491404339	94
1	915	541.982230158334	95
1	917	542.70474126349	96
1	918	543.688271587012	96
1	920	544.124719196285	96
1	921	544.952535875912	96
1	922	545.411759177311	95
1	923	546.167234756496	94
1	924	546.585525021835	93
1	925	547.153408636574	92
1	927	547.4434074662	92
1	929	548.428209260346	93
1	931	548.530812501826	94
1	932	549.055015547118	94
1	934	550.257999576215	94
1	936	550.762131300229	95
1	937	551.101705153015	95
1	939	551.102598887422	95
1	940	551.593862513955	95
1	941	552.897213138173	94
1	943	553.049767566151	94
1	944	553.995048833146	94
1	948	557.526889734878	94
1	950	559.072968219445	95
1	952	559.095286129854	96
1	954	561.626825473118	97
1	956	562.35380955783	97
1	957	564.109217664601	96
1	959	564.510238123991	96
1	960	565.048112420643	96
1	961	565.433667961307	95
1	970	568.696415504181	95
1	972	571.662530595221	96
1	974	572.109486800769	97
1	976	573.810456366762	98
1	980	574.783046611082	99
1	985	582.761934051697	100
1	987	583.731777848667	101
1	989	583.749208220343	102
1	998	599.942326828402	103
1	1000	600.244439951167	104
1	1002	601.677537830707	105
1	1004	602.158165395523	106
1	1006	602.715889031632	107
1	1009	603.975557974044	108
1	1011	605.393962808089	109
1	1017	608.695654294465	110
1	1019	609.60611134896	111
1	1022	611.444679598284	112
1	1024	613.320819634774	113
1	1026	614.388191922671	114
1	1030	617.44275636639	115
1	1032	618.363720736656	116
1	1035	619.774264056599	117
1	1038	622.107141231082	118
1	1040	623.398056328938	119
1	1043	625.341679239785	120
1	1044	625.772719827425	120
1	1046	626.886984002966	120
1	1047	629.213989526065	120
1	1048	629.386056148164	119
1	1049	629.853292461876	118
1	1051	630.000968821658	118
1	1053	630.054310925111	119
1	1055	630.233370954797	120
1	1056	630.437181639307	120
1	1058	631.332880528452	120
1	1060	631.438983731368	121
1	1061	631.554133964339	121
1	1063	633.717474812627	121
1	1065	634.702236641469	122
1	1066	635.62554471517	122
1	1070	637.201346972567	122
1	1072	638.493750006673	123
1	1074	639.969159033214	124
1	1076	640.955847358095	124
1	1077	642.151389636968	123
1	1078	642.391847515247	122
1	1080	642.873070723528	122
1	1081	644.032415354002	122
1	1083	645.986257074579	122
1	1085	647.640710094945	123
1	1086	647.892498032232	123
1	1087	648.203139692497	122
1	1088	648.288675480891	121
1	1089	648.672136296981	120
1	1090	648.770736969935	119
1	1091	648.945048269569	118
1	1093	648.997326593938	118
1	1095	649.473119210582	119
1	1096	649.673873826886	119
1	1098	650.782852779385	119
1	1099	651.367098406876	119
1	1100	651.614852466097	118
1	1101	653.676644665584	117
1	1102	653.822080263977	116
1	1103	655.570340184294	115
1	1105	655.795963815323	115
1	1106	657.594785136201	115
1	1108	658.104049466935	115
1	1110	658.524332781908	116
1	1114	662.084577891361	117
1	1116	662.624817825732	118
1	1118	663.104718275415	119
1	1120	663.408804231936	120
1	1122	663.764771872086	121
1	1124	664.185809481962	122
1	1126	669.198806345173	123
1	1128	671.011936222588	123
1	1130	671.609198276336	123
1	1131	671.739920465223	123
1	1132	672.993710338041	122
1	1133	674.094846893916	121
1	1134	674.89936455298	120
1	1136	675.535331549947	120
1	1137	676.667002243464	120
1	1139	677.21039460594	120
1	1140	677.48374959188	120
1	1141	678.322431442301	119
1	1143	678.968374890127	119
1	1148	681.493447362957	120
1	1149	681.494476727433	120
1	1150	681.723141111932	119
1	1151	686.030895224357	118
1	1152	686.334350326304	117
1	1153	687.048070290952	116
1	1154	687.260405438603	115
1	1156	688.194166821405	115
1	1158	688.560653061135	116
1	1159	688.669646612651	116
1	1161	689.302660000947	116
1	1162	689.633614489437	116
1	1164	690.607028643204	116
1	1166	691.424937515637	117
1	1167	692.391830689959	117
1	1169	695.148820229527	117
1	1170	697.42877952844	117
1	1172	698.446918390281	117
1	1173	698.639307403985	117
1	1174	698.926175001231	116
1	1175	699.492291811103	115
1	1176	699.904732645112	114
1	1177	700.034893502561	113
1	1179	700.054206775548	113
1	1180	701.079537065088	113
1	1181	702.074564695356	112
1	1182	702.756286667901	111
1	1183	704.214631704738	110
1	1184	704.30782878535	109
1	1185	704.613532265468	108
1	1187	704.762616470474	108
1	1188	704.859448582168	108
1	1189	704.99096626877	107
1	1190	705.528903675308	106
1	1194	708.515285690146	105
1	1195	708.829169458011	104
1	1197	708.914072462773	104
1	1198	709.225045717252	104
1	1199	709.532283231626	103
1	1203	715.683763283382	103
1	1205	715.773810485621	104
1	1207	716.068726673621	105
1	1209	716.743201098891	106
1	1211	717.474539836818	107
1	1213	718.203205139001	108
1	1215	719.535227932538	109
1	1217	722.616440171101	109
1	1219	723.431068214305	109
1	1221	725.013218450444	110
1	1222	725.108953075897	110
1	1223	727.060651096953	109
1	1225	727.607615085799	109
1	1227	727.675270854914	110
1	1231	728.543603612448	111
1	1234	730.480337703097	112
1	1235	731.499720977856	112
1	1237	731.598042291734	112
1	1238	732.327079306904	112
1	1239	733.177262446444	111
1	1240	733.490374881302	110
1	1241	733.559133617001	109
1	1243	734.143882947703	109
1	1244	734.208624886246	109
1	1245	734.61125085368	108
1	1246	735.159679196907	107
1	1247	735.809651971506	106
1	1248	736.746168679797	105
1	1250	737.728014886272	105
1	1251	738.036959513025	105
1	1252	739.305611155183	104
1	1253	739.377167817132	103
1	1255	739.452388340084	103
1	1257	739.644910464484	104
1	1258	739.997139575258	104
1	1260	740.279065626368	104
1	1262	740.711463441132	105
1	1264	741.204898971096	106
1	1265	741.468777814326	106
1	1267	741.880523112494	106
1	1268	741.957769354502	106
1	1270	742.031465557417	106
1	1271	742.505594126265	106
1	1272	742.560932046609	105
1	1273	743.376109158786	104
1	1275	743.670386114765	104
1	1276	745.019933261975	104
1	1277	745.059006863488	103
1	1278	746.963024870133	102
1	1279	747.16839748288	101
1	1280	748.121403910686	100
1	1281	748.151275547338	99
1	1282	749.141710781689	98
1	1283	749.298443429958	97
1	1285	749.35400080195	97
1	1287	749.727335813627	98
1	1289	750.576001050246	99
1	1290	750.583894822653	99
1	1292	751.017880793835	99
1	1294	752.157672428595	100
1	1295	752.596684360318	100
1	1296	752.909881951329	99
1	1297	754.017770697734	98
1	1298	756.091232795943	97
1	1302	757.141934249665	97
1	1304	759.339507287948	98
1	1306	759.513391091394	99
1	1308	759.768417884036	100
1	1310	761.133216728832	101
1	1314	765.465871825149	102
1	1316	767.182093215448	103
1	1318	771.250847057823	104
1	1320	771.351640898625	105
1	1322	772.552357328017	106
1	1327	778.835424781065	107
1	1329	778.960782877194	108
1	1331	779.3218646576	109
1	1333	780.489352757643	110
1	1335	780.646884623691	111
1	1337	782.183759622594	112
1	1339	784.892471924192	113
1	1342	788.08718558267	114
1	1344	788.423648376886	114
1	1345	789.840140119015	113
1	1347	789.913215783805	113
1	1351	791.412134132491	114
1	1353	795.15462289679	115
1	1355	795.766354242092	116
1	1357	799.668531654578	117
1	1359	800.779716990018	118
1	1361	805.403744806986	119
1	1365	808.33446811599	120
1	1368	810.188529587933	121
1	1371	814.662956548694	122
1	1373	815.043465570599	123
1	1374	816.504776994494	123
1	1375	817.351518209633	122
1	1376	817.803970091545	121
1	1378	818.635460041584	121
1	1379	819.267799540548	121
1	1380	820.387797795283	120
1	1381	822.032644579346	119
1	1383	822.161802435203	119
1	1385	823.075708355059	120
1	1386	823.175658639127	120
1	1387	823.608052087791	119
1	1389	823.690104814858	119
1	1390	823.827588625507	119
1	1391	824.044670341791	118
1	1393	825.184517064639	118
1	1394	825.882086217839	118
1	1396	825.906882127551	118
1	1397	826.163644786647	118
1	1398	826.940092764482	117
1	1400	827.149443761035	117
1	1402	827.413908261554	118
1	1403	827.46111927135	118
1	1405	827.54440003504	118
1	1407	828.104441922114	119
1	1409	828.1982557005	120
1	1410	828.561380363689	120
1	1412	829.961897103522	120
1	1413	830.33374274093	120
1	1415	830.499871602215	120
1	1417	831.105466210934	121
1	1418	831.528225248083	121
1	1419	834.28982899993	120
1	1423	835.36792976058	120
1	1425	835.828238389794	121
1	1427	837.068494041228	122
1	1429	840.448576145758	122
1	1430	841.131678920855	121
1	1432	841.605053110058	121
1	1433	842.756718684021	121
1	1434	846.604539177343	120
1	1436	847.114380929889	120
1	1438	847.310589978675	121
1	1439	847.443380696055	121
1	1441	847.773463871542	121
1	1443	848.242148769628	122
1	1445	848.326270687632	123
1	1446	848.781279283568	123
1	1447	849.834078294019	122
1	1448	850.27293408953	121
1	1449	850.333556614767	120
1	1451	850.704445446251	120
1	1453	851.110132609278	121
1	1454	851.579817947356	121
1	1455	851.590101289171	120
1	1456	851.835148651638	119
1	1457	852.798346266605	118
1	1458	853.052946164062	117
1	1459	853.297928020432	116
1	1461	853.639820894422	116
1	1462	853.716870021605	116
1	1464	854.095856027687	116
1	1466	855.759679025537	117
1	1467	856.219581526281	117
1	1469	856.548951331035	117
1	1470	856.675772729349	117
1	1471	857.244906648472	116
1	1472	858.236993629263	115
1	1473	858.752007892313	114
1	1474	859.466271522786	113
1	1475	859.875278605047	112
1	1476	861.312338513262	111
1	1477	861.869765731414	110
1	1478	862.0073782461	109
1	1480	862.42654099757	109
1	1481	863.946684056152	109
1	1482	864.078926877074	108
1	1483	864.128744190076	107
1	1484	865.969597129331	106
1	1486	866.906031136127	106
1	1487	869.786500450211	106
1	1488	869.943943701574	105
1	1489	870.06300559934	104
1	1490	871.109161862974	103
1	1491	871.485087682246	102
1	1492	873.056782478873	101
1	1494	873.811410090334	101
1	1495	874.999597864176	101
1	1496	875.132840587939	100
1	1497	875.947803423692	99
1	1499	876.307636237267	99
1	1503	877.925004019921	99
1	1505	878.331663673267	99
1	1506	878.360032544401	99
1	1508	878.891781295021	99
1	1509	878.89347922879	99
1	1511	880.223990688565	99
1	1512	881.269470644726	99
1	1513	881.362951821629	98
1	1515	881.843266562581	98
1	1516	881.920082859507	98
1	1517	882.767242170657	97
1	1518	883.596028298215	96
1	1520	883.631424460483	96
1	1522	884.166475507438	97
1	1523	884.312948514576	97
1	1524	885.332295618403	96
1	1526	885.536672740463	96
1	1527	885.868291134496	96
1	1528	886.027765392158	95
1	1529	887.474515513387	94
1	1530	887.703142958807	93
1	1532	887.94290677033	93
1	1533	888.159062001051	93
1	1534	888.863408699957	92
1	1535	888.914219371337	91
1	1536	888.993415292593	90
1	1537	889.137852465202	89
1	1538	889.946817937921	88
1	1539	891.467621492016	87
1	1543	896.540896446384	87
1	1545	898.757886073071	88
1	1547	902.487653387744	89
1	1549	902.610501722465	90
1	1551	903.828469548929	90
1	1552	903.986090937909	89
1	1554	904.315327762311	89
1	1555	904.392186994995	89
1	1556	904.673377773721	88
1	1557	905.216434687716	87
1	1558	905.462408703734	86
1	1560	907.191731998223	86
1	1561	908.487566662254	86
1	1562	909.230786625606	85
1	1564	910.632077496778	85
1	1565	911.536018476019	85
1	1567	911.678428506347	85
1	1568	912.206101852433	85
1	1569	912.764614196044	84
1	1573	915.524283736393	84
1	1575	916.876551360863	85
1	1577	917.427958781667	86
1	1579	917.810626345359	87
1	1581	918.356064517384	88
1	1585	919.871382437253	89
1	1587	924.021076826959	90
1	1591	927.238014210512	91
1	1592	927.551318352919	91
1	1593	928.300908862292	90
1	1594	929.386776306225	89
1	1596	930.473606151477	89
1	1598	930.87754272746	90
1	1603	931.661931494075	91
1	1605	931.791985401453	92
1	1606	931.872578555431	92
1	1608	933.822763272667	92
1	1609	934.670214378135	92
1	1610	935.1826888809	91
1	1614	935.974991307359	91
1	1616	939.036022886302	92
1	1618	940.464189090846	93
1	1625	943.356263470897	94
1	1627	945.081848763083	95
1	1631	952.140874759732	96
1	1633	953.682690601841	97
1	1635	956.974895256899	98
1	1637	957.639559493664	99
1	1639	958.236809741966	100
1	1641	959.044455265224	101
1	1645	966.443395500899	102
1	1647	967.077678291844	103
1	1649	968.536836055521	104
1	1651	969.506605374727	105
1	1653	969.797765855932	106
1	1655	969.88978001191	107
1	1657	971.000632688058	107
1	1659	971.225256345039	107
1	1660	971.756235952152	107
1	1662	972.018387198809	107
1	1664	973.812186569487	108
1	1665	975.693757903577	108
1	1666	976.302463272771	107
1	1667	977.014757217015	106
1	1668	977.610169816068	105
1	1669	977.692877812042	104
1	1670	977.876772846993	103
1	1671	978.251711908907	102
1	1672	978.725724139574	101
1	1673	980.589313920299	100
1	1674	983.366272154148	99
1	1676	984.108265502876	99
1	1677	984.981283405771	99
1	1679	985.542779727404	99
1	1680	986.191736463304	99
1	1682	986.250151562076	99
1	1684	986.850756178646	100
1	1685	987.100084498489	100
1	1686	988.319015146094	99
1	1688	988.616071887995	99
1	1689	989.138509003985	99
1	1690	989.553333376402	98
1	1691	992.279448175562	97
1	1695	995.69045972451	96
1	1697	995.710530714225	96
1	1699	995.832687028867	97
1	1701	995.849178500916	98
1	1702	996.143515589327	98
1	1703	997.664915844418	97
1	1704	998.301573908588	96
1	1705	999.323558143568	95
1	1707	1000.099086557465	95
1	1709	1001.452295908778	96
1	1711	1002.078526205301	97
1	1713	1002.704762939368	98
1	1714	1002.816101901703	98
1	1715	1002.818776790667	97
1	1716	1004.351092948368	96
1	1717	1005.050076428627	95
1	1718	1007.476094082808	94
1	1720	1008.195465032965	94
1	1721	1008.640919298425	94
1	1727	1014.643218066679	94
1	1729	1014.991341972661	95
1	1733	1017.00212424879	96
1	1735	1017.399230401674	97
1	1739	1019.489262756018	98
1	1741	1023.897797282363	99
1	1746	1027.631506098931	100
1	1748	1028.395356466992	101
1	1750	1028.425117614467	102
1	1753	1030.204597451667	103
1	1755	1030.279907184648	104
1	1757	1030.476054096343	105
1	1759	1031.201831353773	106
1	1762	1031.499421556836	107
1	1765	1032.888102218111	107
1	1766	1033.653108268009	106
1	1767	1033.998657280118	105
1	1768	1034.046354197019	104
1	1769	1035.201001923799	103
1	1770	1035.386411911833	102
1	1771	1036.210942331278	101
1	1777	1037.36573902516	101
1	1779	1037.730719834647	102
1	1782	1040.411537838565	103
1	1784	1040.908666199781	103
1	1785	1040.990417932609	102
1	1787	1041.482589708059	102
1	1789	1042.087100261356	103
1	1790	1042.704029472897	103
1	1791	1043.227423623324	102
1	1792	1044.781992042745	101
1	1793	1047.255747499138	100
1	1794	1047.534397044562	99
1	1798	1047.878001170785	99
1	1800	1048.135853521238	100
1	1802	1050.052923363906	101
1	1804	1051.06845979527	102
1	1806	1053.66812775888	102
1	1807	1054.291941266254	101
1	1808	1054.550915166471	100
1	1810	1054.873809504648	100
1	1811	1055.808470084498	100
1	1813	1056.191856112335	100
1	1815	1057.450473397239	101
1	1816	1059.538396085702	101
1	1817	1059.881223147134	100
1	1819	1060.064062718172	100
1	1821	1060.380772624942	101
1	1823	1060.605598619033	102
1	1824	1060.612320488941	102
1	1826	1061.598742497903	102
1	1827	1061.943225130473	102
1	1828	1062.084722694563	101
1	1829	1062.256985899994	100
1	1830	1062.768210102763	99
1	1832	1065.169453020764	99
1	1833	1065.410981893878	99
1	1834	1065.786262398514	98
1	1835	1068.298747381732	97
1	1836	1068.75811381674	96
1	1837	1069.806545265683	95
1	1838	1069.965271353818	94
1	1839	1070.031657203521	93
1	1840	1070.293780644635	92
1	1842	1070.388764775577	92
1	1843	1071.132188413128	92
1	1844	1071.686185594833	91
1	1849	1072.578014533264	91
1	1850	1072.658017812012	91
1	1851	1072.707468663304	90
1	1852	1073.208855883323	89
1	1854	1073.622430365012	89
1	1856	1074.27283058041	90
1	1862	1077.60951092111	91
1	1864	1077.708425201823	92
1	1866	1078.795568015789	93
1	1868	1079.696675470247	94
1	1870	1080.578505426827	95
1	1872	1082.436836284774	96
1	1874	1082.865530305703	97
1	1877	1084.939221008051	98
1	1879	1086.404232714277	99
1	1881	1086.830639558626	100
1	1883	1087.582073889741	101
1	1885	1089.26496923541	101
1	1886	1089.300846289484	100
1	1887	1090.349264506869	99
1	1888	1091.121839643175	98
1	1892	1092.111446723279	98
1	1894	1093.973146509648	98
1	1896	1096.156759799007	98
1	1897	1097.686532416012	98
1	1899	1099.959055262333	98
1	1900	1100.037296133078	98
1	1902	1100.727925766117	98
1	1903	1101.096602985746	98
1	1907	1103.471399295281	98
1	1909	1105.472071543471	98
1	1911	1105.623356847158	98
1	1913	1106.02092695098	99
1	1914	1106.98090336962	99
1	1915	1107.103866034129	98
1	1916	1107.395677913024	97
1	1918	1107.50762074563	97
1	1919	1107.866795340894	97
1	1921	1107.911203719756	97
1	1925	1108.732255477723	98
1	1927	1110.47164656535	98
1	1929	1110.785733669377	98
1	1930	1113.88195916978	98
1	1931	1113.955108083218	97
1	1933	1115.355968880711	97
1	1934	1116.377251887336	97
1	1935	1116.839941398556	96
1	1936	1117.358628837516	95
1	1938	1117.693877870779	95
1	1939	1118.281184315617	95
1	1941	1118.722165903362	95
1	1942	1119.751344095276	95
1	1944	1120.168164013802	95
1	1946	1121.411926018846	96
1	1947	1123.901774541662	96
1	1949	1124.576086466994	96
1	1953	1124.893930005548	97
1	1958	1126.761236989814	98
1	1960	1130.309919937255	99
1	1962	1133.339794789963	100
1	1964	1134.499271629966	101
1	1967	1134.837936715614	102
1	1969	1136.178182261819	103
1	1971	1136.243071291833	104
1	1972	1137.185398476375	104
1	1973	1137.331564366449	103
1	1974	1137.663738514088	102
1	1975	1138.021492854567	101
1	1976	1138.042048169333	100
1	1978	1138.313939649631	100
1	1979	1139.162912135202	100
1	1981	1139.320102554962	100
1	1983	1139.573896070047	101
1	1990	1142.621222950103	102
1	1992	1144.162815881716	103
1	1994	1144.508541969904	104
1	1996	1146.500493419862	104
1	2000	1147.580850215109	104
1	2002	1149.532891109719	105
1	2004	1149.866376728641	106
1	2006	1149.876156675373	107
1	2008	1150.918852115847	108
1	2010	1150.96622693047	109
1	2012	1151.324951730512	110
1	2014	1151.9402893947	111
1	2016	1153.456799408931	112
1	2019	1154.829767942104	113
1	2020	1155.094379237741	113
1	2021	1155.251075168167	112
1	2023	1155.339673863915	112
1	2027	1156.220244584578	113
1	2031	1157.856334456743	114
1	2038	1161.232460856012	115
1	2040	1161.795191238778	116
1	2042	1163.092367510274	117
1	2050	1164.700049354732	118
1	2052	1165.011185488036	119
1	2054	1165.938361499415	120
1	2059	1169.787330324831	121
1	2061	1169.863568194792	122
1	2063	1171.916118943996	123
1	2065	1172.108096332442	124
1	2067	1172.791214944743	125
1	2069	1176.24097207437	126
1	2075	1183.389959302039	127
1	2079	1185.569903128226	128
1	2081	1187.176440449509	129
1	2084	1188.564022956712	130
1	2086	1189.727268030003	131
1	2088	1189.826181511248	132
1	2090	1191.076709997514	133
1	2093	1196.23845656971	134
1	2095	1196.437588000751	135
1	2098	1197.952858591391	136
1	2100	1199.507125277261	137
1	2103	1201.650528944241	138
1	2106	1202.972515582805	139
1	2110	1205.408895520015	140
1	2112	1205.709534067649	141
1	2115	1206.314418773518	142
1	2117	1206.474506958256	142
1	2119	1207.45669927708	142
1	2120	1208.191195625219	142
1	2122	1209.010049897097	142
1	2123	1209.231656132094	142
1	2125	1209.668391750652	142
1	2126	1209.700850406423	142
1	2128	1210.032023245227	142
1	2130	1210.844465167286	143
1	2132	1211.42279816072	144
1	2139	1214.246971044042	145
1	2144	1217.799690255823	146
1	2147	1220.721154720786	147
1	2149	1220.748040957416	148
1	2150	1221.084061322119	148
1	2151	1221.148843895444	147
1	2153	1221.745715148395	147
1	2155	1221.872949309375	148
1	2156	1222.436642140802	148
1	2157	1222.477620929745	147
1	2159	1223.081600665168	147
1	2160	1224.600701331332	147
1	2161	1225.564395304263	146
1	2163	1226.598779161324	146
1	2165	1226.694269114103	147
1	2167	1227.813591873888	148
1	2169	1228.708898289426	149
1	2170	1229.130949811495	149
1	2171	1229.152132924055	148
1	2173	1229.212189453596	148
1	2175	1229.894181748423	149
1	2176	1229.900663014721	149
1	2178	1230.386431397615	149
1	2179	1230.855221071203	149
1	2183	1234.003750997634	149
1	2185	1235.014500122995	150
1	2191	1237.164444444907	151
1	2195	1239.968134837808	152
1	2197	1240.021673342038	153
1	2200	1242.358180316437	154
1	2203	1245.504001026825	155
1	2205	1248.077424699872	156
1	2207	1248.869610446026	157
1	2215	1255.295432425885	158
1	2218	1257.140842048209	159
1	2220	1260.055301336192	159
1	2221	1260.682183373315	158
1	2223	1261.682538105081	158
1	2224	1261.973100668772	158
1	2225	1263.643498189367	157
1	2226	1264.391785746662	156
1	2227	1265.911629652314	155
1	2229	1266.440371804401	155
1	2231	1267.410292594288	156
1	2232	1268.333925153504	156
1	2236	1272.374272074981	156
1	2238	1274.161334730804	157
1	2240	1275.286269820936	158
1	2242	1275.416579539731	159
1	2244	1278.323166148229	159
1	2248	1281.021383995517	159
1	2250	1281.190814012279	160
1	2254	1284.369466470228	161
1	2256	1285.348137053206	162
1	2261	1291.618480732869	163
1	2263	1292.920033991161	164
1	2265	1293.741004997687	165
1	2267	1293.86384012255	166
1	2269	1295.203034431945	167
1	2273	1297.481240944431	168
1	2275	1300.595664792498	169
1	2282	1308.413388974055	170
1	2284	1309.349430135443	171
1	2286	1312.228024177158	172
1	2288	1312.53894131886	173
1	2290	1312.925025317178	174
1	2292	1313.570094390989	175
1	2294	1314.133097621721	176
1	2296	1315.485977416197	177
1	2300	1316.933928780616	178
1	2302	1317.878140922996	179
1	2304	1318.658514378934	180
1	2306	1319.278031595866	181
1	2308	1320.039183043433	182
1	2310	1320.254908179987	183
1	2312	1320.837071062697	184
1	2314	1322.512170790683	185
1	2317	1324.34919695497	186
1	2321	1326.932861242319	187
1	2323	1327.581091148777	188
1	2325	1331.270812924579	189
1	2327	1332.29190772577	190
1	2331	1343.303641538922	191
1	2332	1344.262576114009	191
1	2333	1344.311487195024	190
1	2334	1345.83087203122	189
1	2335	1345.868605744739	188
1	2336	1345.909656016022	187
1	2337	1346.119368143848	186
1	2339	1346.209348515403	186
1	2340	1346.47704418124	186
1	2344	1348.94454439191	185
1	2346	1349.487467715743	185
1	2348	1349.57947901691	186
1	2349	1349.854514579142	186
1	2351	1350.432799568348	186
1	2352	1351.439397586418	186
1	2353	1352.301818052037	185
1	2354	1352.997810515442	184
1	2356	1353.198901555631	184
1	2357	1353.730201943916	184
1	2359	1353.829196757428	184
1	2360	1355.045733936303	184
1	2361	1355.949600695362	183
1	2363	1357.524795070702	183
1	2364	1359.400330368251	183
1	2365	1359.583214242926	182
1	2366	1360.227658754425	181
1	2367	1360.370745281466	180
1	2369	1361.879211228074	180
1	2370	1362.170369598918	180
1	2372	1362.416846934048	180
1	2373	1362.955689561835	180
1	2374	1363.236290077446	179
1	2375	1366.96333304333	178
1	2376	1367.939086028634	177
1	2378	1367.952469154064	177
1	2380	1368.875589877287	178
1	2381	1369.307623327849	178
1	2382	1371.859387099283	177
1	2383	1372.401186768491	176
1	2384	1373.300065165412	175
1	2385	1374.491536433904	174
1	2386	1376.566198620812	173
1	2388	1376.742858184314	173
1	2390	1377.253399828932	174
1	2391	1377.359346252877	174
1	2392	1377.393293764323	173
1	2393	1377.885916533643	172
1	2394	1378.077623028989	171
1	2395	1378.631432588872	170
1	2396	1379.015095572508	169
1	2397	1379.763141467433	168
1	2406	1383.528585468163	168
1	2408	1385.262681001325	169
1	2410	1390.611246876484	170
1	2412	1391.698551360245	171
1	2414	1392.369688254587	172
1	2416	1392.72949826075	173
1	2418	1396.997434363786	174
1	2420	1399.273766972318	175
1	2424	1403.552393599819	176
1	2429	1409.259220729538	177
1	2432	1414.562372771761	178
1	2435	1416.533323505003	179
1	2437	1418.808489510235	180
1	2439	1421.452031779844	180
1	2440	1421.891807653424	179
1	2441	1423.531021334363	178
1	2442	1424.039236048722	177
1	2443	1424.498097774692	176
1	2444	1425.056283558435	175
1	2446	1425.493743698549	175
1	2450	1426.77857457792	175
1	2452	1428.768533613186	175
1	2453	1428.867214062129	175
1	2454	1429.633614749243	174
1	2455	1429.799753998643	173
1	2457	1430.851810629388	173
1	2459	1430.877800397209	174
1	2460	1431.00618767392	174
1	2461	1431.184695362458	173
1	2462	1431.377254549535	172
1	2464	1433.103135260996	172
1	2465	1433.383797524126	172
1	2466	1434.369038506152	171
1	2468	1434.494607074792	171
1	2469	1435.076526783776	171
1	2471	1435.292769687743	171
1	2472	1435.843999937113	171
1	2476	1439.437351368825	171
1	2478	1442.940523385782	171
1	2479	1443.461555107444	170
1	2480	1444.3853584332	169
1	2481	1444.54372899819	168
1	2483	1444.689372999248	168
1	2485	1446.20494365202	169
1	2487	1446.668922466388	170
1	2488	1447.445469516611	170
1	2489	1447.745740465003	169
1	2490	1448.634131329095	168
1	2491	1449.784444012184	167
1	2493	1450.344280677899	167
1	2494	1450.686752972489	167
1	2496	1450.9736969854	167
1	2497	1451.626539331361	167
1	2499	1452.077498085046	167
1	2500	1452.502398772175	167
1	2502	1452.875623813898	167
1	2503	1453.032263164018	167
1	2504	1453.264438937464	166
1	2506	1453.370265294237	166
1	2507	1454.14023248142	166
1	2509	1454.542575869421	166
1	2511	1455.781363088095	167
1	2512	1457.407065447842	167
1	2513	1458.198759732221	166
1	2514	1458.396085574109	165
1	2515	1459.10605450679	164
1	2517	1459.465782559478	164
1	2519	1459.472261608342	165
1	2520	1460.088085605349	165
1	2521	1460.237457377124	164
1	2522	1461.424474698091	163
1	2524	1462.249316475276	163
1	2525	1462.799757666037	163
1	2527	1463.52777620269	163
1	2528	1463.851134754652	163
1	2529	1464.098155033494	162
1	2531	1464.596098750978	162
1	2532	1465.519042937256	162
1	2534	1465.590000412654	162
1	2535	1466.661045824668	162
1	2536	1467.377544840294	161
1	2538	1467.555244025188	161
1	2540	1467.599088951794	162
1	2541	1468.408572207989	162
1	2545	1475.513764147879	161
1	2547	1476.047833132845	161
1	2549	1476.977408500374	162
1	2550	1477.146156276664	162
1	2551	1477.844976603884	161
1	2553	1478.308829258635	161
1	2554	1479.269214447719	161
1	2555	1479.987476870623	160
1	2556	1481.048152465599	159
1	2557	1481.048578114013	158
1	2558	1484.65655372586	157
1	2559	1485.806457107615	156
1	2560	1485.904461349139	155
1	2561	1487.401335185301	154
1	2563	1488.178444007151	154
1	2564	1489.10612062823	154
1	2566	1489.793387705978	154
1	2567	1491.069808830122	154
1	2569	1491.939045756507	154
1	2570	1494.239047398449	154
1	2572	1494.390864146928	154
1	2576	1494.899028007613	155
1	2580	1496.571054633118	156
1	2582	1497.247614344528	157
1	2584	1500.335207022073	158
1	2586	1501.522449663857	159
1	2588	1502.071325254032	160
1	2590	1504.136733491523	161
1	2594	1507.078787758028	162
1	2597	1508.211104007847	163
1	2599	1508.359067130103	164
1	2601	1508.455327049286	165
1	2604	1510.079732001229	166
1	2606	1515.563748646152	167
1	2608	1517.247920472067	168
1	2610	1518.842487888859	169
1	2612	1520.62806327363	170
1	2614	1522.295075497859	171
1	2616	1524.235693511037	172
1	2618	1527.576170554719	173
1	2620	1528.039778483285	174
1	2622	1529.403797302034	175
1	2624	1530.333145590962	176
1	2626	1532.535468037528	176
1	2628	1532.658222126282	176
1	2629	1534.276983781159	176
1	2631	1534.610283974099	176
1	2632	1534.935760523634	176
1	2633	1536.281905502079	175
1	2635	1537.112581334793	175
1	2637	1537.439578968597	176
1	2638	1537.628596506961	176
1	2640	1538.479979260132	176
1	2644	1541.980109535146	177
1	2646	1544.144779629335	177
1	2647	1544.678642372182	176
1	2648	1544.685085694262	175
1	2649	1546.289068123116	174
1	2650	1547.245030347573	173
1	2651	1549.562162873211	172
1	2652	1549.921692236859	171
1	2654	1550.341960150042	171
1	2656	1550.83066062702	172
1	2657	1551.832361220527	172
1	2659	1552.553656947312	172
1	2660	1553.040982820222	172
1	2661	1553.605896929299	171
1	2663	1554.444160379773	171
1	2664	1555.357243488932	171
1	2666	1556.46965574238	171
1	2667	1556.541460701579	171
1	2668	1556.976880108619	170
1	2669	1557.61015535689	169
1	2671	1558.200153605498	169
1	2673	1558.323537992985	170
1	2675	1559.611521340144	171
1	2676	1561.426798278573	171
1	2678	1561.921517248041	171
1	2679	1561.974500315309	171
1	2681	1562.249196730998	171
1	2682	1562.498351186803	171
1	2683	1563.9475180247	170
1	2684	1564.135791636243	169
1	2686	1564.264011313178	169
1	2688	1565.017475779134	170
1	2689	1566.234492519993	170
1	2690	1566.433924186217	169
1	2691	1566.963120462006	168
1	2697	1568.791476641076	168
1	2701	1573.135464158439	169
1	2702	1575.643765935495	169
1	2703	1575.826559357879	168
1	2704	1575.951227804764	167
1	2705	1577.766466197518	166
1	2706	1578.253457233938	165
1	2707	1578.610189027156	164
1	2709	1578.960277876502	164
1	2710	1578.983266273824	164
1	2712	1579.301235420959	164
1	2713	1581.936095500201	164
1	2714	1582.029164446467	163
1	2715	1583.030596478	162
1	2716	1583.084540015433	161
1	2717	1583.317347703337	160
1	2718	1585.148463638886	159
1	2719	1585.238922340218	158
1	2721	1586.221490982371	158
1	2722	1586.751248044332	158
1	2723	1588.581585441161	157
1	2724	1588.663739505103	156
1	2725	1589.835103808837	155
1	2726	1589.845886736379	154
1	2728	1590.264922845298	154
1	2729	1590.312280773714	154
1	2730	1590.573014183143	153
1	2731	1595.572546278041	152
1	2733	1595.980184083324	152
1	2734	1598.162083166259	152
1	2735	1598.535720773086	151
1	2737	1598.57929918881	151
1	2739	1599.988159408847	152
1	2740	1600.063237238518	152
1	2741	1600.297542747474	151
1	2743	1600.476144940173	151
1	2744	1600.776252959261	151
1	2746	1601.313092761309	151
1	2747	1604.119985028079	151
1	2748	1604.473269516385	150
1	2749	1604.608435219448	149
1	2750	1605.225583812063	148
1	2751	1606.563148961233	147
1	2752	1607.483641509113	146
1	2754	1607.776933694122	146
1	2756	1608.366045671167	147
1	2757	1608.380704247154	147
1	2758	1608.391201579453	146
1	2759	1608.652193243406	145
1	2760	1609.214298616104	144
1	2761	1609.371420906456	143
1	2763	1610.059039017694	143
1	2764	1610.184304464493	143
1	2765	1611.2060724883	142
1	2767	1611.587092698381	142
1	2769	1611.593855051221	143
1	2771	1611.967951781056	144
1	2772	1613.582166567357	144
1	2773	1614.628996873327	143
1	2774	1614.942453462477	142
1	2776	1616.810111203731	142
1	2777	1617.173106316363	142
1	2779	1617.633125003924	142
1	2781	1618.673168568527	143
1	2782	1619.139253568134	143
1	2783	1619.264128454952	142
1	2785	1619.985660983828	142
1	2786	1620.016093416517	142
1	2787	1620.081380439785	141
1	2788	1620.212715552258	140
1	2790	1620.581757724722	140
1	2791	1620.590445863201	140
1	2792	1622.054117783839	139
1	2793	1622.374391998677	138
1	2795	1623.351097092077	138
1	2797	1624.388150608152	139
1	2798	1625.691623390306	139
1	2799	1625.971127711064	138
1	2801	1626.531071652044	138
1	2802	1627.18160807243	138
1	2803	1627.276626204022	137
1	2805	1628.528297325991	137
1	2807	1628.97033763747	138
1	2808	1629.206355638112	138
1	2810	1629.238341134433	138
1	2811	1629.34536635876	138
1	2812	1630.354702167545	137
1	2814	1630.362935843495	137
1	2815	1630.827900359006	137
1	2816	1631.497623769188	136
1	2817	1633.134597529083	135
1	2825	1637.187541537461	135
1	2828	1641.716519042777	136
1	2830	1645.036979548545	137
1	2832	1645.061137397707	138
1	2834	1648.255600764167	139
1	2843	1652.989624735826	140
1	2845	1653.530297649714	140
1	2847	1654.069347738449	140
1	2848	1654.388454541659	140
1	2850	1654.737532078934	140
1	2851	1654.874075472091	140
1	2853	1655.937098800819	140
1	2855	1656.888317853678	141
1	2856	1657.15147776276	141
1	2858	1657.745633214502	141
1	2859	1658.176732068932	141
1	2860	1658.671785474017	140
1	2861	1659.028645806316	139
1	2862	1659.603942362664	138
1	2863	1659.625487438345	137
1	2864	1659.890345492763	136
1	2866	1662.949831096336	136
1	2867	1664.976266521317	136
1	2869	1665.401276512695	136
1	2870	1666.059214159657	136
1	2871	1666.443353468544	135
1	2873	1668.035899860959	135
1	2875	1668.6218766264	136
1	2876	1670.027807938905	136
1	2877	1670.394046482292	135
1	2878	1671.002925482105	134
1	2879	1671.01136756988	133
1	2881	1671.550246404795	133
1	2885	1673.858873370646	134
1	2887	1675.667953418453	135
1	2889	1675.952587229349	136
1	2891	1676.745868774224	136
1	2892	1677.0947454442	135
1	2894	1677.181667635725	135
1	2895	1677.57254321748	135
1	2899	1679.90988450524	134
1	2900	1680.330750355075	133
1	2902	1681.023136093337	133
1	2904	1681.687740252343	134
1	2905	1682.208289059104	134
1	2907	1682.389016669198	134
1	2908	1682.671056197347	134
1	2909	1683.845172155412	133
1	2910	1684.302067636467	132
1	2911	1684.534611459984	131
1	2912	1684.874170949519	130
1	2913	1684.923996603953	129
1	2915	1685.198825179304	129
1	2917	1685.300232104466	130
1	2918	1685.50948391698	130
1	2919	1685.75903172864	129
1	2921	1687.015336951529	129
1	2923	1687.245782921433	130
1	2924	1687.549298600683	130
1	2925	1687.821116787444	129
1	2926	1688.259678777047	128
1	2927	1688.326307234592	127
1	2928	1688.784174452842	126
1	2930	1690.033004860035	126
1	2931	1691.342420165652	126
1	2932	1691.413997699063	125
1	2934	1691.441730365123	125
1	2935	1694.599062784443	125
1	2936	1695.493282834519	124
1	2938	1695.67976248533	124
1	2940	1696.779945000349	125
1	2941	1697.239217765695	125
1	2943	1698.433750128985	125
1	2945	1698.963228349357	126
1	2946	1699.021868738449	126
1	2948	1699.169648782598	126
1	2950	1701.15586921067	127
1	2952	1701.890032255524	128
1	2954	1702.47176712915	129
1	2955	1702.887520922558	129
1	2956	1703.287262944815	128
1	2958	1703.621283076167	128
1	2960	1703.827614268082	129
1	2962	1703.839036041845	130
1	2966	1706.321389686286	131
1	2968	1706.442263814367	132
1	2970	1706.802290614209	133
1	2972	1708.478092880226	134
1	2977	1710.946149133675	135
1	2979	1711.719460354065	135
1	2980	1711.899325674273	134
1	2981	1711.990478798114	133
1	2983	1712.071178720411	133
1	2985	1713.546071583437	134
1	2987	1713.949136234495	135
1	2988	1713.960651509353	135
1	2990	1714.005996752244	135
1	2992	1715.386809461806	136
1	2993	1715.597229350698	136
1	2994	1715.66589226092	135
1	2995	1716.234435616634	134
1	2996	1716.698880395758	133
1	2997	1716.900662727641	132
1	2998	1717.414182367151	131
1	3000	1717.703918270167	131
1	3001	1718.175007239547	131
1	3003	1718.83809222992	131
1	3009	1721.4202874441	132
1	3013	1722.543930821187	133
1	3017	1727.29529828324	134
1	3019	1727.995293976927	135
1	3022	1729.79924404215	136
1	3024	1731.454046475042	137
1	3025	1732.836864067568	137
1	3027	1733.641792292647	137
1	3028	1734.127644018338	137
1	3030	1736.576453002462	137
1	3031	1738.267323655427	137
1	3032	1738.984507407786	136
1	3033	1739.865140597194	135
1	3035	1740.692671466698	135
1	3037	1741.886963699366	136
1	3038	1742.151499518818	136
1	3040	1743.192345084033	136
1	3042	1745.407344963208	137
1	3043	1746.004554223068	137
1	3044	1748.171492205461	136
1	3046	1748.252661472725	136
1	3047	1748.378159327313	136
1	3049	1749.736882997458	136
1	3051	1749.750658837157	137
1	3053	1749.930291421475	138
1	3054	1750.861365183602	138
1	3056	1750.914320981967	138
1	3057	1753.454290717445	138
1	3059	1754.039251679122	138
1	3060	1754.087860465208	138
1	3065	1758.617284035796	138
1	3066	1759.025372562845	138
1	3067	1760.143339104367	137
1	3068	1760.569317372822	136
1	3072	1761.219544039109	135
1	3074	1761.406234280016	135
1	3076	1763.433605905426	136
1	3077	1763.473825853451	136
1	3079	1763.772103106948	136
1	3080	1764.296959814194	136
1	3081	1764.745219270515	135
1	3083	1765.581739657176	135
1	3085	1766.239539826369	136
1	3086	1766.723686663464	136
1	3088	1769.147363102182	136
1	3089	1769.663634158151	136
1	3093	1771.841462096031	135
1	3094	1772.032587401133	134
1	3095	1773.810337571414	133
1	3097	1776.515058825508	133
1	3098	1777.214058464705	133
1	3099	1778.095554057034	132
1	3100	1778.606642531313	131
1	3101	1779.040867916622	130
1	3103	1779.589518827506	130
1	3104	1779.668138612457	130
1	3105	1780.814160885046	129
1	3106	1781.971338549602	128
1	3108	1783.103777808372	128
1	3109	1783.36220239175	128
1	3110	1783.53423743913	127
1	3111	1783.816855436002	126
1	3112	1784.038300121345	125
1	3113	1785.004919376633	124
1	3114	1785.814038324283	123
1	3118	1786.876966045172	123
1	3120	1790.555738232333	123
1	3122	1790.745455258415	123
1	3124	1792.190753440125	124
1	3125	1792.570817476789	124
1	3126	1793.256809847835	123
1	3127	1793.466802340637	122
1	3129	1797.670507033302	122
1	3131	1798.287041160017	123
1	3132	1798.592117130029	123
1	3134	1800.091334877918	123
1	3135	1801.307899502041	123
1	3136	1801.515123541086	122
1	3137	1801.597720112469	121
1	3139	1802.144987185443	121
1	3141	1803.10586536905	122
1	3142	1803.691237407627	122
1	3144	1804.630391557477	122
1	3145	1806.054775225554	122
1	3147	1806.107547564989	122
1	3149	1806.76964296415	123
1	3150	1807.433102943907	123
1	3152	1808.03897878339	123
1	3154	1808.364685922008	124
1	3158	1809.728333131992	124
1	3159	1809.757561739501	123
1	3160	1811.142786443571	122
1	3161	1811.346861043072	121
1	3162	1812.068522335421	120
1	3163	1812.634829689999	119
1	3164	1813.483197323468	118
1	3165	1813.659531831616	117
1	3166	1814.63072890136	116
1	3167	1816.89374442023	115
1	3168	1817.186525408074	114
1	3170	1817.603555967564	114
1	3172	1818.124625959279	115
1	3173	1818.131794669665	115
1	3174	1819.579729271065	114
1	3176	1819.644032054649	114
1	3177	1821.191197765818	114
1	3178	1821.391966187741	113
1	3180	1821.907714268948	113
1	3181	1822.048652247262	113
1	3182	1822.283738155058	112
1	3184	1822.604374187522	112
1	3185	1822.74193814978	112
1	3186	1824.687213074374	111
1	3188	1824.932569132611	111
1	3189	1825.371699090375	111
1	3191	1825.388009113513	111
1	3193	1825.946292318511	112
1	3195	1826.110688267935	113
1	3196	1826.46637839836	113
1	3197	1826.888589281727	112
1	3199	1829.944412803799	112
1	3201	1830.902739394103	113
1	3202	1831.405254477683	113
1	3203	1832.609506947455	112
1	3205	1832.750617347929	112
1	3206	1832.920915533451	112
1	3207	1833.465845317981	111
1	3208	1833.769780371569	110
1	3209	1835.203816374548	109
1	3210	1836.206155551464	108
1	3214	1840.679066109546	107
1	3215	1842.07080660754	106
1	3216	1842.241327351191	105
1	3222	1845.999639627752	105
1	3225	1851.034034539787	106
1	3227	1851.773624786027	107
1	3229	1854.502195527194	108
1	3231	1854.619376693676	109
1	3233	1854.765734155049	110
1	3235	1860.589070969222	111
1	3237	1861.485131482468	112
1	3239	1861.50337269731	113
1	3241	1865.996245510269	114
1	3243	1866.063002967346	115
1	3246	1866.662916604058	116
1	3248	1867.458192841263	117
1	3250	1867.578487058035	118
1	3252	1867.963637387873	119
1	3253	1868.459942348162	119
1	3255	1869.918890622	119
1	3256	1870.777027895722	119
1	3257	1871.333586277914	118
1	3258	1872.622581443882	117
1	3259	1872.804766411898	116
[...]
10	1806	1053.66812775888	202.5579951496
10	1807	1054.291941266254	200.65212037183
10	1808	1054.550915166471	200.45505913878
10	1811	1055.808470084498	200.04879105896
10	1816	1059.538396085702	202.98944475467
10	1817	1059.881223147134	197.45468214956
10	1824	1060.612320488941	193.70628935281
10	1827	1061.943225130473	188.13181504014
10	1828	1062.084722694563	185.7770864573
10	1829	1062.256985899994	185.9116949027
10	1830	1062.768210102763	184.4365464295
10	1833	1065.410981893878	186.51920059886
10	1834	1065.786262398514	185.56227170995
10	1835	1068.298747381732	186.45548081915
10	1836	1068.75811381674	185.12668935626
10	1837	1069.806545265683	185.64006975825
10	1838	1069.965271353818	184.42859861336
10	1839	1070.031657203521	182.08875043319
10	1840	1070.293780644635	178.1102095378
10	1843	1071.132188413128	174.59129196674
10	1844	1071.686185594833	172.92829952176
10	1850	1072.658017812012	170.04751608955
10	1851	1072.707468663304	168.39214090099
10	1852	1073.208855883323	166.0171238851
10	1885	1089.26496923541	177.58654072906
10	1886	1089.300846289484	176.24178023709
10	1887	1090.349264506869	174.82498077048
10	1888	1091.121839643175	174.24528828231
10	1894	1093.973146509648	176.16252016429
10	1897	1097.686532416012	179.33046789863
10	1900	1100.037296133078	180.16591369582
10	1903	1101.096602985746	177.07552615879
10	1909	1105.472071543471	174.99846539199
10	1914	1106.98090336962	176.10336064216
10	1915	1107.103866034129	176.02195934209
10	1916	1107.395677913024	175.73374641895
10	1919	1107.866795340894	176.07480993944
10	1927	1110.47164656535	175.04044319178
10	1930	1113.88195916978	177.90696786242
10	1931	1113.955108083218	174.91908519692
10	1934	1116.377251887336	175.91306279649
10	1935	1116.839941398556	173.48367792766
10	1936	1117.358628837516	172.27678007443
10	1939	1118.281184315617	166.14030955588
10	1942	1119.751344095276	166.06865349343
10	1947	1123.901774541662	166.92687928476
10	1972	1137.185398476375	178.94858873441
10	1973	1137.331564366449	178.28710910122
10	1974	1137.663738514088	171.22034301319
10	1975	1138.021492854567	170.94381456272
10	1976	1138.042048169333	169.50521211381
10	1979	1139.162912135202	169.65630676047
10	1996	1146.500493419862	176.61071340795
10	2020	1155.094379237741	183.07599203893
10	2021	1155.251075168167	181.43888859868
10	2117	1206.474506958256	220.93172723085
10	2120	1208.191195625219	221.94104406314
10	2123	1209.231656132094	222.38089995345
10	2126	1209.700850406423	221.08477851843
10	2150	1221.084061322119	225.2348828212
10	2151	1221.148843895444	221.04975733798
10	2156	1222.436642140802	220.98434623202
10	2157	1222.477620929745	220.39909472444
10	2160	1224.600701331332	221.89593839196
10	2161	1225.564395304263	217.3689302713
10	2170	1229.130949811495	216.9048264475
10	2171	1229.152132924055	214.50891485738
10	2176	1229.900663014721	214.90932104206
10	2179	1230.855221071203	213.85309682241
10	2220	1260.055301336192	240.56603858017
10	2221	1260.682183373315	236.78438609095
10	2224	1261.973100668772	234.34159456984
10	2225	1263.643498189367	235.24814172237
10	2226	1264.391785746662	235.96666813219
10	2227	1265.911629652314	235.70703220065
10	2232	1268.333925153504	238.05401796886
10	2244	1278.323166148229	247.12133479446
10	2332	1344.262576114009	307.47081295474
10	2333	1344.311487195024	306.94574816986
10	2334	1345.83087203122	308.10015219657
10	2335	1345.868605744739	305.45706790617
10	2336	1345.909656016022	304.42706630796
10	2337	1346.119368143848	304.03226788249
10	2340	1346.47704418124	298.91266042302
10	2344	1348.94454439191	300.80869087067
10	2349	1349.854514579142	299.80159121524
10	2352	1351.439397586418	300.37093779115
10	2353	1352.301818052037	297.42800854739
10	2354	1352.997810515442	296.80595440311
10	2357	1353.730201943916	296.27972854668
10	2360	1355.045733936303	294.98167121813
10	2361	1355.949600695362	295.56882807042
10	2364	1359.400330368251	298.79473174922
10	2365	1359.583214242926	297.98447174502
10	2366	1360.227658754425	295.05820573366
10	2367	1360.370745281466	289.98198050589
10	2370	1362.170369598918	290.23895791028
10	2373	1362.955689561835	290.37767502857
10	2374	1363.236290077446	289.61385971243
10	2375	1366.96333304333	292.69050246292
10	2376	1367.939086028634	293.47761729523
10	2381	1369.307623327849	291.69811240674
10	2382	1371.859387099283	294.15096189746
10	2383	1372.401186768491	293.6056187527
10	2384	1373.300065165412	293.60338969516
10	2385	1374.491536433904	293.91303100708
10	2386	1376.566198620812	294.12936233604
10	2391	1377.359346252877	294.49381594717
10	2392	1377.393293764323	292.45407275627
10	2393	1377.885916533643	291.48168381937
10	2394	1378.077623028989	291.24698347036
10	2395	1378.631432588872	291.04935869913
10	2396	1379.015095572508	287.49299291464
10	2397	1379.763141467433	287.65169474415
10	2439	1421.452031779844	321.49297651751
10	2440	1421.891807653424	321.16388188731
10	2441	1423.531021334363	322.31349963255
10	2442	1424.039236048722	320.56783675344
10	2443	1424.498097774692	318.87474092753
10	2444	1425.056283558435	319.03535660746
10	2450	1426.77857457792	318.86737085816
10	2453	1428.867214062129	320.47299199811
10	2454	1429.633614749243	320.90135927152
10	2455	1429.799753998643	319.01402032927
10	2460	1431.00618767392	315.65021879321
10	2461	1431.184695362458	313.49081749168
10	2462	1431.377254549535	312.65508864617
10	2465	1433.383797524126	313.21563351032
10	2466	1434.369038506152	312.95711248731
10	2469	1435.076526783776	310.50044031678
10	2472	1435.843999937113	310.97930787233
10	2478	1442.940523385782	316.17928639597
10	2479	1443.461555107444	313.15163517019
10	2480	1444.3853584332	311.04556364324
10	2481	1444.54372899819	310.04445736822
10	2488	1447.445469516611	312.607532801
10	2489	1447.745740465003	311.56755820318
10	2490	1448.634131329095	312.39106003726
10	2491	1449.784444012184	311.47050436255
10	2494	1450.686752972489	311.36665041753
10	2497	1451.626539331361	312.05264326131
10	2500	1452.502398772175	312.65727509345
10	2503	1453.032263164018	310.41104021391
10	2504	1453.264438937464	309.10162305575
10	2507	1454.14023248142	309.63169051152
10	2512	1457.407065447842	310.02417964243
10	2513	1458.198759732221	310.61790951711
10	2514	1458.396085574109	308.86319446439
10	2515	1459.10605450679	309.23967777815
10	2520	1460.088085605349	310.21192892998
10	2521	1460.237457377124	309.31860526128
10	2522	1461.424474698091	310.45824776762
10	2525	1462.799757666037	311.47480593553
10	2528	1463.851134754652	311.91084535995
10	2529	1464.098155033494	310.64135562456
10	2532	1465.519042937256	310.68927499515
10	2535	1466.661045824668	311.32137196075
10	2536	1467.377544840294	311.64406451918
10	2541	1468.408572207989	312.18832762341
10	2545	1475.513764147879	314.28130329187
10	2550	1477.146156276664	315.35096503789
10	2551	1477.844976603884	314.75260909361
10	2554	1479.269214447719	314.56916509299
10	2555	1479.987476870623	314.97629138259
10	2556	1481.048152465599	315.10979096618
10	2557	1481.048578114013	311.26124778918
10	2558	1484.65655372586	314.79298553107
10	2559	1485.806457107615	313.89033816362
10	2560	1485.904461349139	313.7963650167
10	2561	1487.401335185301	314.61012024056
10	2564	1489.10612062823	312.86514855386
10	2567	1491.069808830122	307.67984952808
10	2570	1494.239047398449	308.66914427022
10	2626	1532.535468037528	343.97144508082
10	2629	1534.276983781159	344.54971575116
10	2632	1534.935760523634	345.10957901239
10	2633	1536.281905502079	345.20519550456
10	2638	1537.628596506961	341.39013993725
10	2646	1544.144779629335	346.19192103794
10	2647	1544.678642372182	345.17151709492
10	2648	1544.685085694262	343.03455675002
10	2649	1546.289068123116	343.31655254031
10	2650	1547.245030347573	341.83613482756
10	2651	1549.562162873211	343.85262880556
10	2652	1549.921692236859	343.60727346334
10	2657	1551.832361220527	344.37566194345
10	2660	1553.040982820222	344.03093292312
10	2661	1553.605896929299	343.93750517865
10	2664	1555.357243488932	345.32522024371
10	2667	1556.541460701579	345.69699553429
10	2668	1556.976880108619	345.5540819479
10	2669	1557.61015535689	346.13718732314
10	2676	1561.426798278573	347.72547182006
10	2679	1561.974500315309	347.72752927127
10	2682	1562.498351186803	346.12248313504
10	2683	1563.9475180247	346.14782776888
10	2684	1564.135791636243	343.41463691546
10	2689	1566.234492519993	345.48645156258
10	2690	1566.433924186217	344.68820903782
10	2691	1566.963120462006	345.09017115263
10	2702	1575.643765935495	349.04498677417
10	2703	1575.826559357879	349.13229024378
10	2704	1575.951227804764	348.13763593088
10	2705	1577.766466197518	349.05756790809
10	2706	1578.253457233938	349.04126778034
10	2707	1578.610189027156	348.71600727873
10	2710	1578.983266273824	348.59683487621
10	2713	1581.936095500201	349.10685636442
10	2714	1582.029164446467	348.02541344883
10	2715	1583.030596478	348.01609635501
10	2716	1583.084540015433	345.92009557053
10	2717	1583.317347703337	343.34921286553
10	2718	1585.148463638886	345.12679029685
10	2719	1585.238922340218	342.88074202378
10	2722	1586.751248044332	341.24724701751
10	2723	1588.581585441161	340.50416074129
10	2724	1588.663739505103	339.79412905908
10	2725	1589.835103808837	334.53967138295
10	2726	1589.845886736379	332.70504468817
10	2729	1590.312280773714	328.62974266863
10	2730	1590.573014183143	324.13264237874
10	2731	1595.572546278041	328.16225368375
10	2734	1598.162083166259	327.42532100207
10	2735	1598.535720773086	326.16144869811
10	2740	1600.063237238518	325.90190250771
10	2741	1600.297542747474	325.01127292654
10	2744	1600.776252959261	325.35967341953
10	2747	1604.119985028079	324.50191264968
10	2748	1604.473269516385	323.45188552087
10	2749	1604.608435219448	323.41762120717
10	2750	1605.225583812063	320.85611734183
10	2751	1606.563148961233	321.21501190803
10	2752	1607.483641509113	315.86516077624
10	2757	1608.380704247154	315.46067025599
10	2758	1608.391201579453	314.65019658177
10	2759	1608.652193243406	314.78835312086
10	2760	1609.214298616104	314.01126418416
10	2761	1609.371420906456	311.89017996203
10	2764	1610.184304464493	309.58863967199
10	2765	1611.2060724883	302.79268351424
10	2772	1613.582166567357	304.23273643191
10	2773	1614.628996873327	302.40097269617
10	2774	1614.942453462477	302.40351214362
10	2777	1617.173106316363	304.24808099918
10	2782	1619.139253568134	305.56915917714
10	2783	1619.264128454952	305.13103083323
10	2786	1620.016093416517	304.53011600032
10	2787	1620.081380439785	303.14745165917
10	2788	1620.212715552258	302.33457462926
10	2791	1620.590445863201	301.93193148427
10	2792	1622.054117783839	302.77608618797
10	2793	1622.374391998677	302.33520895524
10	2798	1625.691623390306	305.43671521032
10	2799	1625.971127711064	305.13405664837
10	2802	1627.18160807243	304.66943728175
10	2803	1627.276626204022	302.92742924905
10	2808	1629.206355638112	302.27349439579
10	2811	1629.34536635876	301.76427520998
10	2812	1630.354702167545	299.08388924297
10	2815	1630.827900359006	298.53599263324
10	2816	1631.497623769188	288.19398223027
10	2817	1633.134597529083	286.92524901368
10	2845	1653.530297649714	303.9508186328
10	2848	1654.388454541659	303.95565497331
10	2851	1654.874075472091	301.67517391646
10	2856	1657.15147776276	303.32228100533
10	2859	1658.176732068932	300.65193699823
10	2860	1658.671785474017	296.79257424594
10	2861	1659.028645806316	296.61179887227
10	2862	1659.603942362664	291.6514732086
10	2863	1659.625487438345	290.74989756106
10	2864	1659.890345492763	283.14748730845
10	2867	1664.976266521317	287.72286669238
10	2870	1666.059214159657	285.57641383536
10	2871	1666.443353468544	282.91476800038
10	2876	1670.027807938905	284.76512693758
10	2877	1670.394046482292	279.78279960581
10	2878	1671.002925482105	279.30437412186
10	2879	1671.01136756988	278.64167931529
10	2891	1676.745868774224	279.74843441044
10	2892	1677.0947454442	277.82097847188
10	2895	1677.57254321748	274.02014961766
10	2899	1679.90988450524	265.34751173348
10	2900	1680.330750355075	263.79742685007
10	2905	1682.208289059104	263.39979954887
10	2908	1682.671056197347	257.1773124988
10	2909	1683.845172155412	257.91550686055
10	2910	1684.302067636467	255.53353402328
10	2911	1684.534611459984	253.6828008306
10	2912	1684.874170949519	253.99637055231
10	2913	1684.923996603953	251.82086134296
10	2918	1685.50948391698	251.01487684219
10	2919	1685.75903172864	250.4662620409
10	2924	1687.549298600683	251.00542315622
10	2925	1687.821116787444	248.38376541862
10	2926	1688.259678777047	243.5703057778
10	2927	1688.326307234592	242.12136358257
10	2928	1688.784174452842	242.11525198645
10	2931	1691.342420165652	240.99813948775
10	2932	1691.413997699063	240.44030071366
10	2935	1694.599062784443	242.5215646994
10	2936	1695.493282834519	242.61765902062
10	2941	1697.239217765695	243.86895247146
10	2946	1699.021868738449	244.47929286903
10	2955	1702.887520922558	247.10615783446
10	2956	1703.287262944815	243.82148038534
10	2979	1711.719460354065	248.19168415138
10	2980	1711.899325674273	247.3032269233
10	2981	1711.990478798114	246.40047838546
10	2988	1713.960651509353	246.40540748416
10	2993	1715.597229350698	247.9981403989
10	2994	1715.66589226092	246.61833211026
10	2995	1716.234435616634	240.18660248379
10	2996	1716.698880395758	239.72147189538
10	2997	1716.900662727641	238.59183346901
10	2998	1717.414182367151	229.23573836
10	3001	1718.175007239547	228.38161953357
10	3025	1732.836864067568	238.39617095608
10	3028	1734.127644018338	239.22861601073
10	3031	1738.267323655427	241.69626902231
10	3032	1738.984507407786	241.73689306326
10	3033	1739.865140597194	239.52993357512
10	3038	1742.151499518818	240.62904985496
10	3043	1746.004554223068	243.93322896904
10	3044	1748.171492205461	244.03475871394
10	3047	1748.378159327313	241.29937156929
10	3054	1750.861365183602	242.65026117575
10	3057	1753.454290717445	245.09522358734
10	3060	1754.087860465208	245.63253341592
10	3066	1759.025372562845	243.46162391669
10	3067	1760.143339104367	242.8954186323
10	3068	1760.569317372822	241.72682948396
10	3072	1761.219544039109	238.92446854125
10	3077	1763.473825853451	239.23813234241
10	3080	1764.296959814194	236.72078925947
10	3081	1764.745219270515	236.70544078723
10	3086	1766.723686663464	237.31988936143
10	3089	1769.663634158151	239.33048856719
10	3093	1771.841462096031	237.23117812193
10	3094	1772.032587401133	234.92000606634
10	3095	1773.810337571414	236.37075860282
10	3098	1777.214058464705	238.73407920457
10	3099	1778.095554057034	238.49836047686
10	3100	1778.606642531313	236.62653299617
10	3101	1779.040867916622	228.69890776658
10	3104	1779.668138612457	228.83747798544
10	3105	1780.814160885046	228.26050393773
10	3106	1781.971338549602	227.52717816983
10	3109	1783.36220239175	226.89254664937
10	3110	1783.53423743913	225.33408383363
10	3111	1783.816855436002	225.49331744302
10	3112	1784.038300121345	224.4267787812
10	3113	1785.004919376633	223.08340212859
10	3114	1785.814038324283	223.56484159328
10	3120	1790.555738232333	225.5382624532
10	3125	1792.570817476789	225.60318237942
10	3126	1793.256809847835	224.46533320676
10	3127	1793.466802340637	220.3313381822
10	3132	1798.592117130029	219.63183925353
10	3135	1801.307899502041	222.00666408108
10	3136	1801.515123541086	215.29363255871
10	3137	1801.597720112469	211.33279726717
10	3142	1803.691237407627	207.7110533243
10	3145	1806.054775225554	207.47547603674
10	3150	1807.433102943907	207.44494353506
10	3158	1809.728333131992	208.41524037068
10	3159	1809.757561739501	201.98062804538
10	3160	1811.142786443571	202.7767407724
10	3161	1811.346861043072	201.28782202538
10	3162	1812.068522335421	200.48142963704
10	3163	1812.634829689999	201.04097463878
10	3164	1813.483197323468	201.51524554241
10	3165	1813.659531831616	196.84942062788
10	3166	1814.63072890136	196.99760389744
10	3167	1816.89374442023	198.2205758517
10	3168	1817.186525408074	197.20086442425
10	3173	1818.131794669665	197.55003694494
10	3174	1819.579729271065	196.22863217899
10	3177	1821.191197765818	196.80304715767
10	3178	1821.391966187741	194.8608945357
10	3181	1822.048652247262	193.52035492127
10	3182	1822.283738155058	193.31340051759
10	3185	1822.74193814978	193.50359701535
10	3186	1824.687213074374	194.32427723088
10	3189	1825.371699090375	192.13678282416
10	3196	1826.46637839836	189.2788368609
10	3197	1826.888589281727	185.17207023895
10	3202	1831.405254477683	186.36827492914
10	3203	1832.609506947455	187.54836954975
10	3206	1832.920915533451	184.66531476928
10	3207	1833.465845317981	181.45473486066
10	3208	1833.769780371569	180.78015563574
10	3209	1835.203816374548	181.1344686361
10	3210	1836.206155551464	181.46862347253
10	3214	1840.679066109546	183.79074825587
10	3215	1842.07080660754	184.32517339304
10	3216	1842.241327351191	179.29149625485
10	3253	1868.459942348162	200.4240424872
10	3256	1870.777027895722	202.15515126932
10	3257	1871.333586277914	199.78333987312
10	3258	1872.622581443882	200.55820413842
10	3259	1872.804766411898	198.94589304125
10	3262	1873.575479182957	197.9075257645
10	3263	1873.808957955308	197.85637072596
10	3264	1876.250165781783	199.06849814606
10	3269	1878.133997131971	199.86684142984
10	3270	1878.824205595387	197.80106950205
10	3271	1879.907760803177	198.22002055083
10	3275	1885.068070188952	199.86924500965
10	3276	1885.441531271778	200.14129916731
10	3277	1885.459990135941	198.44465318441
10	3282	1886.635218099627	199.38943517819
10	3285	1888.386050824062	198.35304596403
10	3290	1891.22068628303	199.77895591791
10	3300	1895.862686846525	199.08274184618
10	3313	1903.36612998992	204.40290164056
10	3314	1903.391599871423	204.22195108882
10	3317	1905.214189939993	204.05832072932
10	3318	1905.679790766315	203.78975851079
10	3319	1905.710535551142	203.23876842199
10	3326	1909.671740464821	206.05045738865
10	3327	1909.769491083081	205.941876815
10	3328	1911.565626452259	207.72659041041
10	3329	1911.66818323708	205.94340768449
10	3330	1912.20319717294	205.88180748665
10	3331	1912.979633490007	206.53736967564
10	3336	1914.849910747789	208.04762013358
10	3337	1915.425771544633	206.94767866441
10	3357	1929.349036977912	217.2778582575
10	3358	1929.99312992179	216.44705833835
10	3359	1930.680910607641	216.73177437315
10	3372	1936.277754616531	222.27175786429
10	3375	1938.366690214397	222.97988075259
10	3376	1939.034462327769	221.3305440576
10	3377	1939.144867309316	220.3067750794
10	3398	1950.320812467896	227.77688164671
10	3399	1950.582851366587	227.41179785117
10	3400	1950.739519824396	223.44422154116
10	3403	1952.040821559375	224.04552758245
10	3406	1952.365219295956	222.56597525381
10	3407	1952.515689023008	221.06164254797
10	3408	1954.056771925596	220.41497963295
10	3409	1954.654016406039	218.07756340358
10	3410	1955.769927396716	215.07725593002
10	3411	1956.234649343134	214.34768564377
10	3412	1956.739422382296	213.54707729826
10	3419	1958.326303059025	212.91895809582
10	3424	1960.224903314223	211.9722418415
10	3427	1962.174771127859	212.4378881304
10	3428	1964.021638049704	214.27097921255
10	3435	1966.088069883088	216.15777846161
10	3436	1966.455956535443	215.54163555348
10	3437	1967.640830304465	213.60157862534
10	3438	1969.761365374002	215.3793608441
10	3439	1972.310113053279	213.69282901748
10	3440	1972.719454246263	211.9750728794
10	3441	1973.23306604669	211.82683176667
10	3442	1973.298095208321	209.8644893029
10	3443	1973.812226233948	210.040123127
10	3444	1974.122393763676	208.5406541065
10	3445	1974.299617392301	208.06007756593
10	3446	1974.354878217111	205.20751511493
10	3447	1976.770593494006	206.63745912432
10	3448	1977.342231515865	200.82717269036
10	3449	1977.652693071263	198.06317424376
10	3450	1978.31612456362	195.21234675525
10	3451	1980.159947537008	193.82539843255
10	3465	1985.418313411568	194.67285815315
10	3466	1986.072349404889	193.88159596476
10	3467	1987.918881857939	190.24837482464
10	3468	1988.625038420397	190.33799726038
10	3475	1990.006008814965	189.91467393705
10	3481	1995.984990945191	192.87912557614
10	3486	1997.490187845465	192.85979628799
10	3491	1998.535679363201	192.42813179821
10	3492	1998.549182013695	191.77953904955
10	3497	1999.168421588053	191.12944280466
11	3498	2000	0.4585
12	3498	2000	0.089

