version 2
run Continuity_test_mean_response_time-188-20221215-22:13:49-14314
attr configname Continuity_test_mean_response_time
attr datetime 20221215-22:13:49
attr experiment Continuity_test_mean_response_time
attr inifile omnetpp.ini
attr iterationvars $0=5.1
attr iterationvarsf 5.1-
attr measurement $0=5.1
attr network Network
attr processid 14314
attr repetition 88
attr replication #88
attr resultdir results
attr runnumber 188
attr seedset 88
param *.minion.arrival_mean 2
param *.minion.service_mean 1
param *.boss.arrival_mean 10
param *.boss.service_mean 5.1
param *.player.recover_rate_x 100
param **.minion.arrival_distribution 0
param **.minion.service_distribution 0
param **.boss.arrival_distribution 0
param **.boss.service_distribution 0

vector 0 Network.player minion_jobs_number_stat:vector ETV
attr source signal_minion_jobs_number
vector 1 Network.player minion_jobs_queue_number_stat:vector ETV
attr source signal_minion_jobs_queue_number
vector 2 Network.player minion_recovered_stat:vector ETV
attr source signal_minion_recovered
vector 3 Network.player minion_defeated_stat:vector ETV
attr source signal_minion_defeated
vector 4 Network.player boss_jobs_number_stat:vector ETV
attr source signal_boss_jobs_number
vector 5 Network.player boss_jobs_queue_number_stat:vector ETV
attr source signal_boss_jobs_queue_number
vector 6 Network.player boss_defeated_stat:vector ETV
attr source signal_boss_defeated
vector 7 Network.player minion_waiting_time_stat:vector ETV
attr source signal_minion_waiting_time
vector 8 Network.player minion_response_time_stat:vector ETV
attr source signal_minion_response_time
vector 9 Network.player boss_waiting_time_stat:vector ETV
attr source signal_boss_waiting_time
vector 10 Network.player boss_response_time_stat:vector ETV
attr source signal_boss_response_time
vector 11 Network.player minion_throughput:vector ETV
attr source signal_minion_throughput
vector 12 Network.player boss_throughput:vector ETV
attr source signal_boss_throughput
0	0	0	0
0	2	4.126108529928	1
0	5	8.169758624976	1
0	7	9.819408163142	2
0	9	11.258519190112	3
0	12	11.785791890731	3
0	15	12.556243087598	3
0	17	12.768781206503	4
0	23	16.706263291568	4
0	31	21.021708810199	2
0	35	23.082112366709	1
0	38	23.54389368372	1
0	41	24.089902730961	1
0	43	24.344504680831	2
0	47	26.605034236706	1
0	51	28.666480263899	2
0	53	29.225461107884	3
0	55	29.312176859144	4
0	57	29.633818604802	5
0	61	30.673831301668	5
0	63	31.245938277573	6
0	71	33.98180894406	1
0	74	35.455291413558	1
0	77	36.998772379157	1
0	83	38.628936242778	1
0	85	38.667901728283	2
0	89	42.497650646857	1
0	92	43.366179970208	1
0	95	44.804994076496	1
0	98	45.891750277965	1
0	101	48.025262011477	1
0	103	49.353043555938	2
0	107	50.143994333848	3
0	109	50.91083300473	4
0	111	51.329771338224	5
0	115	54.297471150049	6
0	117	55.281373162847	7
0	119	57.35309281135	8
0	121	58.833647516193	9
0	127	67.12706611069	8
0	129	67.690007086355	9
0	131	68.412360455175	10
0	133	68.950155325793	11
0	145	73.403635601731	5
0	147	73.954184827078	6
0	152	76.494899895333	4
0	154	76.863108160604	5
0	156	78.835331389025	6
0	160	79.747357277052	5
0	165	83.598602961945	5
0	168	85.060760127411	6
0	170	85.42996235626	7
0	172	85.730182854124	8
0	174	86.301199503263	9
0	178	87.294346787677	8
0	184	90.530963972644	5
0	186	91.06082782002	6
0	190	93.404346969234	5
0	193	96.666272648223	5
0	199	100.675785158237	6
0	201	103.124438127095	7
0	205	105.044081198595	8
0	207	105.270967657358	9
0	216	107.591362069532	5
0	218	107.96479364719	6
0	220	110.872664130516	7
0	222	113.901781009362	8
0	227	118.597590867333	9
0	230	119.930183857057	10
0	232	120.370361227916	11
0	236	122.602454781396	10
0	242	126.183058425501	7
0	244	126.6817776785	8
0	253	131.203073756805	2
0	257	135.292345153738	1
0	260	144.982995528166	1
0	264	147.327978566424	2
0	266	149.942702520734	3
0	271	153.906136012404	2
0	275	159.425583301305	1
0	278	161.617479854903	1
0	281	162.731089980475	1
0	285	164.69010055913	2
0	287	164.912205840593	3
0	289	165.839060124153	4
0	295	172.165616625014	5
0	299	175.077570681843	6
0	305	180.507698824649	4
0	311	183.120068093211	4
0	313	183.274907451018	5
0	316	184.559111643204	5
0	319	187.399695602549	5
0	322	187.710669165824	5
0	326	188.777669867148	4
0	332	192.122840262098	1
0	339	196.481634047243	2
0	342	197.799375296957	3
0	344	198.152994946694	4
0	349	199.026537164639	2
0	353	200.842054178749	1
0	356	202.562353891286	1
0	359	205.799621110531	1
0	361	207.591974171107	2
0	364	209.551597050033	2
0	366	209.997582154421	3
0	371	212.287676026291	1
0	378	215.112322408997	1
0	380	217.133627943014	2
0	382	218.910896366434	3
0	385	220.774921457426	4
0	387	221.608891089265	5
0	389	222.227646599506	6
0	391	222.644122208527	7
0	393	222.807089830123	8
0	395	223.376271903875	9
0	397	227.129972596737	10
0	401	230.565325751484	11
0	403	233.065883814944	12
0	405	235.740607115314	13
0	407	238.438509180878	14
0	409	238.914682294123	15
0	411	240.284930936747	16
0	413	241.398819837219	17
0	418	249.209589164982	18
0	423	251.377082480436	18
0	427	253.937430725935	17
0	435	256.876045376867	12
0	437	258.237464292126	13
0	443	262.448972350198	10
0	446	263.814959302627	10
0	449	265.038951322211	10
0	451	265.791924623505	11
0	458	272.031012707899	7
0	462	274.223411791128	6
0	472	279.8497911185	1
0	474	279.861643512103	2
0	477	283.402681287049	3
0	480	284.003032240498	3
0	482	284.314097958588	4
0	486	284.766174060148	3
0	490	286.792599403591	4
0	494	288.131134086353	4
0	498	289.744029707657	3
0	507	301.351017174742	1
0	510	303.001074902126	2
0	512	304.540735547861	3
0	520	310.762706741401	1
0	522	311.140800950337	2
0	527	319.126743017673	3
0	531	321.873132848368	3
0	536	326.176021399096	1
0	539	329.592793127236	1
0	542	331.340804926967	1
0	545	331.496008347266	1
0	548	333.936564349849	1
0	550	334.067777397373	2
0	553	334.563928445531	2
0	555	334.664985122915	3
0	557	336.272187260233	4
0	559	337.571824907621	5
0	566	340.155631228558	1
0	569	343.007079836842	1
0	571	343.271542083831	2
0	573	343.461950251497	3
0	578	347.669970624275	3
0	580	347.673136858541	4
0	582	347.701003538964	5
0	586	355.935372411291	6
0	591	362.140227930772	6
0	594	363.049491647808	6
0	605	370.71739682329	5
0	607	370.997283737533	6
0	609	371.515725971822	7
0	614	374.823927661456	7
0	616	374.958944111733	8
0	620	377.31599923967	7
0	627	380.735712870032	3
0	630	382.053836100157	3
0	636	385.533777358722	2
0	638	386.271653996122	3
0	640	386.681714414456	4
0	642	387.13145231945	5
0	644	388.690914956944	6
0	647	390.617480988069	7
0	653	392.974660055985	6
0	659	394.976416219474	7
0	665	397.472828184725	8
0	667	397.622049039589	9
0	669	397.723991645145	10
0	675	402.694258168322	11
0	687	413.116344188228	5
0	689	413.737374093392	6
0	691	413.78101363079	7
0	693	413.877215337414	8
0	701	420.174003552249	4
0	707	422.889928690371	1
0	710	423.415662985423	1
0	712	423.953644976485	2
0	714	424.25314920667	3
0	717	425.57577111416	3
0	722	427.741544773558	3
0	724	427.993934087693	4
0	726	428.297294905926	5
0	733	430.167353726614	2
0	737	432.516863299948	1
0	742	436.482335379453	1
0	744	437.168026078559	2
0	748	437.662051063884	3
0	752	439.18032985789	4
0	754	439.8012243429	5
0	757	440.616437069785	6
0	759	440.792187093472	7
0	761	440.820112230119	8
0	764	445.391111959226	9
0	766	445.441543805319	10
0	773	449.0045734534	11
0	775	449.467584391277	12
0	777	449.656144637643	13
0	780	451.943350300954	14
0	784	452.680301392655	15
0	786	455.599656974972	16
0	788	455.928675743673	17
0	794	459.854034624284	16
0	796	460.038646478682	17
0	801	464.477717642777	18
0	805	468.408788969951	17
0	807	469.097269535945	18
0	813	473.58277885038	19
0	817	476.60208783378	20
0	819	477.360681442302	21
0	822	479.452323044677	22
0	824	481.458673293995	23
0	826	483.183798939968	24
0	830	485.339591711542	25
0	833	485.580107618956	26
0	835	486.068572702138	27
0	838	487.175926683114	28
0	840	487.562895898107	29
0	842	488.247926097842	30
0	844	491.287362129118	31
0	846	491.808567258798	32
0	848	491.981895278593	33
0	850	492.519590504096	34
0	852	493.281251852916	35
0	856	497.130979409485	35
0	861	502.382490545717	35
0	863	504.022385865962	36
0	865	504.855081945673	37
0	874	509.40208978809	34
0	876	510.63853249238	35
0	878	511.251368088036	36
0	884	515.042858683097	36
0	886	515.788971268765	37
0	888	516.654882011979	38
0	891	518.713496785295	39
0	895	520.364283421378	40
0	897	521.442554384737	41
0	899	523.6066893945	42
0	908	525.753408827042	37
0	910	526.313471668025	38
0	913	526.802278145198	38
0	919	528.727756655736	35
0	924	529.640413429424	33
0	932	531.69152587532	32
0	935	532.870275146018	33
0	940	536.178161086133	32
0	943	537.123453277384	32
0	947	538.67732000242	31
0	950	539.995263270281	31
0	952	540.051768449212	32
0	964	548.546519702737	23
0	967	548.778466959594	23
0	969	549.352771654308	24
0	971	551.220031030004	25
0	980	558.496761448869	23
0	982	558.821026494299	24
0	985	566.007199894623	25
0	987	568.119627353409	26
0	990	568.19120711642	27
0	998	578.143045723124	22
0	1005	581.423552144481	21
0	1007	582.328345331328	22
0	1012	583.984410175449	20
0	1019	585.409456975298	18
0	1021	585.496596929633	19
0	1025	589.673012850162	20
0	1028	590.510363609024	21
0	1030	591.833074076124	22
0	1032	592.788998598683	23
0	1034	593.169638220872	24
0	1036	593.457982596786	25
0	1039	594.652820779558	26
0	1041	595.642396770191	27
0	1045	596.654948015242	26
0	1047	596.97970540124	27
0	1056	603.025023044789	21
0	1060	607.656539664524	20
0	1065	611.680811318988	18
0	1070	613.861404943529	18
0	1072	615.175830127224	19
0	1076	619.894483419741	19
0	1081	620.758956498178	17
0	1085	622.556125578514	16
0	1087	623.000806057576	17
0	1090	623.812677963157	17
0	1096	625.701745421297	16
0	1098	625.716180471609	17
0	1100	625.876233856274	18
0	1102	628.728758301056	19
0	1107	632.303723712704	18
0	1111	634.857385763853	19
0	1115	638.129941893324	20
0	1121	639.355490837171	19
0	1127	643.465019616589	18
0	1129	644.671419189817	19
0	1140	650.505362366991	15
0	1142	652.654964473282	16
0	1144	653.234875637802	17
0	1153	658.806395959331	14
0	1155	661.646266399984	15
0	1159	663.889857967606	14
0	1164	665.121033067014	15
0	1169	667.149822262522	13
0	1173	668.79165390351	14
0	1177	670.695515264418	15
0	1179	671.617893067505	16
0	1181	672.600930163309	17
0	1184	678.287355187996	18
0	1188	686.458864782663	19
0	1191	687.302875650685	20
0	1193	687.721386768892	21
0	1195	688.298457046924	22
0	1197	688.692294630948	23
0	1199	690.468849238839	24
0	1204	693.762539673928	25
0	1206	694.365634617822	26
0	1208	695.082107356861	27
0	1210	695.7993479948	28
0	1214	703.459351880151	29
0	1217	705.380254437715	30
0	1219	706.935152312431	31
0	1226	710.982089666252	30
0	1231	714.801796038964	29
0	1234	716.793702924343	29
0	1237	717.939908937438	29
0	1253	726.33835458241	18
0	1258	726.691451421565	19
0	1260	728.219218151308	20
0	1262	728.510393987988	21
0	1264	728.623641361643	22
0	1268	737.358857448557	23
0	1270	738.206865758532	24
0	1272	739.652250459769	25
0	1275	743.933839462772	26
0	1278	746.663256887976	27
0	1282	747.680414227643	26
0	1289	752.303125963954	24
0	1299	757.646641355486	21
0	1302	758.931729213594	21
0	1304	761.056901238824	22
0	1306	761.936597544243	23
0	1308	762.280557842254	24
0	1313	763.774857657344	22
0	1315	764.65833763139	23
0	1319	765.493112573155	22
0	1321	766.671095095534	23
0	1323	767.223359311983	24
0	1328	769.790998012092	22
0	1332	773.025332847815	21
0	1335	773.67492574098	21
0	1339	774.914371410293	22
0	1342	775.323401985556	23
0	1345	777.096700107863	23
0	1349	778.260754792817	22
0	1355	782.976143122668	19
0	1357	783.04727508113	20
0	1359	783.466054403071	21
0	1362	784.95426347013	21
0	1364	785.455922338164	22
0	1367	787.49423225876	22
0	1371	790.852469521941	21
0	1375	791.53923448596	22
0	1381	795.831284701274	20
0	1385	797.159672457409	21
0	1387	797.743165596476	22
0	1391	800.349939242947	22
0	1396	804.374095501357	20
0	1399	806.760771962607	20
0	1402	806.929009869646	20
0	1409	808.269563005122	16
0	1413	812.19602367448	15
0	1418	812.891882041397	15
0	1420	812.969046958112	16
0	1436	831.229629923377	16
0	1438	832.103961692328	17
0	1440	834.352800036703	18
0	1442	838.63617562082	19
0	1444	838.951774802377	20
0	1446	839.05067280806	21
0	1448	839.696270303078	22
0	1450	841.790658801599	23
0	1452	843.721936165457	24
0	1454	847.150916351657	25
0	1456	849.152521227674	26
0	1459	850.011221538767	27
0	1461	850.729887776134	28
0	1463	851.159373616017	29
0	1468	855.398469189622	30
0	1470	855.545807148874	31
0	1476	860.888922147635	30
0	1478	861.2743581412	31
0	1486	866.259707359233	29
0	1489	868.599078969559	29
0	1493	872.870207742674	28
0	1501	876.009218820301	25
0	1505	876.377084385424	26
0	1507	876.462887091483	27
0	1512	877.128936516511	28
0	1514	877.267180492623	29
0	1517	880.033018169424	30
0	1519	880.430281923824	31
0	1521	882.618209691879	32
0	1523	882.740598902274	33
0	1525	884.812967913991	34
0	1527	885.66168815539	35
0	1529	888.449411647452	36
0	1531	889.236250535194	37
0	1533	889.449104904006	38
0	1535	889.626386905964	39
0	1537	890.417803864309	40
0	1539	890.851474439371	41
0	1541	890.957467654545	42
0	1549	895.73556689506	40
0	1551	896.68815909199	41
0	1555	898.640295572328	41
0	1558	902.134850477882	41
0	1560	902.262314480351	42
0	1566	905.545238163038	39
0	1568	906.017413702783	40
0	1574	909.322145698137	37
0	1579	910.289504952083	35
0	1581	910.421368354958	36
0	1587	915.434714426224	33
0	1589	916.032261410997	34
0	1591	919.506873609943	35
0	1594	920.760280895985	35
0	1598	921.860706007463	34
0	1603	925.040429789156	32
0	1606	929.977840649177	32
0	1611	931.716051316013	30
0	1617	934.026298858799	27
0	1620	937.069784919817	27
0	1622	937.749650817383	28
0	1625	939.912749323995	28
0	1629	942.293140865342	29
0	1631	943.709559128213	30
0	1633	944.335487507556	31
0	1635	945.956142253204	32
0	1637	948.278333708164	33
0	1639	948.36957036766	34
0	1644	952.878719477044	35
0	1646	961.974716691679	36
0	1652	968.282584986872	36
0	1654	968.683431832307	37
0	1656	973.073518882513	38
0	1662	974.746582550047	36
0	1667	978.521506277232	34
0	1669	979.356851968148	35
0	1673	980.954030838384	36
0	1675	981.009709243994	37
0	1677	981.267600398746	38
0	1682	982.970980593606	37
0	1684	983.06408870536	38
0	1687	983.429583997649	38
0	1691	983.771559128229	37
0	1693	984.311825735166	38
0	1697	986.370874085135	37
0	1700	986.887229912862	37
0	1708	992.636940317057	32
0	1712	995.309373763708	31
0	1717	997.673588030582	29
0	1720	1001.240255376067	29
0	1723	1003.025928555921	29
0	1732	1012.000532414431	23
0	1735	1013.567549598375	23
0	1740	1016.410851179171	21
0	1743	1018.706290090828	21
0	1747	1019.251518245522	20
0	1752	1020.48542864891	21
0	1755	1024.543841017059	21
0	1757	1024.845702346812	22
0	1760	1026.906244750077	22
0	1764	1027.712438991806	23
0	1768	1030.159058674219	23
0	1772	1030.699547146386	24
0	1776	1032.751328253124	25
0	1778	1033.079394731653	26
0	1782	1034.444215369651	27
0	1786	1036.848947632522	28
0	1788	1037.519791320409	29
0	1790	1040.47792095377	30
0	1794	1040.980387678633	31
0	1796	1045.476100344164	32
0	1798	1045.588792356555	33
0	1801	1047.314742150296	34
0	1803	1047.849996246182	35
0	1805	1049.138896179056	36
0	1807	1051.935051178074	37
0	1810	1052.094090758635	38
0	1816	1055.64903488347	35
0	1821	1056.296133662434	33
0	1823	1057.600079303962	34
0	1825	1058.725986670333	35
0	1833	1063.492347941961	30
0	1835	1066.406181993593	31
0	1838	1068.064121206201	31
0	1842	1071.946956190131	30
0	1844	1072.532883793488	31
0	1847	1074.826970797504	31
0	1856	1079.029958117146	32
0	1862	1085.963082652474	33
0	1864	1087.82236939584	34
0	1871	1089.309316506946	35
0	1873	1092.35774191291	36
0	1875	1094.289238476411	37
0	1877	1094.462047822099	38
0	1879	1096.579219588963	39
0	1883	1101.054500175798	40
0	1885	1101.831240328357	41
0	1887	1102.271588876233	42
0	1889	1103.394113312129	43
0	1891	1104.198183886682	44
0	1893	1104.852599108678	45
0	1895	1107.696215900475	46
0	1900	1115.071038203364	47
0	1904	1122.072177711592	48
0	1906	1122.4177195692	49
0	1908	1123.907830133594	50
0	1910	1124.904388704619	51
0	1913	1126.634118320135	52
0	1916	1127.218752485433	52
0	1922	1130.360501054885	49
0	1931	1135.013068140641	43
0	1937	1140.213036946075	43
0	1940	1140.737876424124	43
0	1942	1142.108265242825	44
0	1944	1142.834209032743	45
0	1949	1144.041161932094	43
0	1952	1145.339250929467	43
0	1955	1147.269925424055	43
0	1960	1149.230407783355	41
0	1963	1149.34752190974	41
0	1968	1152.409731100422	39
0	1978	1162.746349912082	32
0	1983	1167.801945420102	32
0	1988	1171.766458391274	33
0	1992	1172.383430660303	34
0	1997	1175.673612973795	35
0	2000	1175.767301783773	36
0	2004	1176.172023898325	37
0	2006	1176.223202046783	38
0	2008	1177.244120465773	39
0	2010	1181.001704656772	40
0	2013	1184.532547214304	41
0	2015	1185.99610276799	42
0	2017	1186.332686927951	43
0	2020	1189.027139104748	44
0	2022	1189.781759596227	45
0	2025	1190.760510942415	45
0	2029	1191.942478433669	44
0	2042	1196.273136394088	39
0	2046	1198.207182739914	40
0	2049	1199.894690269783	41
0	2051	1201.902801401004	42
0	2053	1205.417359911266	43
0	2055	1205.595306206015	44
0	2060	1208.056300548157	45
0	2064	1208.7581161735	46
0	2066	1208.779696072727	47
0	2070	1209.058660752498	48
0	2072	1210.556845951856	49
0	2075	1212.033547695929	50
0	2077	1212.961215547612	51
0	2079	1215.548922000094	52
0	2081	1215.796902044163	53
0	2084	1216.190978105352	54
0	2086	1216.250524640141	55
0	2089	1216.666625398398	56
0	2091	1217.738888158429	57
0	2098	1221.017118825566	53
0	2100	1221.624503228036	54
0	2103	1222.468551348996	54
0	2105	1222.934908442504	55
0	2107	1223.046636066008	56
0	2110	1224.030990089903	56
0	2114	1224.946693806005	55
0	2118	1228.457180418807	54
0	2120	1229.295808435455	55
0	2123	1229.584210644249	55
0	2130	1231.37860330275	51
0	2132	1231.459620915948	52
0	2136	1232.426602032539	51
0	2139	1233.274845329061	51
0	2143	1234.912851568113	50
0	2153	1238.396300865371	45
0	2163	1241.599252287875	45
0	2165	1241.836110749367	46
0	2168	1242.364784156363	47
0	2173	1247.433339150968	48
0	2175	1249.427862158992	49
0	2177	1251.016461036226	50
0	2182	1254.219432475917	50
0	2184	1255.531887214661	51
0	2186	1256.356737637311	52
0	2188	1257.010938341509	53
0	2193	1261.303004257034	51
0	2196	1261.623469733305	51
0	2200	1264.880141667726	50
0	2207	1268.291951042626	46
0	2214	1274.921063459368	42
0	2219	1275.738719787404	40
0	2224	1280.361291966557	38
0	2231	1287.572829972507	38
0	2234	1293.185123603322	39
0	2236	1294.253784047924	40
0	2238	1294.912253248541	41
0	2240	1297.894423047958	42
0	2251	1301.51325038873	37
0	2253	1303.441220420982	38
0	2259	1307.316645017671	36
0	2261	1307.355503522333	37
0	2266	1309.510142229502	35
0	2271	1313.121103196637	33
0	2274	1315.2489116241	33
0	2279	1316.798573712415	31
0	2282	1317.671882955922	31
0	2285	1319.70735385245	31
0	2287	1319.930206640137	32
0	2290	1321.070622362466	32
0	2297	1328.601991555573	28
0	2304	1331.919664792018	26
0	2311	1333.663752927513	23
0	2320	1336.724904264666	19
0	2327	1341.62804662785	16
0	2332	1342.853336406724	16
0	2334	1344.570090888936	17
0	2336	1345.251152665311	18
0	2340	1351.52625006215	18
0	2344	1352.674726463614	17
0	2347	1353.786128022288	17
0	2357	1360.915986573447	10
0	2363	1364.70291658872	9
0	2366	1368.901064776469	10
0	2374	1371.411389659753	5
0	2376	1371.83416980308	6
0	2380	1373.784683530106	7
0	2382	1376.719721175268	8
0	2385	1378.465677274972	9
0	2388	1379.859117264431	9
0	2392	1380.736211992157	10
0	2394	1380.777263871973	11
0	2396	1383.580896687637	12
0	2398	1383.929130580391	13
0	2402	1387.870323162659	13
0	2405	1387.927239877993	13
0	2407	1388.760432976145	14
0	2411	1389.27554613437	15
0	2416	1394.723673048441	16
0	2418	1395.908608607443	17
0	2420	1396.722750679504	18
0	2422	1398.040675782104	19
0	2424	1398.138120706196	20
0	2426	1398.607839413031	21
0	2428	1398.701413658008	22
0	2431	1399.682806498855	23
0	2434	1402.336790970797	23
0	2438	1404.853718333963	22
0	2440	1405.085299577929	23
0	2444	1409.158277748604	22
0	2447	1409.546667518654	22
0	2452	1411.65999864622	23
0	2455	1412.021102564692	23
0	2460	1413.097972050048	23
0	2468	1421.902889277684	22
0	2473	1424.837498253215	20
0	2478	1429.207840603339	18
0	2484	1434.693440424194	15
0	2486	1434.968455610451	16
0	2488	1435.043778763852	17
0	2494	1440.861221217909	16
0	2496	1441.960047863711	17
0	2500	1443.084110549374	18
0	2502	1444.196076556049	19
0	2504	1444.484645415335	20
0	2507	1446.400966172259	21
0	2511	1447.08886664996	22
0	2515	1449.645044964694	23
0	2517	1449.685814406142	24
0	2526	1454.302796150845	18
0	2530	1456.892810910978	17
0	2532	1457.162482676772	18
0	2541	1462.592125660359	12
0	2545	1464.322863517627	13
0	2547	1464.796182206038	14
0	2558	1470.499478991101	7
0	2562	1471.534237021106	6
0	2567	1473.445032875986	4
0	2569	1473.700912301782	5
0	2571	1475.097502531483	6
0	2574	1475.871084511804	6
0	2582	1480.841857486378	1
0	2585	1481.963526768127	1
0	2594	1490.361609188197	1
0	2599	1492.512361083711	2
0	2601	1493.0554870501	3
0	2603	1493.702218752442	4
0	2607	1495.070327628844	5
0	2609	1495.21830719818	6
0	2619	1504.063239426415	7
0	2621	1504.084826049317	8
0	2623	1505.963057270576	9
0	2627	1508.940572990596	10
0	2632	1516.773616692843	11
0	2634	1518.563854478212	12
0	2638	1519.549694512515	13
0	2640	1521.098390356562	14
0	2642	1521.337298638578	15
0	2646	1525.075686067143	16
0	2649	1526.050889544204	17
0	2651	1526.231668395942	18
0	2656	1527.470707650601	19
0	2658	1529.741811179504	20
0	2660	1530.674033724182	21
0	2662	1531.833129867989	22
0	2669	1541.24088217699	23
0	2671	1541.78709154484	24
0	2673	1544.948919683142	25
0	2675	1545.109571603321	26
0	2677	1545.724406382621	27
0	2679	1546.206786328637	28
0	2681	1547.114429866171	29
0	2687	1549.332806031339	30
0	2689	1549.978650834483	31
0	2694	1554.710676123679	32
0	2696	1556.301049613055	33
0	2699	1557.035188307998	34
0	2704	1558.258401054871	34
0	2706	1561.038374319654	35
0	2708	1564.944119553198	36
0	2720	1572.071302822102	31
0	2725	1576.670603970128	29
0	2727	1577.156622832965	30
0	2731	1579.6283866097	29
0	2739	1584.172140997526	24
0	2741	1585.354927562161	25
0	2749	1588.815825323684	26
0	2751	1589.808929314274	27
0	2753	1590.281507049729	28
0	2755	1591.441252575322	29
0	2757	1591.734988614316	30
0	2759	1592.050814417172	31
0	2764	1598.80029145302	32
0	2767	1600.99246917935	33
0	2770	1603.826596161266	34
0	2772	1605.159418134591	35
0	2777	1610.27908939978	34
0	2783	1612.484987705273	31
0	2786	1613.732584834853	31
0	2790	1614.387245318915	30
0	2795	1615.858066618736	30
0	2797	1618.975085903858	31
0	2800	1621.159615409942	32
0	2808	1624.071247876756	27
0	2810	1624.803074116383	28
0	2819	1629.513804225703	22
0	2821	1629.555557547193	23
0	2823	1630.356375418798	24
0	2826	1631.330476145953	24
0	2828	1631.89398724017	25
0	2833	1635.10654852124	25
0	2835	1635.90915056196	26
0	2837	1637.341868184318	27
0	2839	1637.53178121311	28
0	2841	1637.851771135401	29
0	2843	1638.061728855748	30
0	2847	1638.254223471141	31
0	2850	1642.724891018464	32
0	2852	1643.941569787465	33
0	2862	1647.499794083438	30
0	2866	1648.390512768016	29
0	2868	1649.630407509674	30
0	2874	1653.841344431887	29
0	2877	1654.165022902912	30
0	2879	1654.415792514186	31
0	2881	1655.248059103693	32
0	2883	1655.741007761282	33
0	2889	1659.750304173294	34
0	2892	1660.637259477849	35
0	2894	1660.64455797034	36
0	2896	1662.569259685871	37
0	2898	1663.934074007842	38
0	2902	1666.774462937086	38
0	2904	1666.970946699724	39
0	2911	1670.157755158822	35
0	2913	1670.566989383853	36
0	2916	1671.583605258832	36
0	2920	1673.239276457895	35
0	2932	1679.38169142885	29
0	2937	1681.453274090768	27
0	2940	1681.750140888499	27
0	2942	1682.902817569746	28
0	2946	1684.158676704068	27
0	2950	1685.756806257408	26
0	2954	1687.740922130538	27
0	2960	1690.6312353394	28
0	2962	1691.657208935237	29
0	2964	1691.684550085495	30
0	2966	1697.824850542956	31
0	2968	1697.885008350827	32
0	2970	1699.349298992806	33
0	2972	1701.667091669846	34
0	2976	1702.049568216838	35
0	2978	1702.428430522603	36
0	2980	1703.706257171934	37
0	2983	1706.943787670096	38
0	2985	1707.638220559618	39
0	2987	1710.505002763165	40
0	2990	1716.970172067009	41
0	2995	1719.49975883192	41
0	3002	1722.176736644225	37
0	3006	1727.812653003408	36
0	3009	1728.577526778564	36
0	3011	1730.221999323729	37
0	3014	1730.633984705106	37
0	3016	1730.831823807433	38
0	3020	1732.85063311159	37
0	3022	1734.242619581329	38
0	3024	1735.669839271849	39
0	3028	1738.160249260115	38
0	3032	1739.108253686507	37
0	3034	1739.337893265927	38
0	3046	1745.424418010953	29
0	3051	1749.672229885718	27
0	3053	1750.239477058192	28
0	3058	1754.032071236891	26
0	3065	1755.938861062393	24
0	3069	1758.476178456826	24
0	3074	1760.035756179227	22
0	3081	1764.674112340849	18
0	3083	1765.582021548255	19
0	3085	1766.649172206442	20
0	3090	1768.884711197382	18
0	3092	1769.301676169259	19
0	3094	1771.25601083784	20
0	3096	1771.293777180352	21
0	3102	1775.89538447318	18
0	3108	1780.312973763327	17
0	3110	1781.876472275511	18
0	3112	1782.922829220617	19
0	3114	1783.137212468838	20
0	3117	1783.808148377888	21
0	3121	1786.77657144127	20
0	3127	1790.194336466044	17
0	3135	1793.670553046073	12
0	3140	1796.006168267725	10
0	3147	1797.922062487599	6
0	3156	1801.451219191595	2
0	3158	1801.929388650491	3
0	3160	1805.280413087101	4
0	3162	1806.375084089791	5
0	3169	1811.768441022615	2
0	3171	1813.601855656213	3
0	3173	1813.658784222209	4
0	3175	1815.159006092628	5
0	3177	1815.319612788719	6
0	3183	1817.234252601301	7
0	3191	1825.52328374953	8
0	3193	1825.578443105629	9
0	3195	1826.256997730358	10
0	3197	1826.963767116937	11
0	3199	1827.376413597458	12
0	3202	1827.71578642553	13
0	3204	1828.617293665504	14
0	3206	1829.472814851458	15
0	3208	1829.542800232967	16
0	3210	1829.836080756599	17
0	3212	1831.404981333252	18
0	3214	1834.015237186338	19
0	3219	1839.347291352856	20
0	3221	1839.999094732103	21
0	3224	1840.403743518886	22
0	3226	1840.940946481275	23
0	3228	1841.053897595042	24
0	3233	1844.415617226267	25
0	3235	1846.003932161571	26
0	3237	1847.271873979795	27
0	3239	1848.311934401271	28
0	3241	1849.193817802178	29
0	3243	1852.341136858364	30
0	3248	1858.824646347398	31
0	3250	1860.324804644114	32
0	3252	1860.886785855901	33
0	3255	1863.107674744859	34
0	3257	1864.972755525011	35
0	3259	1865.010384386728	36
0	3261	1865.997974354627	37
0	3263	1867.703696825386	38
0	3265	1869.13384654239	39
0	3267	1869.69929915043	40
0	3270	1870.396413216657	41
0	3280	1875.168040953606	37
0	3282	1876.488369187367	38
0	3284	1877.07857533553	39
0	3287	1879.455101382598	40
0	3290	1879.895071795116	40
0	3292	1880.115251943416	41
0	3295	1881.252980392147	41
0	3298	1884.757971529503	41
0	3303	1886.175306445471	39
0	3305	1886.39450713961	40
0	3309	1887.186955019329	39
0	3312	1887.407110251688	39
0	3318	1890.943288609695	36
0	3321	1891.475227332878	36
0	3324	1891.87240166386	36
0	3327	1893.336336963842	36
0	3333	1897.104193857725	33
0	3335	1901.823973195248	34
0	3344	1905.224073937854	28
0	3347	1906.132528300954	28
0	3351	1906.952179765278	27
0	3357	1907.59874709291	24
0	3360	1908.338104499771	24
0	3362	1908.417594417049	25
0	3364	1908.586960195797	26
0	3366	1910.078923997914	27
0	3372	1910.868311973552	26
0	3374	1910.968241360772	27
0	3376	1911.049560097378	28
0	3381	1913.119249357313	27
0	3384	1914.412002726049	27
0	3386	1914.615041887031	28
0	3397	1919.100893475334	24
0	3401	1920.674351761205	25
0	3403	1920.679332580946	26
0	3406	1921.883436961991	26
0	3409	1925.400022438439	26
0	3416	1928.326021316869	26
0	3424	1936.555429760085	27
0	3426	1936.592107846528	28
0	3434	1939.564176740755	25
0	3437	1939.940126364515	25
0	3440	1941.794624237892	25
0	3446	1943.697135019156	22
0	3449	1946.219385838423	22
0	3451	1946.717453824709	23
0	3454	1948.70284025792	23
0	3460	1952.108913132609	20
0	3464	1952.520131290677	21
0	3466	1952.577704690329	22
0	3468	1953.208269125195	23
0	3470	1955.982469934615	24
0	3472	1956.033718332724	25
0	3474	1957.942854990265	26
0	3481	1959.351035501548	23
0	3490	1968.756004443152	24
0	3492	1971.280934624987	25
0	3494	1973.788726183765	26
0	3497	1974.905949924704	27
0	3499	1976.540282456387	28
0	3503	1979.054257503318	28
0	3512	1981.610284729495	25
0	3515	1985.762682709862	25
0	3524	1991.569169412589	19
0	3532	1997.469028226665	17
1	0	0	0
1	2	4.126108529928	0
1	3	4.69912880099	0
1	5	8.169758624976	0
1	7	9.819408163142	1
1	9	11.258519190112	2
1	10	11.567449380001	2
1	12	11.785791890731	2
1	13	11.872622810979	2
1	15	12.556243087598	2
1	17	12.768781206503	3
1	21	16.180248455588	3
1	23	16.706263291568	3
1	24	17.860497826294	3
1	25	19.0026301434	2
1	29	20.993937426969	1
1	31	21.021708810199	1
1	32	21.493070441342	1
1	33	22.845495755093	0
1	35	23.082112366709	0
1	36	23.233849736848	0
1	38	23.54389368372	0
1	39	23.908026586521	0
1	41	24.089902730961	0
1	43	24.344504680831	1
1	44	24.692231962443	1
1	45	24.785182635279	0
1	47	26.605034236706	0
1	51	28.666480263899	1
1	53	29.225461107884	2
1	55	29.312176859144	3
1	57	29.633818604802	4
1	59	30.318346828768	4
1	61	30.673831301668	4
1	63	31.245938277573	5
1	64	31.707369713842	5
1	65	31.917208101522	4
1	66	32.146493597969	3
1	67	32.33129505815	2
1	68	32.633784539687	1
1	69	32.846960750161	0
1	71	33.98180894406	0
1	72	34.547258560488	0
1	74	35.455291413558	0
1	75	36.286933827152	0
1	77	36.998772379157	0
1	78	37.247850371209	0
1	83	38.628936242778	0
1	85	38.667901728283	1
1	86	39.255126032133	1
1	87	39.97090446532	0
1	89	42.497650646857	0
1	90	43.256991924481	0
1	92	43.366179970208	0
1	93	43.524692105069	0
1	95	44.804994076496	0
1	96	45.180436999855	0
1	98	45.891750277965	0
1	99	46.048815580074	0
1	101	48.025262011477	0
1	103	49.353043555938	1
1	107	50.143994333848	2
1	109	50.91083300473	3
1	111	51.329771338224	4
1	115	54.297471150049	5
1	117	55.281373162847	6
1	119	57.35309281135	7
1	121	58.833647516193	8
1	124	65.873355737255	8
1	125	66.533065713223	7
1	127	67.12706611069	7
1	129	67.690007086355	8
1	131	68.412360455175	9
1	133	68.950155325793	10
1	137	70.360922098348	10
1	138	70.44169483662	9
1	139	71.177972413376	8
1	140	71.620939171107	7
1	141	71.812102308036	6
1	142	72.218860952699	5
1	143	73.40021853768	4
1	145	73.403635601731	4
1	147	73.954184827078	5
1	148	74.40270253281	5
1	149	74.557667577388	4
1	150	75.145871469071	3
1	152	76.494899895333	3
1	154	76.863108160604	4
1	156	78.835331389025	5
1	157	79.312146166631	5
1	158	79.464595711319	4
1	160	79.747357277052	4
1	161	81.447417420096	4
1	165	83.598602961945	4
1	168	85.060760127411	5
1	170	85.42996235626	6
1	172	85.730182854124	7
1	174	86.301199503263	8
1	175	86.783870484404	8
1	176	87.162193222798	7
1	178	87.294346787677	7
1	179	88.202942081855	7
1	180	88.846983738736	6
1	181	89.786868339583	5
1	182	90.045763474046	4
1	184	90.530963972644	4
1	186	91.06082782002	5
1	187	92.802056817158	5
1	188	92.819084255748	4
1	190	93.404346969234	4
1	191	96.430462311272	4
1	193	96.666272648223	4
1	199	100.675785158237	5
1	201	103.124438127095	6
1	205	105.044081198595	7
1	207	105.270967657358	8
1	208	105.453272023895	8
1	209	105.689703409416	7
1	210	106.055683028339	6
1	211	106.350561237192	5
1	212	106.464438348487	4
1	216	107.591362069532	4
1	218	107.96479364719	5
1	220	110.872664130516	6
1	222	113.901781009362	7
1	227	118.597590867333	8
1	230	119.930183857057	9
1	232	120.370361227916	10
1	233	121.785197593789	10
1	234	122.581301659136	9
1	236	122.602454781396	9
1	237	123.039293376719	9
1	238	123.545742326697	8
1	239	124.202595665956	7
1	240	125.476102094827	6
1	242	126.183058425501	6
1	244	126.6817776785	7
1	245	126.974394974432	7
1	246	127.092459135035	6
1	247	127.631359724387	5
1	248	127.848720371248	4
1	249	130.577527415695	3
1	250	130.615927886779	2
1	251	131.174255818294	1
1	253	131.203073756805	1
1	254	132.259209252585	1
1	255	133.242100418633	0
1	257	135.292345153738	0
1	258	138.965785309954	0
1	260	144.982995528166	0
1	264	147.327978566424	1
1	266	149.942702520734	2
1	268	152.249984360741	2
1	269	152.891793474443	1
1	271	153.906136012404	1
1	272	155.232790843587	1
1	273	156.947088348566	0
1	275	159.425583301305	0
1	276	159.638131998459	0
1	278	161.617479854903	0
1	279	162.570120724324	0
1	281	162.731089980475	0
1	285	164.69010055913	1
1	287	164.912205840593	2
1	289	165.839060124153	3
1	295	172.165616625014	4
1	299	175.077570681843	5
1	301	175.705782750749	5
1	302	178.396375437922	4
1	303	179.958318617779	3
1	305	180.507698824649	3
1	309	182.871627706836	3
1	311	183.120068093211	3
1	313	183.274907451018	4
1	314	184.541567607699	4
1	316	184.559111643204	4
1	317	185.77287467143	4
1	319	187.399695602549	4
1	320	187.710569913553	4
1	322	187.710669165824	4
1	323	187.819035991707	4
1	324	188.071939920046	3
1	326	188.777669867148	3
1	327	189.306327915141	3
1	328	189.321075956914	2
1	329	189.469800197408	1
1	330	190.537904150693	0
1	332	192.122840262098	0
1	339	196.481634047243	1
1	342	197.799375296957	2
1	344	198.152994946694	3
1	345	198.683302768702	3
1	346	198.902577721141	2
1	347	198.986453969831	1
1	349	199.026537164639	1
1	350	199.429082274439	1
1	351	199.740984003177	0
1	353	200.842054178749	0
1	354	202.351058664553	0
1	356	202.562353891286	0
1	357	203.685417409812	0
1	359	205.799621110531	0
1	361	207.591974171107	1
1	362	209.212776603762	1
1	364	209.551597050033	1
1	366	209.997582154421	2
1	367	210.767478207352	2
1	368	211.082577348003	1
1	369	211.420443265369	0
1	371	212.287676026291	0
1	372	213.082362772357	0
1	378	215.112322408997	0
1	380	217.133627943014	1
1	382	218.910896366434	2
1	385	220.774921457426	3
1	387	221.608891089265	4
1	389	222.227646599506	5
1	391	222.644122208527	6
1	393	222.807089830123	7
1	395	223.376271903875	8
1	397	227.129972596737	9
1	401	230.565325751484	10
1	403	233.065883814944	11
1	405	235.740607115314	12
1	407	238.438509180878	13
1	409	238.914682294123	14
1	411	240.284930936747	15
1	413	241.398819837219	16
1	418	249.209589164982	17
1	421	251.288036608759	17
1	423	251.377082480436	17
1	424	251.587230284566	17
1	425	253.593918965688	16
1	427	253.937430725935	16
1	428	253.990734448773	16
1	429	254.067828226164	15
1	430	254.799116635535	14
1	431	254.85163967598	13
1	432	255.660130613981	12
1	433	255.746417867972	11
1	435	256.876045376867	11
1	437	258.237464292126	12
1	438	259.544394095162	12
1	439	261.068911727568	11
1	440	262.225348929813	10
1	441	262.325821816395	9
1	443	262.448972350198	9
1	444	262.829556099198	9
1	446	263.814959302627	9
1	447	264.824406357914	9
1	449	265.038951322211	9
1	451	265.791924623505	10
1	452	265.984432456221	10
1	453	266.832763317746	9
1	454	267.099595434385	8
1	455	267.742727587548	7
1	456	271.867236977148	6
1	458	272.031012707899	6
1	459	273.741067371603	6
1	460	274.095829493025	5
1	462	274.223411791128	5
1	463	274.426358704147	5
1	464	274.779363887336	4
1	465	276.782874535004	3
1	466	276.988909954044	2
1	467	277.145963071857	1
1	468	278.125711052445	0
1	472	279.8497911185	0
1	474	279.861643512103	1
1	477	283.402681287049	2
1	478	283.493026377097	2
1	480	284.003032240498	2
1	482	284.314097958588	3
1	483	284.482349234701	3
1	484	284.577638427139	2
1	486	284.766174060148	2
1	490	286.792599403591	3
1	492	288.106044247	3
1	494	288.131134086353	3
1	495	288.219815695382	3
1	496	288.72852090022	2
1	498	289.744029707657	2
1	499	290.181151210325	2
1	500	291.575910245794	1
1	501	291.758693578922	0
1	507	301.351017174742	0
1	510	303.001074902126	1
1	512	304.540735547861	2
1	514	307.274531022801	2
1	515	307.759117704456	1
1	516	308.347667699306	0
1	520	310.762706741401	0
1	522	311.140800950337	1
1	527	319.126743017673	2
1	529	320.28760969111	2
1	531	321.873132848368	2
1	532	322.367476581889	2
1	533	322.599795875076	1
1	534	322.87032821913	0
1	536	326.176021399096	0
1	537	326.229231564542	0
1	539	329.592793127236	0
1	540	330.287589414413	0
1	542	331.340804926967	0
1	543	331.463964353395	0
1	545	331.496008347266	0
1	546	332.127948023283	0
1	548	333.936564349849	0
1	550	334.067777397373	1
1	551	334.556421870905	1
1	553	334.563928445531	1
1	555	334.664985122915	2
1	557	336.272187260233	3
1	559	337.571824907621	4
1	560	337.897153637028	4
1	561	338.62072505239	3
1	562	339.022349735222	2
1	563	339.943289491118	1
1	564	340.132014122663	0
1	566	340.155631228558	0
1	567	341.11719597461	0
1	569	343.007079836842	0
1	571	343.271542083831	1
1	573	343.461950251497	2
1	574	344.168140196041	2
1	578	347.669970624275	2
1	580	347.673136858541	3
1	582	347.701003538964	4
1	586	355.935372411291	5
1	589	361.745358317081	5
1	591	362.140227930772	5
1	592	362.64198933516	5
1	594	363.049491647808	5
1	598	366.617942681763	5
1	599	366.736673227335	4
1	605	370.71739682329	4
1	607	370.997283737533	5
1	609	371.515725971822	6
1	612	374.304592564498	6
1	614	374.823927661456	6
1	616	374.958944111733	7
1	617	374.959496163808	7
1	618	377.253676924852	6
1	620	377.31599923967	6
1	621	377.650828680343	6
1	622	378.064256817267	5
1	623	378.24985355236	4
1	624	379.369401311716	3
1	625	379.608468032284	2
1	627	380.735712870032	2
1	628	381.397439727801	2
1	630	382.053836100157	2
1	631	382.377945431473	2
1	632	383.107617235563	1
1	636	385.533777358722	1
1	638	386.271653996122	2
1	640	386.681714414456	3
1	642	387.13145231945	4
1	644	388.690914956944	5
1	647	390.617480988069	6
1	648	392.299924601763	6
1	649	392.357041314231	5
1	653	392.974660055985	5
1	659	394.976416219474	6
1	665	397.472828184725	7
1	667	397.622049039589	8
1	669	397.723991645145	9
1	675	402.694258168322	10
1	677	408.555847026481	10
1	678	408.740194137161	9
1	679	408.85064076626	8
1	680	409.472778909921	7
1	681	411.698243881956	6
1	682	411.819512997425	5
1	683	412.922100031687	4
1	687	413.116344188228	4
1	689	413.737374093392	5
1	691	413.78101363079	6
1	693	413.877215337414	7
1	695	414.727278322452	7
1	696	415.074521229082	6
1	697	415.885527260798	5
1	698	417.853732747409	4
1	699	418.625040474815	3
1	701	420.174003552249	3
1	702	421.064374249682	3
1	703	422.026350469046	2
1	704	422.227703067851	1
1	705	422.662478065319	0
1	707	422.889928690371	0
1	708	423.009161126219	0
1	710	423.415662985423	0
1	712	423.953644976485	1
1	714	424.25314920667	2
1	715	424.650848284898	2
1	717	425.57577111416	2
1	718	425.721305855506	2
1	722	427.741544773558	2
1	724	427.993934087693	3
1	726	428.297294905926	4
1	728	428.731538138664	4
1	729	429.4987821537	3
1	730	429.808594631234	2
1	731	430.121491873154	1
1	733	430.167353726614	1
1	734	431.919538532454	1
1	735	432.378081516773	0
1	737	432.516863299948	0
1	738	432.760345148876	0
1	742	436.482335379453	0
1	744	437.168026078559	1
1	748	437.662051063884	2
1	752	439.18032985789	3
1	754	439.8012243429	4
1	757	440.616437069785	5
1	759	440.792187093472	6
1	761	440.820112230119	7
1	764	445.391111959226	8
1	766	445.441543805319	9
1	773	449.0045734534	10
1	775	449.467584391277	11
1	777	449.656144637643	12
1	780	451.943350300954	13
1	784	452.680301392655	14
1	786	455.599656974972	15
1	788	455.928675743673	16
1	791	459.106390066038	16
1	792	459.328531517343	15
1	794	459.854034624284	15
1	796	460.038646478682	16
1	801	464.477717642777	17
1	802	464.956431372272	17
1	803	466.382449227307	16
1	805	468.408788969951	16
1	807	469.097269535945	17
1	813	473.58277885038	18
1	817	476.60208783378	19
1	819	477.360681442302	20
1	822	479.452323044677	21
1	824	481.458673293995	22
1	826	483.183798939968	23
1	830	485.339591711542	24
1	833	485.580107618956	25
1	835	486.068572702138	26
1	838	487.175926683114	27
1	840	487.562895898107	28
1	842	488.247926097842	29
1	844	491.287362129118	30
1	846	491.808567258798	31
1	848	491.981895278593	32
1	850	492.519590504096	33
1	852	493.281251852916	34
1	854	496.790102788391	34
1	856	497.130979409485	34
1	857	497.95149130671	34
1	861	502.382490545717	34
1	863	504.022385865962	35
1	865	504.855081945673	36
1	867	505.538446406007	36
1	868	506.309388635215	35
1	869	507.978677488203	34
1	870	508.142011723129	33
1	874	509.40208978809	33
1	876	510.63853249238	34
1	878	511.251368088036	35
1	880	512.137092718695	35
1	884	515.042858683097	35
1	886	515.788971268765	36
1	888	516.654882011979	37
1	891	518.713496785295	38
1	895	520.364283421378	39
1	897	521.442554384737	40
1	899	523.6066893945	41
1	901	524.33087077741	41
1	902	524.856888852285	40
1	903	525.048657729758	39
1	904	525.108502449763	38
1	905	525.121129870543	37
1	906	525.135253728386	36
1	908	525.753408827042	36
1	910	526.313471668025	37
1	911	526.576582786329	37
1	913	526.802278145198	37
1	914	527.288668901473	37
1	915	527.304157520469	36
1	916	528.130076085907	35
1	917	528.324788561076	34
1	919	528.727756655736	34
1	920	529.06931805364	34
1	921	529.158570739628	33
1	922	529.62924168331	32
1	924	529.640413429424	32
1	925	529.671720148245	32
1	926	529.91474188681	31
1	932	531.69152587532	31
1	935	532.870275146018	32
1	937	534.75395416926	32
1	938	535.074202502849	31
1	940	536.178161086133	31
1	941	536.218380527994	31
1	943	537.123453277384	31
1	944	537.448841633145	31
1	945	538.243708806709	30
1	947	538.67732000242	30
1	948	539.264305567165	30
1	950	539.995263270281	30
1	952	540.051768449212	31
1	953	540.250321711	31
1	954	540.525321501397	30
1	955	541.011702473215	29
1	956	542.211748169239	28
1	957	542.714401233962	27
1	958	544.6116326755	26
1	959	544.651562410262	25
1	960	544.680623541885	24
1	961	546.394248423136	23
1	962	547.662840592322	22
1	964	548.546519702737	22
1	965	548.601845304199	22
1	967	548.778466959594	22
1	969	549.352771654308	23
1	971	551.220031030004	24
1	972	551.595271145431	24
1	973	554.595877119031	23
1	974	555.116678159309	22
1	980	558.496761448869	22
1	982	558.821026494299	23
1	985	566.007199894623	24
1	987	568.119627353409	25
1	990	568.19120711642	26
1	991	569.290189073351	26
1	992	569.416385566506	25
1	993	573.069059300719	24
1	994	575.802129081175	23
1	995	575.984796511166	22
1	996	577.328754518481	21
1	998	578.143045723124	21
1	1002	580.702096782818	21
1	1003	581.148186210465	20
1	1005	581.423552144481	20
1	1007	582.328345331328	21
1	1008	582.711062531452	21
1	1009	583.153085140218	20
1	1010	583.947346754039	19
1	1012	583.984410175449	19
1	1013	584.262926440196	19
1	1014	584.328719597577	18
1	1015	584.623230921295	17
1	1019	585.409456975298	17
1	1021	585.496596929633	18
1	1025	589.673012850162	19
1	1028	590.510363609024	20
1	1030	591.833074076124	21
1	1032	592.788998598683	22
1	1034	593.169638220872	23
1	1036	593.457982596786	24
1	1039	594.652820779558	25
1	1041	595.642396770191	26
1	1042	596.398646257841	26
1	1043	596.612490574383	25
1	1045	596.654948015242	25
1	1047	596.97970540124	26
1	1048	598.364286930494	26
1	1049	600.448648850893	25
1	1050	600.787260980461	24
1	1051	601.663997493977	23
1	1052	601.701229496032	22
1	1053	602.56433188572	21
1	1054	602.803409386146	20
1	1056	603.025023044789	20
1	1057	603.488173860666	20
1	1058	605.920281699571	19
1	1060	607.656539664524	19
1	1061	607.820312631411	19
1	1062	610.354618790329	18
1	1063	611.052202843921	17
1	1065	611.680811318988	17
1	1066	612.24780366312	17
1	1070	613.861404943529	17
1	1072	615.175830127224	18
1	1074	619.229519213022	18
1	1076	619.894483419741	18
1	1077	619.954603120888	18
1	1078	620.402991860846	17
1	1079	620.666482838962	16
1	1081	620.758956498178	16
1	1082	621.307464996418	16
1	1083	622.111668610324	15
1	1085	622.556125578514	15
1	1087	623.000806057576	16
1	1088	623.342368475257	16
1	1090	623.812677963157	16
1	1091	623.832925260645	16
1	1092	624.062609166435	15
1	1096	625.701745421297	15
1	1098	625.716180471609	16
1	1100	625.876233856274	17
1	1102	628.728758301056	18
1	1104	630.106527331409	18
1	1105	632.047834977454	17
1	1107	632.303723712704	17
1	1111	634.857385763853	18
1	1115	638.129941893324	19
1	1118	639.153800412962	19
1	1119	639.172389689796	18
1	1121	639.355490837171	18
1	1122	639.700140880489	18
1	1123	640.368513062246	17
1	1127	643.465019616589	17
1	1129	644.671419189817	18
1	1131	647.93931066884	18
1	1132	648.033248972891	17
1	1133	648.259050827431	16
1	1134	649.893313592241	15
1	1138	650.443261964539	14
1	1140	650.505362366991	14
1	1142	652.654964473282	15
1	1144	653.234875637802	16
1	1145	653.325962522183	16
1	1149	657.909154989411	15
1	1150	658.745467186089	14
1	1151	658.792332851734	13
1	1153	658.806395959331	13
1	1155	661.646266399984	14
1	1156	662.722650402777	14
1	1157	663.66108485449	13
1	1159	663.889857967606	13
1	1164	665.121033067014	14
1	1165	665.882075849588	14
1	1166	666.030161507148	13
1	1167	667.090930364988	12
1	1169	667.149822262522	12
1	1173	668.79165390351	13
1	1177	670.695515264418	14
1	1179	671.617893067505	15
1	1181	672.600930163309	16
1	1184	678.287355187996	17
1	1188	686.458864782663	18
1	1191	687.302875650685	19
1	1193	687.721386768892	20
1	1195	688.298457046924	21
1	1197	688.692294630948	22
1	1199	690.468849238839	23
1	1204	693.762539673928	24
1	1206	694.365634617822	25
1	1208	695.082107356861	26
1	1210	695.7993479948	27
1	1214	703.459351880151	28
1	1217	705.380254437715	29
1	1219	706.935152312431	30
1	1221	710.318320713191	30
1	1222	710.543868111153	29
1	1226	710.982089666252	29
1	1228	712.212558396016	29
1	1229	714.644731598171	28
1	1231	714.801796038964	28
1	1232	715.584982069819	28
1	1234	716.793702924343	28
1	1235	717.182261597728	28
1	1237	717.939908937438	28
1	1238	718.56417537912	28
1	1239	718.978124492484	27
1	1240	719.187728447926	26
1	1241	719.234821031051	25
1	1242	719.348765627374	24
1	1243	720.482556059525	23
1	1244	721.750178126535	22
1	1245	721.936713082914	21
1	1246	722.35153430689	20
1	1247	723.569468036019	19
1	1248	723.691645980882	18
1	1249	723.879394942342	17
1	1253	726.33835458241	17
1	1258	726.691451421565	18
1	1260	728.219218151308	19
1	1262	728.510393987988	20
1	1264	728.623641361643	21
1	1268	737.358857448557	22
1	1270	738.206865758532	23
1	1272	739.652250459769	24
1	1275	743.933839462772	25
1	1278	746.663256887976	26
1	1279	747.367499542797	26
1	1280	747.461845588169	25
1	1282	747.680414227643	25
1	1283	747.891921918231	25
1	1284	748.054896616375	24
1	1285	749.549437505766	23
1	1289	752.303125963954	23
1	1291	753.242873345997	23
1	1295	755.632151321075	22
1	1296	756.348104944838	21
1	1297	756.499725954377	20
1	1299	757.646641355486	20
1	1300	758.529939809049	20
1	1302	758.931729213594	20
1	1304	761.056901238824	21
1	1306	761.936597544243	22
1	1308	762.280557842254	23
1	1309	763.072440976637	23
1	1310	763.298121124256	22
1	1311	763.540357351315	21
1	1313	763.774857657344	21
1	1315	764.65833763139	22
1	1316	764.762160710367	22
1	1317	765.129371191058	21
1	1319	765.493112573155	21
1	1321	766.671095095534	22
1	1323	767.223359311983	23
1	1324	767.435593987883	23
1	1325	767.669648992795	22
1	1326	769.458339080417	21
1	1328	769.790998012092	21
1	1329	772.009075208925	21
1	1330	772.261659432994	20
1	1332	773.025332847815	20
1	1333	773.407037945031	20
1	1335	773.67492574098	20
1	1339	774.914371410293	21
1	1342	775.323401985556	22
1	1343	776.758619858848	22
1	1345	777.096700107863	22
1	1346	778.036037763218	22
1	1347	778.215406238339	21
1	1349	778.260754792817	21
1	1350	779.360007362884	21
1	1351	781.593816602017	20
1	1352	781.672019784134	19
1	1353	782.772959831076	18
1	1355	782.976143122668	18
1	1357	783.04727508113	19
1	1359	783.466054403071	20
1	1360	784.269322554867	20
1	1362	784.95426347013	20
1	1364	785.455922338164	21
1	1365	786.763522540272	21
1	1367	787.49423225876	21
1	1368	787.87032504144	21
1	1369	788.527782201529	20
1	1371	790.852469521941	20
1	1375	791.53923448596	21
1	1377	793.381699608001	21
1	1378	794.386922129604	20
1	1379	794.78324303099	19
1	1381	795.831284701274	19
1	1385	797.159672457409	20
1	1387	797.743165596476	21
1	1389	798.950270811106	21
1	1391	800.349939242947	21
1	1392	801.433982751538	21
1	1393	802.144582660995	20
1	1394	804.126628953882	19
1	1396	804.374095501357	19
1	1397	806.731351139919	19
1	1399	806.760771962607	19
1	1400	806.814624228415	19
1	1402	806.929009869646	19
1	1403	807.046316006903	19
1	1404	807.168046175704	18
1	1405	807.366621874777	17
1	1406	807.461984866017	16
1	1407	807.467914317937	15
1	1409	808.269563005122	15
1	1410	810.481037759855	15
1	1411	812.084679222692	14
1	1413	812.19602367448	14
1	1414	812.849874254429	14
1	1418	812.891882041397	14
1	1420	812.969046958112	15
1	1422	815.421476626246	15
1	1436	831.229629923377	15
1	1438	832.103961692328	16
1	1440	834.352800036703	17
1	1442	838.63617562082	18
1	1444	838.951774802377	19
1	1446	839.05067280806	20
1	1448	839.696270303078	21
1	1450	841.790658801599	22
1	1452	843.721936165457	23
1	1454	847.150916351657	24
1	1456	849.152521227674	25
1	1459	850.011221538767	26
1	1461	850.729887776134	27
1	1463	851.159373616017	28
1	1468	855.398469189622	29
1	1470	855.545807148874	30
1	1473	860.678313183477	30
1	1474	860.749937729608	29
1	1476	860.888922147635	29
1	1478	861.2743581412	30
1	1479	861.327237248169	30
1	1483	865.344780653901	29
1	1484	865.428147175356	28
1	1486	866.259707359233	28
1	1487	866.456050894861	28
1	1489	868.599078969559	28
1	1490	869.516601666924	28
1	1491	870.219647281356	27
1	1493	872.870207742674	27
1	1494	874.778174544918	27
1	1495	874.968155248041	26
1	1496	875.187505285781	25
1	1497	875.313898349387	24
1	1501	876.009218820301	24
1	1505	876.377084385424	25
1	1507	876.462887091483	26
1	1512	877.128936516511	27
1	1514	877.267180492623	28
1	1517	880.033018169424	29
1	1519	880.430281923824	30
1	1521	882.618209691879	31
1	1523	882.740598902274	32
1	1525	884.812967913991	33
1	1527	885.66168815539	34
1	1529	888.449411647452	35
1	1531	889.236250535194	36
1	1533	889.449104904006	37
1	1535	889.626386905964	38
1	1537	890.417803864309	39
1	1539	890.851474439371	40
1	1541	890.957467654545	41
1	1543	891.549432254843	41
1	1544	894.000001941767	40
1	1545	895.012753796112	39
1	1549	895.73556689506	39
1	1551	896.68815909199	40
1	1553	898.056374401346	40
1	1555	898.640295572328	40
1	1556	900.426013455201	40
1	1558	902.134850477882	40
1	1560	902.262314480351	41
1	1561	902.434332189901	41
1	1562	903.76559973555	40
1	1563	904.253177053028	39
1	1564	905.070985234474	38
1	1566	905.545238163038	38
1	1568	906.017413702783	39
1	1569	907.371851960644	39
1	1570	908.237654571048	38
1	1571	908.296699060289	37
1	1572	909.299027801684	36
1	1574	909.322145698137	36
1	1575	909.48244981819	36
1	1576	909.62338794394	35
1	1577	910.006946064232	34
1	1579	910.289504952083	34
1	1581	910.421368354958	35
1	1582	910.895317816582	35
1	1583	911.019717175859	34
1	1584	914.41024383581	33
1	1585	915.42513726444	32
1	1587	915.434714426224	32
1	1589	916.032261410997	33
1	1591	919.506873609943	34
1	1592	920.554190609046	34
1	1594	920.760280895985	34
1	1595	920.77053681456	34
1	1596	921.676198738798	33
1	1598	921.860706007463	33
1	1599	922.498781653063	33
1	1600	923.335680458952	32
1	1601	924.90672287234	31
1	1603	925.040429789156	31
1	1604	925.886453874183	31
1	1606	929.977840649177	31
1	1607	930.152244741238	31
1	1608	930.924421865818	30
1	1609	931.646136295132	29
1	1611	931.716051316013	29
1	1612	931.754052757544	29
1	1613	932.29045703469	28
1	1614	932.50759355241	27
1	1615	932.729403314885	26
1	1617	934.026298858799	26
1	1618	937.066943169548	26
1	1620	937.069784919817	26
1	1622	937.749650817383	27
1	1623	938.408913769489	27
1	1625	939.912749323995	27
1	1629	942.293140865342	28
1	1631	943.709559128213	29
1	1633	944.335487507556	30
1	1635	945.956142253204	31
1	1637	948.278333708164	32
1	1639	948.36957036766	33
1	1644	952.878719477044	34
1	1646	961.974716691679	35
1	1648	965.933835308228	35
1	1652	968.282584986872	35
1	1654	968.683431832307	36
1	1656	973.073518882513	37
1	1658	973.229369792811	37
1	1659	973.724671841144	36
1	1660	973.978970266851	35
1	1662	974.746582550047	35
1	1663	975.199153520245	35
1	1664	975.324418423455	34
1	1665	977.853510127644	33
1	1667	978.521506277232	33
1	1669	979.356851968148	34
1	1673	980.954030838384	35
1	1675	981.009709243994	36
1	1677	981.267600398746	37
1	1679	982.94394086418	37
1	1680	982.964669332723	36
1	1682	982.970980593606	36
1	1684	983.06408870536	37
1	1685	983.349786469606	37
1	1687	983.429583997649	37
1	1688	983.453375632056	37
1	1689	983.766508604383	36
1	1691	983.771559128229	36
1	1693	984.311825735166	37
1	1694	986.131753544709	37
1	1695	986.276776481354	36
1	1697	986.370874085135	36
1	1698	986.409352642256	36
1	1700	986.887229912862	36
1	1701	987.004561462691	36
1	1702	987.673664218683	35
1	1703	987.744218629933	34
1	1704	989.433014846799	33
1	1705	989.955181224801	32
1	1706	992.39486670626	31
1	1708	992.636940317057	31
1	1709	992.934216873814	31
1	1710	994.202832377894	30
1	1712	995.309373763708	30
1	1713	996.094685322814	30
1	1714	996.970829629241	29
1	1715	997.569042012735	28
1	1717	997.673588030582	28
1	1718	998.324807270136	28
1	1720	1001.240255376067	28
1	1721	1002.1088633967	28
1	1723	1003.025928555921	28
1	1724	1004.621892554072	28
1	1725	1004.803759734282	27
1	1726	1004.877250451709	26
1	1727	1007.25716332791	25
1	1728	1007.834484114734	24
1	1729	1008.649344815051	23
1	1730	1010.069362547986	22
1	1732	1012.000532414431	22
1	1733	1012.276393777636	22
1	1735	1013.567549598375	22
1	1736	1013.765877376408	22
1	1737	1014.359446822157	21
1	1738	1014.723849913477	20
1	1740	1016.410851179171	20
1	1741	1016.826850733244	20
1	1743	1018.706290090828	20
1	1744	1018.722607118501	20
1	1745	1019.080242122923	19
1	1747	1019.251518245522	19
1	1752	1020.48542864891	20
1	1753	1021.329372274832	20
1	1755	1024.543841017059	20
1	1757	1024.845702346812	21
1	1758	1026.486526350565	21
1	1760	1026.906244750077	21
1	1764	1027.712438991806	22
1	1766	1029.846385639906	22
1	1768	1030.159058674219	22
1	1772	1030.699547146386	23
1	1776	1032.751328253124	24
1	1778	1033.079394731653	25
1	1782	1034.444215369651	26
1	1786	1036.848947632522	27
1	1788	1037.519791320409	28
1	1790	1040.47792095377	29
1	1794	1040.980387678633	30
1	1796	1045.476100344164	31
1	1798	1045.588792356555	32
1	1801	1047.314742150296	33
1	1803	1047.849996246182	34
1	1805	1049.138896179056	35
1	1807	1051.935051178074	36
1	1810	1052.094090758635	37
1	1811	1052.41614095078	37
1	1812	1053.472380689089	36
1	1813	1055.119192591757	35
1	1814	1055.334684511645	34
1	1816	1055.64903488347	34
1	1817	1055.84932072652	34
1	1818	1055.896614398111	33
1	1819	1056.137464728937	32
1	1821	1056.296133662434	32
1	1823	1057.600079303962	33
1	1825	1058.725986670333	34
1	1826	1059.231086693629	34
1	1827	1061.865781267772	33
1	1828	1061.876656214105	32
1	1829	1062.140819989503	31
1	1830	1062.725096709162	30
1	1831	1062.96782738145	29
1	1833	1063.492347941961	29
1	1835	1066.406181993593	30
1	1836	1066.568764370097	30
1	1838	1068.064121206201	30
1	1839	1068.707196672569	30
1	1840	1071.795296881542	29
1	1842	1071.946956190131	29
1	1844	1072.532883793488	30
1	1845	1074.015922358145	30
1	1847	1074.826970797504	30
1	1856	1079.029958117146	31
1	1862	1085.963082652474	32
1	1864	1087.82236939584	33
1	1871	1089.309316506946	34
1	1873	1092.35774191291	35
1	1875	1094.289238476411	36
1	1877	1094.462047822099	37
1	1879	1096.579219588963	38
1	1883	1101.054500175798	39
1	1885	1101.831240328357	40
1	1887	1102.271588876233	41
1	1889	1103.394113312129	42
1	1891	1104.198183886682	43
1	1893	1104.852599108678	44
1	1895	1107.696215900475	45
1	1900	1115.071038203364	46
1	1904	1122.072177711592	47
1	1906	1122.4177195692	48
1	1908	1123.907830133594	49
1	1910	1124.904388704619	50
1	1913	1126.634118320135	51
1	1914	1126.696400683531	51
1	1916	1127.218752485433	51
1	1917	1127.335111855085	51
1	1918	1128.09050895819	50
1	1919	1128.789496835753	49
1	1920	1129.438510363748	48
1	1922	1130.360501054885	48
1	1923	1131.569664877902	48
1	1924	1131.777645552986	47
1	1925	1132.057137593961	46
1	1926	1132.174449317097	45
1	1927	1132.246660154634	44
1	1928	1133.211733004228	43
1	1929	1134.491119546185	42
1	1931	1135.013068140641	42
1	1935	1139.099963546559	42
1	1937	1140.213036946075	42
1	1938	1140.245181625026	42
1	1940	1140.737876424124	42
1	1942	1142.108265242825	43
1	1944	1142.834209032743	44
1	1945	1143.602988670783	44
1	1946	1143.706334816453	43
1	1947	1144.017636045982	42
1	1949	1144.041161932094	42
1	1950	1145.256236662777	42
1	1952	1145.339250929467	42
1	1953	1146.799310935911	42
1	1955	1147.269925424055	42
1	1956	1147.965834496415	42
1	1957	1149.081874620309	41
1	1958	1149.115683486032	40
1	1960	1149.230407783355	40
1	1961	1149.251079376386	40
1	1963	1149.34752190974	40
1	1964	1150.354401899293	40
1	1965	1150.613957753745	39
1	1966	1151.801823590365	38
1	1968	1152.409731100422	38
1	1969	1153.490787996225	38
1	1970	1153.549728644813	37
1	1971	1155.541490556498	36
1	1972	1157.943759594358	35
1	1973	1158.071333185348	34
1	1974	1158.519861758944	33
1	1975	1159.177825245431	32
1	1976	1159.345364102278	31
1	1978	1162.746349912082	31
1	1979	1164.24712248859	31
1	1983	1167.801945420102	31
1	1988	1171.766458391274	32
1	1992	1172.383430660303	33
1	1997	1175.673612973795	34
1	2000	1175.767301783773	35
1	2004	1176.172023898325	36
1	2006	1176.223202046783	37
1	2008	1177.244120465773	38
1	2010	1181.001704656772	39
1	2013	1184.532547214304	40
1	2015	1185.99610276799	41
1	2017	1186.332686927951	42
1	2020	1189.027139104748	43
1	2022	1189.781759596227	44
1	2023	1190.696251199704	44
1	2025	1190.760510942415	44
1	2026	1191.25787774988	44
1	2027	1191.458047989597	43
1	2029	1191.942478433669	43
1	2030	1192.131223525732	43
1	2031	1193.324979544811	42
1	2032	1193.384333076165	41
1	2033	1193.798793196332	40
1	2037	1194.693841462833	39
1	2038	1194.80094632052	38
1	2042	1196.273136394088	38
1	2046	1198.207182739914	39
1	2049	1199.894690269783	40
1	2051	1201.902801401004	41
1	2053	1205.417359911266	42
1	2055	1205.595306206015	43
1	2060	1208.056300548157	44
1	2064	1208.7581161735	45
1	2066	1208.779696072727	46
1	2070	1209.058660752498	47
1	2072	1210.556845951856	48
1	2075	1212.033547695929	49
1	2077	1212.961215547612	50
1	2079	1215.548922000094	51
1	2081	1215.796902044163	52
1	2084	1216.190978105352	53
1	2086	1216.250524640141	54
1	2089	1216.666625398398	55
1	2091	1217.738888158429	56
1	2092	1217.982027693809	56
1	2093	1218.173170534316	55
1	2094	1219.219984757432	54
1	2095	1220.012441768924	53
1	2096	1220.857486706086	52
1	2098	1221.017118825566	52
1	2100	1221.624503228036	53
1	2101	1222.136551088071	53
1	2103	1222.468551348996	53
1	2105	1222.934908442504	54
1	2107	1223.046636066008	55
1	2108	1224.019531923308	55
1	2110	1224.030990089903	55
1	2111	1224.172449524686	55
1	2112	1224.935270819633	54
1	2114	1224.946693806005	54
1	2115	1226.654827240573	54
1	2116	1227.217110394904	53
1	2118	1228.457180418807	53
1	2120	1229.295808435455	54
1	2121	1229.419939528508	54
1	2123	1229.584210644249	54
1	2124	1229.662045495954	54
1	2125	1229.982273160176	53
1	2126	1230.600941774601	52
1	2127	1231.042484601939	51
1	2128	1231.080855971052	50
1	2130	1231.37860330275	50
1	2132	1231.459620915948	51
1	2133	1231.713206619796	51
1	2134	1232.243421656259	50
1	2136	1232.426602032539	50
1	2137	1232.806934337228	50
1	2139	1233.274845329061	50
1	2140	1233.663608363295	50
1	2141	1233.880667831057	49
1	2143	1234.912851568113	49
1	2144	1235.052835390182	49
1	2145	1235.241545692029	48
1	2146	1235.360550388581	47
1	2147	1236.691715416067	46
1	2148	1237.158159323217	45
1	2149	1237.2916750905	44
1	2153	1238.396300865371	44
1	2155	1239.679464330218	44
1	2163	1241.599252287875	44
1	2165	1241.836110749367	45
1	2168	1242.364784156363	46
1	2173	1247.433339150968	47
1	2175	1249.427862158992	48
1	2177	1251.016461036226	49
1	2180	1253.890593479346	49
1	2182	1254.219432475917	49
1	2184	1255.531887214661	50
1	2186	1256.356737637311	51
1	2188	1257.010938341509	52
1	2189	1257.016671721853	52
1	2190	1258.519524278579	51
1	2191	1259.825964494768	50
1	2193	1261.303004257034	50
1	2194	1261.535959359154	50
1	2196	1261.623469733305	50
1	2197	1263.268913396328	50
1	2198	1263.573672173062	49
1	2200	1264.880141667726	49
1	2201	1265.183765085157	49
1	2202	1266.319145993111	48
1	2203	1266.429971224005	47
1	2204	1267.766926335507	46
1	2205	1268.274520211479	45
1	2207	1268.291951042626	45
1	2208	1269.34339255937	45
1	2209	1269.379661633079	44
1	2210	1269.855447573171	43
1	2211	1270.893233591546	42
1	2212	1271.683853907075	41
1	2214	1274.921063459368	41
1	2215	1274.991253478565	41
1	2216	1275.056803199933	40
1	2217	1275.551123650759	39
1	2219	1275.738719787404	39
1	2220	1276.043313416987	39
1	2221	1277.06470115989	38
1	2222	1280.079124590185	37
1	2224	1280.361291966557	37
1	2225	1280.685786028622	37
1	2231	1287.572829972507	37
1	2234	1293.185123603322	38
1	2236	1294.253784047924	39
1	2238	1294.912253248541	40
1	2240	1297.894423047958	41
1	2242	1299.416844394195	41
1	2243	1299.435503480738	40
1	2244	1299.539414833181	39
1	2245	1299.668512657295	38
1	2246	1299.753453256855	37
1	2247	1300.449011640694	36
1	2251	1301.51325038873	36
1	2253	1303.441220420982	37
1	2255	1305.220265422419	37
1	2256	1306.156771151837	36
1	2257	1307.0965689726	35
1	2259	1307.316645017671	35
1	2261	1307.355503522333	36
1	2262	1307.393622687549	36
1	2263	1308.302801197435	35
1	2264	1308.883202121715	34
1	2266	1309.510142229502	34
1	2267	1310.734990524533	34
1	2268	1310.777051854098	33
1	2269	1310.831479072275	32
1	2271	1313.121103196637	32
1	2272	1314.108964972123	32
1	2274	1315.2489116241	32
1	2275	1315.39305075867	32
1	2276	1315.812121654198	31
1	2277	1316.420462028623	30
1	2279	1316.798573712415	30
1	2280	1317.440629858196	30
1	2282	1317.671882955922	30
1	2283	1318.326866278005	30
1	2285	1319.70735385245	30
1	2287	1319.930206640137	31
1	2288	1320.020074743261	31
1	2290	1321.070622362466	31
1	2291	1322.126729441943	31
1	2292	1322.458385601353	30
1	2293	1325.063366060149	29
1	2294	1326.480113643613	28
1	2295	1326.691908474255	27
1	2297	1328.601991555573	27
1	2298	1329.963415268077	27
1	2299	1330.155290182122	26
1	2300	1330.588710459767	25
1	2304	1331.919664792018	25
1	2306	1332.573231537925	25
1	2307	1332.727774259391	24
1	2308	1333.079653413088	23
1	2309	1333.3057621123	22
1	2311	1333.663752927513	22
1	2312	1334.152980272298	22
1	2313	1335.022281632269	21
1	2314	1335.691417460832	20
1	2315	1336.321379777651	19
1	2316	1336.661082969073	18
1	2320	1336.724904264666	18
1	2322	1338.752466117024	18
1	2323	1339.380465153761	17
1	2324	1340.102236305707	16
1	2325	1340.533049457787	15
1	2327	1341.62804662785	15
1	2328	1341.832080438226	15
1	2332	1342.853336406724	15
1	2334	1344.570090888936	16
1	2336	1345.251152665311	17
1	2338	1351.285783931038	17
1	2340	1351.52625006215	17
1	2341	1351.894055061013	17
1	2342	1351.937158978473	16
1	2344	1352.674726463614	16
1	2345	1353.50719545098	16
1	2347	1353.786128022288	16
1	2348	1354.54586361713	16
1	2349	1354.843186345394	15
1	2350	1357.551184548849	14
1	2351	1358.373401090397	13
1	2352	1359.99697288879	12
1	2353	1360.446267560517	11
1	2354	1360.501687646786	10
1	2355	1360.68156851007	9
1	2357	1360.915986573447	9
1	2358	1361.176917311938	9
1	2359	1361.460156740064	8
1	2363	1364.70291658872	8
1	2366	1368.901064776469	9
1	2367	1369.734940245842	9
1	2368	1369.939115786928	8
1	2369	1370.124224103928	7
1	2370	1370.24189683211	6
1	2371	1371.096822730269	5
1	2372	1371.282720518154	4
1	2374	1371.411389659753	4
1	2376	1371.83416980308	5
1	2380	1373.784683530106	6
1	2382	1376.719721175268	7
1	2385	1378.465677274972	8
1	2386	1379.521454333792	8
1	2388	1379.859117264431	8
1	2392	1380.736211992157	9
1	2394	1380.777263871973	10
1	2396	1383.580896687637	11
1	2398	1383.929130580391	12
1	2400	1386.780448604694	12
1	2402	1387.870323162659	12
1	2403	1387.909312051374	12
1	2405	1387.927239877993	12
1	2407	1388.760432976145	13
1	2411	1389.27554613437	14
1	2416	1394.723673048441	15
1	2418	1395.908608607443	16
1	2420	1396.722750679504	17
1	2422	1398.040675782104	18
1	2424	1398.138120706196	19
1	2426	1398.607839413031	20
1	2428	1398.701413658008	21
1	2431	1399.682806498855	22
1	2432	1400.581804523689	22
1	2434	1402.336790970797	22
1	2435	1402.746418513669	22
1	2436	1404.50826267174	21
1	2438	1404.853718333963	21
1	2440	1405.085299577929	22
1	2441	1406.230341699045	22
1	2442	1407.382722811073	21
1	2444	1409.158277748604	21
1	2445	1409.422396289901	21
1	2447	1409.546667518654	21
1	2452	1411.65999864622	22
1	2453	1411.914292019151	22
1	2455	1412.021102564692	22
1	2456	1412.664661273612	22
1	2460	1413.097972050048	22
1	2462	1414.079557724545	22
1	2466	1419.75908167176	21
1	2468	1421.902889277684	21
1	2469	1422.564399814752	21
1	2470	1424.013105398618	20
1	2471	1424.763607882542	19
1	2473	1424.837498253215	19
1	2474	1425.684983303469	19
1	2475	1425.957619677423	18
1	2476	1428.839761820959	17
1	2478	1429.207840603339	17
1	2479	1429.301866708067	17
1	2480	1429.449162335153	16
1	2481	1433.131633709699	15
1	2482	1433.45500804559	14
1	2484	1434.693440424194	14
1	2486	1434.968455610451	15
1	2488	1435.043778763852	16
1	2489	1435.976597618756	16
1	2490	1436.088373576065	15
1	2494	1440.861221217909	15
1	2496	1441.960047863711	16
1	2500	1443.084110549374	17
1	2502	1444.196076556049	18
1	2504	1444.484645415335	19
1	2507	1446.400966172259	20
1	2511	1447.08886664996	21
1	2515	1449.645044964694	22
1	2517	1449.685814406142	23
1	2518	1450.220059638025	23
1	2519	1450.31582981128	22
1	2520	1450.906853437567	21
1	2521	1452.117687924198	20
1	2522	1452.344292202907	19
1	2523	1453.026857399135	18
1	2524	1453.240356796449	17
1	2526	1454.302796150845	17
1	2527	1455.582837291815	17
1	2528	1456.557749226183	16
1	2530	1456.892810910978	16
1	2532	1457.162482676772	17
1	2533	1457.445820207048	17
1	2534	1458.165167601627	16
1	2535	1459.101371198004	15
1	2536	1459.809013849605	14
1	2537	1461.320714770239	13
1	2538	1461.619036860488	12
1	2539	1462.127029659181	11
1	2541	1462.592125660359	11
1	2545	1464.322863517627	12
1	2547	1464.796182206038	13
1	2549	1466.40401424998	13
1	2550	1467.271495842899	12
1	2551	1467.898971120723	11
1	2552	1468.008434010623	10
1	2553	1468.198135275529	9
1	2554	1468.525380553379	8
1	2555	1468.560666218982	7
1	2556	1469.727930305558	6
1	2558	1470.499478991101	6
1	2559	1470.55703311409	6
1	2560	1470.919402039508	5
1	2562	1471.534237021106	5
1	2563	1472.18258555149	5
1	2564	1472.916809785839	4
1	2565	1473.186959896876	3
1	2567	1473.445032875986	3
1	2569	1473.700912301782	4
1	2571	1475.097502531483	5
1	2572	1475.503005131345	5
1	2574	1475.871084511804	5
1	2575	1476.213284192134	5
1	2576	1476.707575123957	4
1	2577	1476.714788099021	3
1	2578	1477.316495346926	2
1	2579	1478.122145286141	1
1	2580	1478.345944545676	0
1	2582	1480.841857486378	0
1	2583	1481.249422952039	0
1	2585	1481.963526768127	0
1	2586	1482.624826459171	0
1	2594	1490.361609188197	0
1	2599	1492.512361083711	1
1	2601	1493.0554870501	2
1	2603	1493.702218752442	3
1	2607	1495.070327628844	4
1	2609	1495.21830719818	5
1	2619	1504.063239426415	6
1	2621	1504.084826049317	7
1	2623	1505.963057270576	8
1	2627	1508.940572990596	9
1	2632	1516.773616692843	10
1	2634	1518.563854478212	11
1	2638	1519.549694512515	12
1	2640	1521.098390356562	13
1	2642	1521.337298638578	14
1	2646	1525.075686067143	15
1	2649	1526.050889544204	16
1	2651	1526.231668395942	17
1	2656	1527.470707650601	18
1	2658	1529.741811179504	19
1	2660	1530.674033724182	20
1	2662	1531.833129867989	21
1	2669	1541.24088217699	22
1	2671	1541.78709154484	23
1	2673	1544.948919683142	24
1	2675	1545.109571603321	25
1	2677	1545.724406382621	26
1	2679	1546.206786328637	27
1	2681	1547.114429866171	28
1	2687	1549.332806031339	29
1	2689	1549.978650834483	30
1	2694	1554.710676123679	31
1	2696	1556.301049613055	32
1	2699	1557.035188307998	33
1	2700	1557.340396205069	33
1	2704	1558.258401054871	33
1	2706	1561.038374319654	34
1	2708	1564.944119553198	35
1	2713	1569.86479638019	35
1	2714	1570.177038003355	34
1	2715	1570.440020041072	33
1	2716	1570.661683404658	32
1	2717	1570.80188466478	31
1	2718	1571.445078603462	30
1	2720	1572.071302822102	30
1	2721	1572.563402711505	30
1	2722	1573.542295570134	29
1	2723	1575.31282547935	28
1	2725	1576.670603970128	28
1	2727	1577.156622832965	29
1	2728	1578.400059418577	29
1	2729	1579.387056169316	28
1	2731	1579.6283866097	28
1	2732	1580.905658067177	28
1	2733	1581.790663164144	27
1	2734	1581.866004421564	26
1	2735	1582.692321758465	25
1	2736	1583.360155432107	24
1	2737	1583.398960743945	23
1	2739	1584.172140997526	23
1	2741	1585.354927562161	24
1	2749	1588.815825323684	25
1	2751	1589.808929314274	26
1	2753	1590.281507049729	27
1	2755	1591.441252575322	28
1	2757	1591.734988614316	29
1	2759	1592.050814417172	30
1	2764	1598.80029145302	31
1	2767	1600.99246917935	32
1	2770	1603.826596161266	33
1	2772	1605.159418134591	34
1	2774	1609.430062674726	34
1	2775	1610.112128704165	33
1	2777	1610.27908939978	33
1	2778	1610.970391914291	33
1	2779	1611.204670057665	32
1	2780	1611.462496328355	31
1	2781	1612.316146776098	30
1	2783	1612.484987705273	30
1	2784	1612.570194337845	30
1	2786	1613.732584834853	30
1	2787	1613.849004460045	30
1	2788	1614.315042844549	29
1	2790	1614.387245318915	29
1	2791	1615.302238786136	29
1	2795	1615.858066618736	29
1	2797	1618.975085903858	30
1	2800	1621.159615409942	31
1	2801	1621.449997912585	31
1	2802	1621.584955029075	30
1	2803	1622.369757311132	29
1	2804	1623.046341052221	28
1	2805	1623.440910434393	27
1	2806	1623.464229359543	26
1	2808	1624.071247876756	26
1	2810	1624.803074116383	27
1	2811	1625.486405614813	27
1	2812	1625.870891978342	26
1	2813	1625.960860652992	25
1	2814	1627.400673093427	24
1	2815	1627.744584605655	23
1	2816	1627.998701203266	22
1	2817	1628.792169393488	21
1	2819	1629.513804225703	21
1	2821	1629.555557547193	22
1	2823	1630.356375418798	23
1	2824	1631.177545420342	23
1	2826	1631.330476145953	23
1	2828	1631.89398724017	24
1	2829	1632.175879631955	24
1	2833	1635.10654852124	24
1	2835	1635.90915056196	25
1	2837	1637.341868184318	26
1	2839	1637.53178121311	27
1	2841	1637.851771135401	28
1	2843	1638.061728855748	29
1	2847	1638.254223471141	30
1	2850	1642.724891018464	31
1	2852	1643.941569787465	32
1	2854	1644.874943888156	32
1	2855	1645.44308238209	31
1	2856	1645.588901265266	30
1	2860	1647.067033037973	29
1	2862	1647.499794083438	29
1	2863	1647.698724097018	29
1	2864	1647.772760630112	28
1	2866	1648.390512768016	28
1	2868	1649.630407509674	29
1	2869	1649.975709547149	29
1	2870	1650.735376767438	28
1	2874	1653.841344431887	28
1	2877	1654.165022902912	29
1	2879	1654.415792514186	30
1	2881	1655.248059103693	31
1	2883	1655.741007761282	32
1	2889	1659.750304173294	33
1	2892	1660.637259477849	34
1	2894	1660.64455797034	35
1	2896	1662.569259685871	36
1	2898	1663.934074007842	37
1	2900	1666.752578714278	37
1	2902	1666.774462937086	37
1	2904	1666.970946699724	38
1	2905	1667.10460635279	38
1	2906	1667.933465044747	37
1	2907	1668.587826635604	36
1	2908	1669.4616675827	35
1	2909	1670.027090105542	34
1	2911	1670.157755158822	34
1	2913	1670.566989383853	35
1	2914	1671.419407858087	35
1	2916	1671.583605258832	35
1	2917	1672.857933142742	35
1	2918	1673.190754232471	34
1	2920	1673.239276457895	34
1	2921	1673.563270038861	34
1	2922	1673.705480153754	33
1	2923	1674.509987237982	32
1	2924	1674.61820472435	31
1	2925	1675.049542981578	30
1	2926	1675.339772794838	29
1	2927	1675.984319184068	28
1	2932	1679.38169142885	28
1	2933	1679.570233035482	28
1	2934	1679.724572103871	27
1	2935	1680.596194897528	26
1	2937	1681.453274090768	26
1	2938	1681.495805538825	26
1	2940	1681.750140888499	26
1	2942	1682.902817569746	27
1	2943	1683.169605110013	27
1	2944	1683.994930328989	26
1	2946	1684.158676704068	26
1	2947	1684.176654350362	26
1	2948	1685.566489266521	25
1	2950	1685.756806257408	25
1	2954	1687.740922130538	26
1	2960	1690.6312353394	27
1	2962	1691.657208935237	28
1	2964	1691.684550085495	29
1	2966	1697.824850542956	30
1	2968	1697.885008350827	31
1	2970	1699.349298992806	32
1	2972	1701.667091669846	33
1	2976	1702.049568216838	34
1	2978	1702.428430522603	35
1	2980	1703.706257171934	36
1	2983	1706.943787670096	37
1	2985	1707.638220559618	38
1	2987	1710.505002763165	39
1	2990	1716.970172067009	40
1	2993	1719.449335223828	40
1	2995	1719.49975883192	40
1	2996	1720.148618397683	40
1	2997	1720.734056103014	39
1	2998	1721.565085399254	38
1	2999	1721.718274164227	37
1	3000	1722.121311052416	36
1	3002	1722.176736644225	36
1	3003	1722.942690026867	36
1	3004	1725.131486822638	35
1	3006	1727.812653003408	35
1	3007	1727.977876672979	35
1	3009	1728.577526778564	35
1	3011	1730.221999323729	36
1	3012	1730.304515048772	36
1	3014	1730.633984705106	36
1	3016	1730.831823807433	37
1	3017	1731.401738068122	37
1	3018	1732.337871332118	36
1	3020	1732.85063311159	36
1	3022	1734.242619581329	37
1	3024	1735.669839271849	38
1	3025	1735.879628156512	38
1	3026	1737.771465840156	37
1	3028	1738.160249260115	37
1	3029	1738.633139171238	37
1	3030	1738.67299905378	36
1	3032	1739.108253686507	36
1	3034	1739.337893265927	37
1	3035	1741.476300109918	37
1	3036	1742.337735388326	36
1	3037	1742.454743192224	35
1	3038	1743.239876454636	34
1	3039	1743.7365855054	33
1	3040	1743.847279358905	32
1	3041	1744.126903523311	31
1	3042	1744.529864420912	30
1	3043	1744.610766365611	29
1	3044	1745.267547310853	28
1	3046	1745.424418010953	28
1	3047	1745.47826382807	28
1	3048	1748.081298385497	27
1	3049	1748.345875423091	26
1	3051	1749.672229885718	26
1	3053	1750.239477058192	27
1	3054	1750.993284709185	27
1	3055	1751.714344462369	26
1	3056	1753.849306538206	25
1	3058	1754.032071236891	25
1	3059	1754.131005101212	25
1	3060	1754.335559087466	24
1	3061	1754.398754436258	23
1	3065	1755.938861062393	23
1	3067	1756.880205548599	23
1	3069	1758.476178456826	23
1	3070	1758.88743728978	23
1	3071	1758.970405594174	22
1	3072	1759.321248058862	21
1	3074	1760.035756179227	21
1	3075	1760.906596252265	21
1	3076	1761.588866423583	20
1	3077	1762.785221738753	19
1	3078	1764.055150140873	18
1	3079	1764.082233452556	17
1	3081	1764.674112340849	17
1	3083	1765.582021548255	18
1	3085	1766.649172206442	19
1	3086	1766.973719132708	19
1	3087	1767.753474380739	18
1	3088	1768.708409819712	17
1	3090	1768.884711197382	17
1	3092	1769.301676169259	18
1	3094	1771.25601083784	19
1	3096	1771.293777180352	20
1	3097	1771.734666374741	20
1	3098	1771.938660840346	19
1	3099	1772.206630422549	18
1	3100	1774.189529537548	17
1	3102	1775.89538447318	17
1	3103	1776.422281378825	17
1	3104	1777.233913318361	16
1	3108	1780.312973763327	16
1	3110	1781.876472275511	17
1	3112	1782.922829220617	18
1	3114	1783.137212468838	19
1	3117	1783.808148377888	20
1	3118	1784.413813214086	20
1	3119	1785.164497596242	19
1	3121	1786.77657144127	19
1	3122	1786.908433759152	19
1	3123	1787.089481269484	18
1	3124	1787.283108550303	17
1	3125	1789.634426899339	16
1	3127	1790.194336466044	16
1	3128	1790.69677329884	16
1	3129	1791.188740407685	15
1	3130	1791.647076446293	14
1	3131	1792.202483370654	13
1	3132	1792.794164133288	12
1	3133	1793.568245302289	11
1	3135	1793.670553046073	11
1	3136	1794.537611450854	11
1	3137	1794.726527466156	10
1	3138	1795.219274584069	9
1	3140	1796.006168267725	9
1	3141	1796.204618477834	9
1	3142	1796.306138158058	8
1	3143	1796.376172269776	7
1	3144	1797.070021436123	6
1	3145	1797.70951119964	5
1	3147	1797.922062487599	5
1	3148	1797.924966525274	5
1	3149	1797.92881037406	4
1	3150	1799.134945405655	3
1	3151	1799.738877070355	2
1	3152	1800.050444253834	1
1	3156	1801.451219191595	1
1	3158	1801.929388650491	2
1	3160	1805.280413087101	3
1	3162	1806.375084089791	4
1	3164	1807.480141515467	4
1	3165	1808.43662243827	3
1	3166	1809.408721306548	2
1	3167	1811.497859689952	1
1	3169	1811.768441022615	1
1	3171	1813.601855656213	2
1	3173	1813.658784222209	3
1	3175	1815.159006092628	4
1	3177	1815.319612788719	5
1	3183	1817.234252601301	6
1	3191	1825.52328374953	7
1	3193	1825.578443105629	8
1	3195	1826.256997730358	9
1	3197	1826.963767116937	10
1	3199	1827.376413597458	11
1	3202	1827.71578642553	12
1	3204	1828.617293665504	13
1	3206	1829.472814851458	14
1	3208	1829.542800232967	15
1	3210	1829.836080756599	16
1	3212	1831.404981333252	17
1	3214	1834.015237186338	18
1	3219	1839.347291352856	19
1	3221	1839.999094732103	20
1	3224	1840.403743518886	21
1	3226	1840.940946481275	22
1	3228	1841.053897595042	23
1	3233	1844.415617226267	24
1	3235	1846.003932161571	25
1	3237	1847.271873979795	26
1	3239	1848.311934401271	27
1	3241	1849.193817802178	28
1	3243	1852.341136858364	29
1	3248	1858.824646347398	30
1	3250	1860.324804644114	31
1	3252	1860.886785855901	32
1	3255	1863.107674744859	33
1	3257	1864.972755525011	34
1	3259	1865.010384386728	35
1	3261	1865.997974354627	36
1	3263	1867.703696825386	37
1	3265	1869.13384654239	38
1	3267	1869.69929915043	39
1	3270	1870.396413216657	40
1	3272	1870.956943610432	40
1	3273	1871.516341032073	39
1	3274	1871.533211052568	38
1	3275	1873.077283073088	37
1	3276	1873.091658172237	36
1	3280	1875.168040953606	36
1	3282	1876.488369187367	37
1	3284	1877.07857533553	38
1	3287	1879.455101382598	39
1	3288	1879.700601643083	39
1	3290	1879.895071795116	39
1	3292	1880.115251943416	40
1	3293	1880.163330976694	40
1	3295	1881.252980392147	40
1	3296	1883.890315571867	40
1	3298	1884.757971529503	40
1	3299	1885.486853011622	40
1	3300	1885.51539872016	39
1	3301	1885.898021046257	38
1	3303	1886.175306445471	38
1	3305	1886.39450713961	39
1	3306	1886.416284371875	39
1	3307	1886.672710186085	38
1	3309	1887.186955019329	38
1	3310	1887.369110336151	38
1	3312	1887.407110251688	38
1	3313	1887.924787602987	38
1	3314	1889.094586255434	37
1	3315	1889.636610545813	36
1	3316	1889.73909443398	35
1	3318	1890.943288609695	35
1	3319	1891.283033651326	35
1	3321	1891.475227332878	35
1	3322	1891.506519694275	35
1	3324	1891.87240166386	35
1	3325	1893.032410137806	35
1	3327	1893.336336963842	35
1	3328	1893.819865425282	35
1	3329	1893.954634857177	34
1	3330	1895.277441659961	33
1	3331	1896.899339841938	32
1	3333	1897.104193857725	32
1	3335	1901.823973195248	33
1	3336	1902.282941565287	33
1	3337	1903.570590912761	32
1	3338	1903.727268930428	31
1	3339	1903.791381005212	30
1	3340	1904.064831956161	29
1	3341	1904.106841197043	28
1	3342	1904.281447589357	27
1	3344	1905.224073937854	27
1	3345	1905.335425780272	27
1	3347	1906.132528300954	27
1	3348	1906.671346383469	27
1	3349	1906.931503708035	26
1	3351	1906.952179765278	26
1	3352	1907.273786056292	26
1	3353	1907.377608166221	25
1	3354	1907.387339929977	24
1	3355	1907.412450613118	23
1	3357	1907.59874709291	23
1	3358	1907.694795783167	23
1	3360	1908.338104499771	23
1	3362	1908.417594417049	24
1	3364	1908.586960195797	25
1	3366	1910.078923997914	26
1	3367	1910.192460484913	26
1	3368	1910.2898606207	25
1	3372	1910.868311973552	25
1	3374	1910.968241360772	26
1	3376	1911.049560097378	27
1	3378	1911.94186025093	27
1	3379	1911.959753720953	26
1	3381	1913.119249357313	26
1	3382	1913.456723141035	26
1	3384	1914.412002726049	26
1	3386	1914.615041887031	27
1	3387	1915.725032667812	27
1	3388	1915.755958038422	26
1	3389	1916.82305813349	25
1	3390	1917.160883660769	24
1	3391	1917.300696531604	23
1	3397	1919.100893475334	23
1	3401	1920.674351761205	24
1	3403	1920.679332580946	25
1	3404	1921.025382840157	25
1	3406	1921.883436961991	25
1	3407	1922.369218435823	25
1	3409	1925.400022438439	25
1	3410	1925.830259626597	25
1	3416	1928.326021316869	25
1	3424	1936.555429760085	26
1	3426	1936.592107846528	27
1	3429	1938.082280586362	27
1	3430	1938.499277973566	26
1	3431	1938.844216499841	25
1	3432	1939.065354659712	24
1	3434	1939.564176740755	24
1	3435	1939.902675951412	24
1	3437	1939.940126364515	24
1	3438	1941.276223249897	24
1	3440	1941.794624237892	24
1	3441	1941.936638534241	24
1	3442	1942.580036638032	23
1	3443	1942.649254931269	22
1	3444	1943.60236270754	21
1	3446	1943.697135019156	21
1	3447	1944.319381004398	21
1	3449	1946.219385838423	21
1	3451	1946.717453824709	22
1	3452	1948.659709058794	22
1	3454	1948.70284025792	22
1	3455	1950.315804876969	22
1	3456	1950.52497551464	21
1	3457	1951.205452689539	20
1	3458	1951.857357429964	19
1	3460	1952.108913132609	19
1	3464	1952.520131290677	20
1	3466	1952.577704690329	21
1	3468	1953.208269125195	22
1	3470	1955.982469934615	23
1	3472	1956.033718332724	24
1	3474	1957.942854990265	25
1	3476	1958.5134468568	25
1	3477	1958.808505661904	24
1	3478	1958.883536132681	23
1	3479	1958.967462743504	22
1	3481	1959.351035501548	22
1	3490	1968.756004443152	23
1	3492	1971.280934624987	24
1	3494	1973.788726183765	25
1	3497	1974.905949924704	26
1	3499	1976.540282456387	27
1	3501	1978.387826827451	27
1	3503	1979.054257503318	27
1	3504	1979.395889730552	27
1	3505	1980.041207799472	26
1	3506	1980.115203307388	25
1	3510	1980.945646680177	24
1	3512	1981.610284729495	24
1	3513	1984.162073687644	24
1	3515	1985.762682709862	24
1	3516	1987.588190201126	24
1	3517	1987.846119105772	23
1	3518	1987.938383340272	22
1	3519	1988.377277276719	21
1	3520	1990.093127621831	20
1	3521	1991.028334019597	19
1	3522	1991.142788350805	18
1	3524	1991.569169412589	18
1	3525	1991.763163203541	18
1	3526	1992.810957681707	17
1	3527	1995.145988830407	16
1	3532	1997.469028226665	16
1	3533	1997.707153414473	16
1	3534	1997.797387145317	15
1	3535	1999.945885973222	14
2	0	0	0
2	19	13.148178754204	1
2	27	19.082876542733	2
2	49	26.674426034823	3
[...]
8	3124	1787.283108550303	31.34424748791
8	3125	1789.634426899339	31.158248442513
8	3128	1790.69677329884	30.661017119613
8	3129	1791.188740407685	26.514628066836
8	3130	1791.647076446293	26.065054898038
8	3131	1792.202483370654	25.553311164212
8	3132	1792.794164133288	23.909452935906
8	3133	1793.568245302289	24.26656913303
8	3136	1794.537611450854	23.281600613014
8	3137	1794.726527466156	23.432750285804
8	3138	1795.219274584069	19.323890110889
8	3141	1796.204618477834	17.786902325536
8	3142	1796.306138158058	15.993164394731
8	3143	1796.376172269776	14.499699994265
8	3144	1797.070021436123	14.147192215506
8	3145	1797.70951119964	14.572298730802
8	3148	1797.924966525274	14.116818147386
8	3149	1797.92881037406	11.15223893279
8	3150	1799.134945405655	8.940608939611
8	3151	1799.738877070355	6.068324024282
8	3152	1800.050444253834	4.044275986109
8	3164	1807.480141515467	7.154746120838
8	3165	1808.43662243827	6.985403246675
8	3166	1809.408721306548	7.479332656057
8	3167	1811.497859689952	6.217446602851
8	3272	1870.956943610432	59.188502587817
8	3273	1871.516341032073	57.91448537586
8	3274	1871.533211052568	57.874426830359
8	3275	1873.077283073088	57.91827698046
8	3276	1873.091658172237	57.772045383518
8	3288	1879.700601643083	62.466349041782
8	3293	1880.163330976694	54.640047227164
8	3296	1883.890315571867	58.311872466238
8	3299	1885.486853011622	59.229855281264
8	3300	1885.51539872016	58.551631603223
8	3301	1885.898021046257	58.521607448799
8	3306	1886.416284371875	58.700497946345
8	3307	1886.672710186085	58.055416520581
8	3310	1887.369110336151	57.896295484693
8	3313	1887.924787602987	58.38198737002
8	3314	1889.094586255434	59.258505498835
8	3315	1889.636610545813	58.231629212561
8	3316	1889.73909443398	55.723857247642
8	3319	1891.283033651326	51.93574229847
8	3322	1891.506519694275	51.507424962172
8	3325	1893.032410137806	52.62866661892
8	3328	1893.819865425282	52.878918944007
8	3329	1893.954634857177	52.900737262135
8	3330	1895.277441659961	50.861824433694
8	3331	1896.899339841938	50.895407680367
8	3336	1902.282941565287	55.011067585492
8	3337	1903.570590912761	55.25865651149
8	3338	1903.727268930428	54.53345112825
8	3339	1903.791381005212	51.450244146848
8	3340	1904.064831956161	45.240185608763
8	3341	1904.106841197043	43.782036552929
8	3342	1904.281447589357	43.394661733456
8	3345	1905.335425780272	42.227751035413
8	3348	1906.671346383469	41.698590858458
8	3349	1906.931503708035	41.921119321307
8	3352	1907.273786056292	41.275811701665
8	3353	1907.377608166221	39.673911340835
8	3354	1907.387339929977	38.253493387587
8	3355	1907.412450613118	37.713151462688
8	3358	1907.694795783167	37.29838256651
8	3367	1910.192460484913	35.331735347936
8	3368	1910.2898606207	35.121819667094
8	3378	1911.94186025093	34.8632849154
8	3379	1911.959753720953	32.504652338355
8	3382	1913.456723141035	33.561651345919
8	3387	1915.725032667812	35.609780724396
8	3388	1915.755958038422	34.502977646275
8	3389	1916.82305813349	32.065086603987
8	3390	1917.160883660769	30.985577215298
8	3391	1917.300696531604	30.906189391994
8	3404	1921.025382840157	33.618272588469
8	3407	1922.369218435823	31.425929826128
8	3410	1925.830259626597	34.355032293719
8	3429	1938.082280586362	44.74594362252
8	3430	1938.499277973566	41.395084115841
8	3431	1938.844216499841	37.020243304593
8	3432	1939.065354659712	33.841280721858
8	3435	1939.902675951412	33.770147650458
8	3438	1941.276223249897	34.324043484619
8	3441	1941.936638534241	34.337891441331
8	3442	1942.580036638032	34.241932138261
8	3443	1942.649254931269	34.23166051422
8	3444	1943.60236270754	35.015402511743
8	3447	1944.319381004398	34.240457006484
8	3452	1948.659709058794	38.006415069635
8	3455	1950.315804876969	39.447492903417
8	3456	1950.52497551464	39.556734153868
8	3457	1951.205452689539	40.155892592161
8	3458	1951.857357429964	38.738108072651
8	3476	1958.5134468568	43.898404969769
8	3477	1958.808505661904	40.654788261801
8	3478	1958.883536132681	39.782642657347
8	3479	1958.967462743504	38.293110982299
8	3501	1978.387826827451	56.50438986546
8	3504	1979.395889730552	53.995867292113
8	3505	1980.041207799472	53.862109846201
8	3506	1980.115203307388	51.789181990519
8	3510	1980.945646680177	44.353538833649
8	3513	1984.162073687644	44.597896946889
8	3516	1987.588190201126	47.648063836611
8	3517	1987.846119105772	46.05149486788
8	3518	1987.938383340272	44.241248321116
8	3519	1988.377277276719	42.157891438296
8	3520	1990.093127621831	43.375673797122
8	3521	1991.028334019597	42.325493761677
8	3522	1991.142788350805	39.033875218196
8	3525	1991.763163203541	39.378813802221
8	3526	1992.810957681707	40.29082639103
8	3527	1995.145988830407	42.568284140078
8	3533	1997.707153414473	41.724683479858
8	3534	1997.797387145317	41.763668812593
8	3535	1999.945885973222	42.003030982957
9	19	13.148178754204	0
9	27	19.082876542733	0
9	49	26.674426034823	0
9	80	37.265893196857	0
9	105	49.754720519705	0
9	122	64.246849546938	11.093750258467
9	135	69.249917089597	0
9	163	81.448677002582	0
9	195	97.54273969413	0
9	202	104.058373720471	5.841608312198
9	214	106.948228308782	0
9	225	117.28292084937	2.220047631948
9	262	145.805672535702	0
9	283	162.892935316236	0
9	292	170.173813266115	0.453661575013
9	297	172.900331046879	0
9	307	181.439734277982	0
9	334	192.552320041078	0
9	337	194.969482909842	2.415357320665
9	374	213.936013226295	0
9	383	219.605590583956	5.289356403521
9	414	246.356340064724	17.759135388976
9	419	249.355721281008	1.929196945979
9	470	279.193652970196	0
9	488	286.010286365553	0
9	503	297.19240448629	0
9	508	302.78413240307	2.453580591992
9	518	310.564664588401	0
9	525	316.527447716343	1.908623906961
9	576	344.767471584496	0
9	587	360.758848603378	11.973819485746
9	596	363.083385261924	0
9	601	366.766541370611	0
9	610	373.828148738036	5.224763572129
9	634	383.809105551485	0
9	651	392.71960253903	0
9	660	395.197113629095	2.086526709941
9	663	397.054010205291	2.771922857551
9	670	398.71759322814	3.105465715374
9	673	402.368288893717	2.582535373978
9	685	413.043199636498	0
9	720	425.889483242959	0
9	740	435.163635827344	0
9	755	440.566814018412	3.062394187044
9	762	442.258425601818	4.505167283754
9	771	447.872710816999	1.806779429663
9	778	451.105720759748	4.34564352165
9	789	458.618253357963	6.318659027736
9	798	460.310390992962	0
9	809	469.541981118306	0
9	820	478.018592321861	5.926866864242
9	831	485.48683063725	11.380863981796
9	836	486.866725729131	2.111556476466
9	859	497.995930567428	0
9	872	508.503398155881	0
9	882	513.719105961414	0
9	893	518.992352582587	0
9	928	530.772802523413	0
9	933	532.040311411234	0.549140998561
9	976	555.209154174462	0
9	983	565.714723462913	7.288954554522
9	1000	578.668838291938	0
9	1017	585.335641000159	0
9	1026	590.379752317204	2.658071109666
9	1068	612.301261643296	0
9	1094	625.271639597607	0
9	1109	632.539685871728	0
9	1116	638.55753184077	2.830739815073
9	1125	642.220880269737	0
9	1136	650.194830323158	0
9	1147	654.024712358415	0
9	1161	664.445663215868	0
9	1171	668.191580750969	0
9	1182	672.773750170639	3.791979901692
9	1189	687.057431849677	8.494407796558
9	1202	693.697101947601	1.04413863373
9	1215	704.753334907947	7.664313747061
9	1224	710.768039451668	0
9	1251	724.60176521655	0
9	1256	726.658690158584	0.304242070526
9	1273	741.53618340284	11.988802918559
9	1287	750.726414697706	0
9	1293	753.349709305741	0
9	1337	774.189818335267	0
9	1373	791.48690533521	0
9	1383	796.301996604801	0
9	1416	812.852028890343	0
9	1424	817.188046471667	0
9	1429	822.872439480426	4.11821137498
9	1432	828.056085001203	6.656141131829
9	1457	849.420103149185	26.377120668047
9	1466	854.592098298803	26.184509632234
9	1471	855.602166535123	2.846603268376
9	1481	863.648452384762	0
9	1499	875.463788971873	0
9	1508	876.550813976887	0.487498296467
9	1515	880.000907191881	3.424756693701
9	1547	895.046970328009	0
9	1627	941.590176883219	0
9	1642	951.289924554713	1.544548414698
9	1650	968.067213283968	0
9	1671	980.470152957102	0
9	1749	1019.925151201049	0
9	1762	1027.076111649208	0
9	1770	1030.344886160167	0
9	1779	1034.136392006488	1.923618227702
9	1784	1034.911460461228	0
9	1799	1046.011524535337	5.159984307238
9	1849	1074.891702019697	0
9	1854	1078.817292669952	2.878687359009
9	1865	1088.455712694372	11.850103879739
9	1880	1096.613383564133	16.957140565927
9	1881	1096.97339362279	16.513481905847
9	1896	1111.300520809954	22.328825023933
9	1901	1115.147948540547	26.112445457573
9	1902	1120.437050067529	8.463783297212
9	1933	1137.412414632084	0
9	1981	1165.626181522575	0
9	1986	1169.54523293439	1.530187647625
9	1995	1174.911076709393	2.569335898967
9	1998	1175.71365479379	1.781476317511
9	2011	1184.349411537628	8.43306102946
9	2035	1193.84567277848	0
9	2040	1195.497527040621	0
9	2047	1198.78073414747	1.539453619255
9	2058	1207.34301806551	0
9	2073	1210.889427762623	2.288045285685
9	2082	1216.11828483361	7.286296222983
9	2151	1237.602944753691	0
9	2157	1241.267603090223	0
9	2166	1242.077296677497	0.778736221467
9	2171	1245.230223707127	3.862271849262
9	2178	1252.605913021629	8.351219408325
9	2227	1281.554668892628	0
9	2232	1288.381650461504	4.301444668588
9	2249	1301.347106518508	0
9	2302	1330.998671648496	0
9	2318	1336.68883947645	0
9	2330	1341.921441146816	0
9	2361	1361.740614648742	0
9	2378	1372.383381202615	0
9	2390	1379.954159251468	0
9	2409	1388.958984430376	0
9	2414	1393.583113397959	3.455245512067
9	2449	1409.850221232745	0
9	2458	1412.754459000569	0
9	2464	1415.450982608301	0
9	2492	1439.355511169643	0
9	2505	1445.439746169319	2.61075466786
9	2512	1448.3687164074	1.703798926654
9	2543	1463.110176140352	0
9	2588	1487.078576236731	0
9	2595	1491.595192517458	4.305257556985
9	2628	1509.011632366327	18.964530397775
9	2629	1515.495664598477	23.231858044821
9	2630	1515.607831434007	21.138267875704
9	2647	1525.676516773588	27.472623705358
9	2652	1527.262818980187	25.145975226037
9	2663	1532.102661271178	29.984810238606
9	2664	1532.872891279099	30.655950479206
9	2665	1538.90555739001	30.46097492446
9	2684	1548.69337065246	29.701854996076
9	2685	1548.746753135762	26.940471162489
9	2690	1550.623000571778	23.241886938311
9	2691	1551.190460474696	11.924128456106
9	2692	1551.551945909792	3.009309085352
9	2702	1557.845493221427	0
9	2711	1566.445033770963	0
9	2743	1587.056813064738	0
9	2760	1595.823646792362	8.597258441523
9	2765	1599.513855365078	12.222206795625
9	2768	1603.387959145071	4.810725352382
9	2793	1615.360176417675	0
9	2831	1633.35858722787	0
9	2848	1638.866256498661	0.68861935859
9	2858	1645.717533809755	0
9	2872	1650.762778084588	0
9	2885	1657.512481913554	0
9	2890	1660.035940992929	1.644830155388
9	2929	1676.08329980475	0
9	2952	1686.637222310928	0
9	2981	1703.771199220554	15.023637933229
9	2988	1713.752279854632	24.567257014083
9	2991	1719.198714312887	17.244248310119
9	3063	1754.773092538298	0
9	3106	1778.417716152298	0
9	3154	1800.325395394629	0
9	3179	1815.98270537574	0
9	3200	1827.409476863655	11.366491121961
9	3215	1834.203164850433	16.563916257813
9	3222	1840.058269059305	22.186753697856
9	3229	1843.097812115557	22.810029485788
9	3244	1852.479085369216	17.669753275498
9	3253	1861.288100962545	17.101600649517
9	3268	1870.19500378699	15.578687656068
9	3278	1874.860725136977	0
9	3370	1910.653293989159	0
9	3393	1918.153717400103	0
9	3398	1919.899677572912	1.075231879276
9	3412	1926.179097953271	0
9	3419	1930.894237421811	3.600399429439
9	3422	1934.847093516666	6.323025746992
9	3427	1936.701957733238	3.182258493635
9	3462	1952.38434940132	0
9	3483	1959.482438556955	0
9	3486	1967.450199303036	2.953933705773
9	3495	1974.697612048071	6.321467535861
9	3508	1980.247710170889	0
9	3529	1995.444044717445	0
10	20	14.489288892617	1.341110138413
10	28	20.750062351499	1.667185808766
10	58	29.742777128841	3.068351094018
10	81	37.318801452422	0.052908255565
10	122	64.246849546938	14.492129027233
10	123	64.429890784357	11.276791495886
10	136	70.016258154414	0.766341064817
10	166	84.452794430451	3.004117427869
10	202	104.058373720471	6.515634026341
10	203	104.438323607877	6.221558199604
10	225	117.28292084937	10.334692540588
10	228	119.553197640027	4.490324422605
10	267	150.859589604907	5.053917069205
10	292	170.173813266115	7.280877949879
10	293	171.307623413209	1.587471722107
10	300	175.587460546455	2.687129499576
10	308	182.532146449659	1.092412171677
10	337	194.969482909842	2.417162868764
10	340	197.635067513669	5.080941924492
10	383	219.605590583956	5.669577357661
10	414	246.356340064724	32.040105884289
10	419	249.355721281008	20.75851660526
10	420	251.234423858378	3.807899523349
10	475	280.665746563957	1.472093593761
10	491	287.291217191043	1.28093082549
10	508	302.78413240307	5.59172791678
10	513	306.538946198859	6.208394387781
10	525	316.527447716343	5.962783127942
10	528	320.1655784403	5.546754630918
10	587	360.758848603378	15.991377018882
10	588	361.526527282725	12.741498165093
10	597	365.935130300547	2.851745038623
10	610	373.828148738036	7.061607367425
10	611	374.283576335622	5.680191169715
10	645	390.102964782931	6.293859231446
10	660	395.197113629095	2.477511090065
10	663	397.054010205291	3.943423286137
10	670	398.71759322814	4.4355058804
10	673	402.368288893717	6.756161380951
10	676	407.45296834112	7.667214821381
10	694	414.537291895504	1.494092259006
10	727	428.592455098718	2.702971855759
10	755	440.566814018412	5.403178191068
10	762	442.258425601818	4.75400577045
10	771	447.872710816999	10.119452498935
10	778	451.105720759748	5.039789372412
10	789	458.618253357963	11.858176119865
10	790	458.949963964827	6.6503696346
10	799	463.233003258262	2.9226122653
10	820	478.018592321861	8.476611203555
10	831	485.48683063725	13.395105179631
10	836	486.866725729131	12.760759073677
10	853	495.795859133192	11.040689880527
10	866	505.088983541736	7.093052974308
10	879	511.799046010076	3.295647854195
10	889	518.567437971716	4.848332010302
10	900	524.275453109547	5.28310052696
10	933	532.040311411234	1.267508887821
10	936	533.973163927614	2.481993514941
10	983	565.714723462913	10.505569288451
10	988	568.139882703234	9.714113794843
10	1001	578.827643874042	0.158805582104
10	1026	590.379752317204	5.044111317045
10	1037	594.278561439045	6.556880231507
10	1073	618.659798353168	6.358536709872
10	1103	629.311891855737	4.04025225813
10	1116	638.55753184077	6.017845969042
10	1117	638.958887486833	3.232095461136
10	1130	645.913988191756	3.693107922019
10	1137	650.330887514492	0.136057191334
10	1148	657.667535496363	3.642823137948
10	1162	664.784956542925	0.339293327057
10	1182	672.773750170639	4.58216941967
10	1189	687.057431849677	18.07566158073
10	1202	693.697101947601	15.134077894482
10	1215	704.753334907947	12.100371594076
10	1220	709.842074844459	12.753053683573
10	1227	712.118375654336	1.350336202668
10	1256	726.658690158584	2.056924942034
10	1273	741.53618340284	15.181735314782
10	1276	745.548745905424	16.001365421143
10	1290	752.983198233429	2.256783535723
10	1294	755.147846424741	1.798137119
10	1340	775.201208110947	1.01138977568
10	1376	793.210049524588	1.723144189378
10	1388	798.89283083643	2.590834231629
10	1421	814.134287579339	1.282258688996
10	1429	822.872439480426	5.684393008759
10	1432	828.056085001203	9.301856895757
10	1457	849.420103149185	28.020159279811
10	1466	854.592098298803	31.549115817665
10	1471	855.602166535123	27.194577868554
10	1472	858.757387618669	6.001824351922
10	1482	865.160494781633	1.512042396871
10	1508	876.550813976887	1.087025005014
10	1515	880.000907191881	3.937591511461
10	1542	891.088174730921	14.512024232741
10	1552	897.875566505732	2.828596177723
10	1642	951.289924554713	9.699747671494
10	1647	962.600795709697	12.855419569682
10	1657	973.109440793244	5.042227509276
10	1678	982.06781858494	1.597665627838
10	1750	1020.024705331761	0.099554130712
10	1765	1029.841593245403	2.765481596195
10	1779	1034.136392006488	3.791505846321
10	1780	1034.195859180575	1.983085401789
10	1799	1046.011524535337	11.100064074109
10	1808	1052.063342096501	11.211801868402
10	1854	1078.817292669952	3.925590650255
10	1865	1088.455712694372	12.517107383429
10	1880	1096.613383564133	20.0077747495
10	1881	1096.97339362279	17.317150624584
10	1896	1111.300520809954	30.840609093011
10	1901	1115.147948540547	26.176252754526
10	1902	1120.437050067529	31.401546984555
10	1911	1125.890950117985	13.917683347668
10	1934	1139.068802169159	1.656387537075
10	1986	1169.54523293439	3.919051411815
10	1995	1174.911076709393	6.896031422628
10	1998	1175.71365479379	3.371913983364
10	2011	1184.349411537628	10.417233061349
10	2018	1186.89165827279	10.975307764622
10	2036	1194.19373310099	0.34806032251
10	2047	1198.78073414747	3.283207106849
10	2056	1206.446985680642	9.205705152427
10	2073	1210.889427762623	3.546409697113
10	2082	1216.11828483361	7.516902356672
10	2087	1216.655573182911	7.823584572284
10	2154	1239.319319189666	1.716374435975
10	2166	1242.077296677497	0.809693587274
10	2171	1245.230223707127	3.931663251097
10	2178	1252.605913021629	11.237961163764
10	2179	1253.299310362022	9.044616748718
10	2232	1288.381650461504	6.826981568876
10	2241	1298.896878814012	14.816673021096
10	2254	1304.846749483099	3.499642964591
10	2305	1332.540477341312	1.541805692816
10	2321	1336.762270293787	0.073430817337
10	2337	1350.951892026313	9.030450879497
10	2364	1365.36900840616	3.628393757418
10	2383	1377.932550497652	5.549169295037
10	2399	1384.039034965118	4.08487571365
10	2414	1393.583113397959	4.624128967583
10	2429	1399.552428501892	9.424560616
10	2450	1410.25652278517	0.406301552425
10	2461	1413.998069098732	1.243610098163
10	2465	1419.571795427956	4.120812819655
10	2505	1445.439746169319	6.084234999676
10	2512	1448.3687164074	5.539724905941
10	2513	1448.735111786415	2.070194305669
10	2548	1465.6930464407	2.582870300348
10	2595	1491.595192517458	4.516616280727
10	2628	1509.011632366327	21.721697405854
10	2629	1515.495664598477	25.448562629925
10	2630	1515.607831434007	23.344024880351
10	2647	1525.676516773588	31.206953215285
10	2652	1527.262818980187	29.058925911957
10	2663	1532.102661271178	29.985817517028
10	2664	1532.872891279099	30.755040246527
10	2665	1538.90555739001	36.688616590117
10	2684	1548.69337065246	40.24878818691
10	2685	1548.746753135762	29.755237479378
10	2690	1550.623000571778	28.816718598505
10	2691	1551.190460474696	23.809346841229
10	2692	1551.551945909792	12.285613891202
10	2697	1556.55048091505	8.00784409061
10	2709	1566.196800273268	8.351307051841
10	2712	1569.124248728872	2.679214957909
10	2760	1595.823646792362	8.766833727624
10	2765	1599.513855365078	12.287467014239
10	2768	1603.387959145071	16.096310575618
10	2773	1609.273031426432	10.695797633743
10	2798	1619.882533972961	4.522357555286
10	2848	1638.866256498661	5.507669270791
10	2853	1644.637125105678	6.459487965607
10	2859	1646.226501194094	0.508967384339
10	2875	1654.137347068065	3.374568983477
10	2890	1660.035940992929	2.523459079375
10	2899	1664.688001855449	6.296891017908
10	2930	1678.229749973622	2.146450168872
10	2981	1703.771199220554	17.133976909626
10	2988	1713.752279854632	25.004718567307
10	2991	1719.198714312887	30.013691472338
10	2992	1719.199843293139	17.245377290371
10	3066	1756.203691553872	1.430599015574
10	3115	1783.595425549623	5.177709397325
10	3163	1807.207228404853	6.881833010224
10	3200	1827.409476863655	11.426771487915
10	3215	1834.203164850433	18.160179108739
10	3222	1840.058269059305	22.419020466685
10	3229	1843.097812115557	25.226296754108
10	3244	1852.479085369216	32.191302739447
10	3253	1861.288100962545	26.478768868827
10	3268	1870.19500378699	26.008503473962
10	3271	1870.462958262472	15.84664213155
10	3285	1878.871817848741	4.011092711764
10	3377	1911.05121774036	0.397923751201
10	3398	1919.899677572912	1.745960172809
10	3399	1920.115693348466	1.29124765483
10	3419	1930.894237421811	4.71513946854
10	3422	1934.847093516666	7.553255524294
10	3427	1936.701957733238	8.177889963564
10	3428	1937.615370730311	4.095671490708
10	3475	1957.944470494318	5.560121092998
10	3486	1967.450199303036	7.967760746081
10	3495	1974.697612048071	10.201346450808
10	3500	1977.972720596492	9.596576084282
10	3509	1980.63730233489	0.389592164001
10	3530	1997.416207445928	1.972162728483
11	3536	2000	0.48
12	3536	2000	0.1045

