file 42960 1677866570                                           
version 2
run factors_calibration_minions-250-20230303-19:02:50-27110
attr configname factors_calibration_minions
attr datetime 20230303-19:02:50
attr experiment factors_calibration_minions
attr inifile omnetpp.ini
attr iterationvars $0=20
attr iterationvarsf 20-
attr measurement $0=20
attr network Network
attr processid 27110
attr repetition 10
attr replication #10
attr resultdir results
attr runnumber 250
attr seedset 10
param *.minion.arrival_mean 20
param *.minion.service_mean 20
param *.boss.arrival_mean 20
param *.boss.service_mean 3
param *.player.recover_rate_x 100
param **.minion.arrival_distribution 0
param **.minion.service_distribution 0
param **.boss.arrival_distribution 0
param **.boss.service_distribution 0

vector 0 Network.player boss_defeated_stat:vector ETV
attr source signal_boss_defeated
vector 1 Network.player boss_jobs_queue_number_stat:vector ETV
attr source signal_boss_jobs_queue_number
vector 2 Network.player boss_response_time_stat:vector ETV
attr source signal_boss_response_time
vector 3 Network.player boss_waiting_time_stat:vector ETV
attr source signal_boss_waiting_time
vector 4 Network.player minion_waiting_time_stat:vector ETV
attr source signal_minion_waiting_time
vector 5 Network.player minion_defeated_stat:vector ETV
attr source signal_minion_defeated
vector 6 Network.player minion_jobs_queue_number_stat:vector ETV
attr source signal_minion_jobs_queue_number
vector 7 Network.player minion_response_time_stat:vector ETV
attr source signal_minion_response_time
vector 8 Network.player minion_jobs_number_stat:vector ETV
attr source signal_minion_jobs_number
vector 9 Network.player boss_jobs_number_stat:vector ETV
attr source signal_boss_jobs_number
vector 10 Network.player minion_recovered_stat:vector ETV
attr source signal_minion_recovered
vector 11 Network.player minion_throughput:vector ETV
attr source signal_minion_throughput
vector 12 Network.player boss_throughput:vector ETV
attr source signal_boss_throughput
0	1979 2874 117 741 350.548673818875 2447.908789246302 107 21 127 7918 688010
1	4853 5424 117 741 350.548673818875 2447.908789246302 212 0 2 49 69
2	10277 4134 117 741 350.548673818875 2447.908789246302 107 0.001085082003 20.160107177351 447.61363440761 3849.8154772721
3	14411 2974 117 740 350.548673818875 2446.879911890008 106 0 17.879463755969 101.0154013549 974.03141082588
4	17385 6758 118 741 351.026954621251 2447.908789246302 171 51.736900861641 336.3785608472 27449.871408591 5571510.2022622
5	24143 2237 119 729 359.494776779646 2435.473857803982 84 13 96 4578 298886
6	26380 5172 119 743 359.494776779646 2497.376409673902 197 7 36 3042 59226
7	31552 3323 119 729 359.494776779646 2435.473857803982 84 65.266895249226 339.45951807358 14268.418634643 3000294.9776324
8	34875 2986 121 743 375.064809585114 2497.376409673902 113 8 37 1953 41439
9	37861 2685 129 740 419.824288542282 2446.879911890008 105 1 3 129 187
10	40546 2375 129 740 419.824288542282 2446.879911890008 86 17 102 5117 357459
11	42921 19 744 744 2500 2500 1 0.0384 0.0384 0.0384 0.00147456
12	42940 19 744 744 2500 2500 1 0.0508 0.0508 0.0508 0.00258064

