version 2
run factors_calibration_minions-25-20230303-19:02:03-25979
attr configname factors_calibration_minions
attr datetime 20230303-19:02:03
attr experiment factors_calibration_minions
attr inifile omnetpp.ini
attr iterationvars $0=1
attr iterationvarsf 1-
attr measurement $0=1
attr network Network
attr processid 25979
attr repetition 25
attr replication #25
attr resultdir results
attr runnumber 25
attr seedset 25
param *.minion.arrival_mean 20
param *.minion.service_mean 1
param *.boss.arrival_mean 20
param *.boss.service_mean 3
param *.player.recover_rate_x 100
param **.minion.arrival_distribution 0
param **.minion.service_distribution 0
param **.boss.arrival_distribution 0
param **.boss.service_distribution 0

vector 0 Network.player minion_jobs_number_stat:vector ETV
attr source signal_minion_jobs_number
vector 1 Network.player minion_jobs_queue_number_stat:vector ETV
attr source signal_minion_jobs_queue_number
vector 2 Network.player minion_waiting_time_stat:vector ETV
attr source signal_minion_waiting_time
vector 3 Network.player minion_defeated_stat:vector ETV
attr source signal_minion_defeated
vector 4 Network.player minion_response_time_stat:vector ETV
attr source signal_minion_response_time
vector 5 Network.player boss_jobs_number_stat:vector ETV
attr source signal_boss_jobs_number
vector 6 Network.player boss_jobs_queue_number_stat:vector ETV
attr source signal_boss_jobs_queue_number
vector 7 Network.player boss_waiting_time_stat:vector ETV
attr source signal_boss_waiting_time
vector 8 Network.player boss_defeated_stat:vector ETV
attr source signal_boss_defeated
vector 9 Network.player boss_response_time_stat:vector ETV
attr source signal_boss_response_time
vector 10 Network.player minion_recovered_stat:vector ETV
attr source signal_minion_recovered
vector 11 Network.player minion_throughput:vector ETV
attr source signal_minion_throughput
vector 12 Network.player boss_throughput:vector ETV
attr source signal_boss_throughput
0	134	351.396682218056	1
0	137	355.49608161127	1
0	140	372.020341878641	1
0	143	374.314577097314	1
0	145	374.431260744471	2
0	149	379.392732907396	1
0	152	386.739455932511	1
0	168	463.648983390167	1
0	184	523.637489392534	1
0	191	557.030076543667	1
0	194	559.738551491681	1
0	197	563.511969212556	1
0	200	565.157610652256	1
0	209	599.038445500521	1
0	215	606.498978985895	1
0	223	612.905115867027	1
0	230	632.919420616036	1
0	233	644.221684502337	1
0	242	668.258447792115	1
0	260	724.536603110103	1
0	268	745.079090613294	1
0	275	779.115569395	1
0	284	829.636088185743	1
0	287	837.828922991671	1
0	290	844.930343591327	1
0	293	848.787734290392	1
0	298	865.608873501151	1
0	305	874.939691619955	1
0	310	878.875185600299	2
0	312	878.989280566054	3
0	320	894.199552378686	1
0	323	900.018001500524	1
0	329	920.826272895567	1
0	335	952.58591911307	1
0	338	955.650466781235	1
0	340	955.957917210232	2
0	344	973.374179363726	1
0	347	991.642246363633	1
0	350	1004.689643747891	1
0	353	1023.206595909169	1
0	356	1032.97545948506	1
0	359	1035.197391219313	1
0	365	1046.810373401381	1
0	370	1056.433879677833	1
0	377	1066.809601896011	1
0	379	1067.552760681199	2
0	388	1079.229794184665	1
0	398	1123.45026271651	1
0	401	1124.061988756429	1
0	412	1203.245177704085	1
0	428	1233.167836609432	1
0	432	1234.404110472962	2
0	440	1250.416904179617	1
0	455	1294.661912641011	1
0	458	1304.257284562084	1
0	464	1321.460289864894	1
0	472	1336.529522445514	1
0	482	1363.662655820891	1
0	491	1426.536584446258	1
0	494	1446.431575204382	1
0	497	1450.298933478361	1
0	503	1467.73686142121	1
0	506	1470.254994133499	1
0	508	1470.668012120727	2
0	521	1510.415569407433	1
0	524	1515.130689086684	1
0	529	1516.687041902461	1
0	533	1532.422352313135	1
0	536	1567.292582634991	1
0	542	1596.609307757831	1
0	550	1632.783165773724	1
0	554	1638.555355330334	1
0	557	1640.123126619158	1
0	560	1646.857651403946	1
0	562	1647.086976824932	2
0	578	1685.351298613925	1
0	581	1686.343940843558	1
0	584	1760.126723915663	1
0	590	1768.962752141303	1
0	602	1812.193716983857	1
0	608	1834.107650337334	1
0	611	1843.018018587985	1
0	614	1843.247117971693	1
0	617	1861.515961257858	1
0	622	1863.799900544691	1
0	626	1872.563662982874	1
0	632	1918.819018351643	1
0	638	1927.135092097203	1
0	644	1958.818173604542	1
0	647	1962.740441842936	1
0	653	1996.109447682929	1
0	656	2001.537597643852	1
0	659	2021.986076224084	1
0	661	2022.904070996881	2
0	674	2042.508900186943	1
0	680	2056.590289855119	1
0	683	2059.735241101024	1
0	691	2069.175432372845	1
0	695	2086.064878180963	1
0	698	2104.034160062187	1
0	700	2105.380741577801	2
0	707	2125.262645468682	1
0	713	2132.783079723615	1
0	716	2135.860101582309	1
0	719	2140.754232986644	1
0	734	2195.068211024388	1
0	740	2210.03931097776	1
0	749	2268.555929125169	1
0	755	2279.697103707062	1
0	760	2298.13808179505	1
0	773	2379.198791175981	1
0	778	2389.011614806373	1
0	781	2392.038574983528	2
0	785	2401.064191084566	1
0	791	2428.6634089363	1
0	797	2433.235207855001	1
0	805	2464.338028306223	1
0	812	2470.818451470606	1
0	818	2497.034518314533	1
1	134	351.396682218056	0
1	135	353.143387686162	0
1	137	355.49608161127	0
1	138	355.696843029815	0
1	140	372.020341878641	0
1	141	372.046169477476	0
1	143	374.314577097314	0
1	145	374.431260744471	1
1	146	375.854497160563	1
1	147	376.746659580506	0
1	149	379.392732907396	0
1	150	382.759042612293	0
1	152	386.739455932511	0
1	153	387.503569087279	0
1	168	463.648983390167	0
1	171	467.389099352989	0
1	184	523.637489392534	0
1	186	526.48625352513	0
1	191	557.030076543667	0
1	192	557.117336788907	0
1	194	559.738551491681	0
1	195	561.228948107069	0
1	197	563.511969212556	0
1	198	564.437170570906	0
1	200	565.157610652256	0
1	201	568.970327215261	0
1	209	599.038445500521	0
1	210	600.344055237769	0
1	215	606.498978985895	0
1	216	607.444697265256	0
1	223	612.905115867027	0
1	228	624.409851119328	0
1	230	632.919420616036	0
1	231	635.843469950464	0
1	233	644.221684502337	0
1	234	645.377840086599	0
1	242	668.258447792115	0
1	243	668.825661326846	0
1	260	724.536603110103	0
1	261	725.266139356103	0
1	268	745.079090613294	0
1	270	755.999953246695	0
1	275	779.115569395	0
1	276	779.165268733069	0
1	284	829.636088185743	0
1	285	830.245818288144	0
1	287	837.828922991671	0
1	288	837.977271313998	0
1	290	844.930343591327	0
1	291	846.68294856525	0
1	293	848.787734290392	0
1	294	848.994718397333	0
1	298	865.608873501151	0
1	303	870.823622552722	0
1	305	874.939691619955	0
1	310	878.875185600299	1
1	312	878.989280566054	2
1	313	882.199322329378	2
1	314	883.122213516117	1
1	315	883.857569896053	0
1	320	894.199552378686	0
1	321	895.09426509887	0
1	323	900.018001500524	0
1	324	900.882624162669	0
1	329	920.826272895567	0
1	330	921.409106413681	0
1	335	952.58591911307	0
1	336	953.913261992406	0
1	338	955.650466781235	0
1	340	955.957917210232	1
1	341	956.327772206775	1
1	342	957.108574836646	0
1	344	973.374179363726	0
1	345	974.689119295661	0
1	347	991.642246363633	0
1	348	994.085860062092	0
1	350	1004.689643747891	0
1	351	1006.440406918941	0
1	353	1023.206595909169	0
1	354	1024.856440036522	0
1	356	1032.97545948506	0
1	357	1033.049122382901	0
1	359	1035.197391219313	0
1	360	1035.713225756227	0
1	365	1046.810373401381	0
1	366	1047.06481260225	0
1	370	1056.433879677833	0
1	372	1058.870438615336	0
1	377	1066.809601896011	0
1	379	1067.552760681199	1
1	380	1067.948096803819	1
1	381	1071.003084746051	0
1	388	1079.229794184665	0
1	390	1088.170324436148	0
1	398	1123.45026271651	0
1	399	1123.871295741966	0
1	401	1124.061988756429	0
1	402	1125.122711239837	0
1	412	1203.245177704085	0
1	420	1209.669485765849	0
1	428	1233.167836609432	0
1	432	1234.404110472962	1
1	434	1236.450236597614	1
1	435	1238.223828386797	0
1	440	1250.416904179617	0
1	441	1250.568146248986	0
1	455	1294.661912641011	0
1	456	1295.434452559086	0
1	458	1304.257284562084	0
1	459	1304.272595644066	0
1	464	1321.460289864894	0
1	468	1326.67166159782	0
1	472	1336.529522445514	0
1	474	1337.75481721412	0
1	482	1363.662655820891	0
1	483	1363.764850767872	0
1	491	1426.536584446258	0
1	492	1428.132407310167	0
1	494	1446.431575204382	0
1	495	1446.54010461605	0
1	497	1450.298933478361	0
1	498	1452.283292811992	0
1	503	1467.73686142121	0
1	504	1468.945871220614	0
1	506	1470.254994133499	0
1	508	1470.668012120727	1
1	509	1470.772035568709	1
1	510	1472.98368245336	0
1	521	1510.415569407433	0
1	522	1512.411813163339	0
1	524	1515.130689086684	0
1	525	1515.30451915972	0
1	529	1516.687041902461	0
1	531	1519.146078181339	0
1	533	1532.422352313135	0
1	534	1532.744725960565	0
1	536	1567.292582634991	0
1	537	1569.374003076045	0
1	542	1596.609307757831	0
1	543	1597.725549133562	0
1	550	1632.783165773724	0
1	552	1635.18204197027	0
1	554	1638.555355330334	0
1	555	1638.734844656013	0
1	557	1640.123126619158	0
1	558	1640.132459515041	0
1	560	1646.857651403946	0
1	562	1647.086976824932	1
1	563	1648.066205135349	1
1	564	1648.646826092207	0
1	578	1685.351298613925	0
1	579	1686.020017067754	0
1	581	1686.343940843558	0
1	582	1687.304256552381	0
1	584	1760.126723915663	0
1	585	1761.268278471734	0
1	590	1768.962752141303	0
1	591	1769.74964223113	0
1	602	1812.193716983857	0
1	603	1812.93091677276	0
1	608	1834.107650337334	0
1	609	1834.646333555772	0
1	611	1843.018018587985	0
1	612	1843.062385079862	0
1	614	1843.247117971693	0
1	615	1844.555167131933	0
1	617	1861.515961257858	0
1	618	1861.769482328751	0
1	622	1863.799900544691	0
1	624	1866.747630135014	0
1	626	1872.563662982874	0
1	627	1873.419811766961	0
1	632	1918.819018351643	0
1	636	1923.994799963337	0
1	638	1927.135092097203	0
1	639	1927.263418384298	0
1	644	1958.818173604542	0
1	645	1959.08868314652	0
1	647	1962.740441842936	0
1	648	1963.433822489544	0
1	653	1996.109447682929	0
1	654	1996.17256718607	0
1	656	2001.537597643852	0
1	657	2001.686108753865	0
1	659	2021.986076224084	0
1	661	2022.904070996881	1
1	662	2023.170148163259	1
1	663	2023.224402049355	0
1	674	2042.508900186943	0
1	675	2043.45955992008	0
1	680	2056.590289855119	0
1	681	2056.78664168484	0
1	683	2059.735241101024	0
1	684	2060.423668007094	0
1	691	2069.175432372845	0
1	693	2069.885324586178	0
1	695	2086.064878180963	0
1	696	2086.86615819455	0
1	698	2104.034160062187	0
1	700	2105.380741577801	1
1	701	2106.134517374487	1
1	702	2107.924995208564	0
1	707	2125.262645468682	0
1	711	2131.160728508256	0
1	713	2132.783079723615	0
1	714	2133.874592347062	0
1	716	2135.860101582309	0
1	717	2136.510510048845	0
1	719	2140.754232986644	0
1	720	2141.089880668827	0
1	734	2195.068211024388	0
1	735	2195.686472167058	0
1	740	2210.03931097776	0
1	741	2210.652796329653	0
1	749	2268.555929125169	0
1	750	2269.570078116822	0
1	755	2279.697103707062	0
1	756	2281.425726067388	0
1	760	2298.13808179505	0
1	765	2302.6736280487	0
1	773	2379.198791175981	0
1	774	2380.679300942554	0
1	778	2389.011614806373	0
1	781	2392.038574983528	1
1	782	2392.085477455509	1
1	783	2392.796361013527	0
1	785	2401.064191084566	0
1	786	2401.116643991356	0
1	791	2428.6634089363	0
1	792	2429.670656275344	0
1	797	2433.235207855001	0
1	798	2434.250376408885	0
1	805	2464.338028306223	0
1	807	2465.768759898854	0
1	812	2470.818451470606	0
1	813	2472.491180093611	0
1	818	2497.034518314533	0
1	819	2499.969404956512	0
2	134	351.396682218056	0
2	137	355.49608161127	0
2	140	372.020341878641	0
2	143	374.314577097314	0
2	146	375.854497160563	1.423236416092
2	149	379.392732907396	0
2	152	386.739455932511	0
2	170	467.124673200784	3.475689810617
2	185	525.615754301944	1.97826490941
2	191	557.030076543667	0
2	194	559.738551491681	0
2	197	563.511969212556	0
2	200	565.157610652256	0
2	209	599.038445500521	0
2	215	606.498978985895	0
2	227	624.086557304787	11.18144143776
2	230	632.919420616036	0
2	233	644.221684502337	0
2	242	668.258447792115	0
2	260	724.536603110103	0
2	269	754.430570660423	9.351480047129
2	275	779.115569395	0
2	284	829.636088185743	0
2	287	837.828922991671	0
2	290	844.930343591327	0
2	293	848.787734290392	0
2	302	870.665517888841	5.05664438769
2	305	874.939691619955	0
2	308	877.522873633304	0.985019226531
2	313	882.199322329378	3.324136729079
2	314	883.122213516117	4.132932950063
2	320	894.199552378686	0
2	323	900.018001500524	0
2	329	920.826272895567	0
2	335	952.58591911307	0
2	338	955.650466781235	0
2	341	956.327772206775	0.369854996543
2	344	973.374179363726	0
2	347	991.642246363633	0
2	350	1004.689643747891	0
2	353	1023.206595909169	0
2	356	1032.97545948506	0
2	359	1035.197391219313	0
2	365	1046.810373401381	0
2	371	1058.428479099071	1.994599421238
2	377	1066.809601896011	0
2	380	1067.948096803819	0.39533612262
2	389	1086.923452543244	7.693658358579
2	398	1123.45026271651	0
2	401	1124.061988756429	0
2	413	1204.206251580493	0.961073876408
2	416	1207.60293972273	2.38825606889
2	419	1209.621494375622	0.547176127547
2	428	1233.167836609432	0
2	433	1235.258046356076	1.010719505111
2	434	1236.450236597614	2.046126124652
2	440	1250.416904179617	0
2	455	1294.661912641011	0
2	458	1304.257284562084	0
2	464	1321.460289864894	0
2	467	1326.140773159166	2.404270597053
2	473	1337.346009098622	0.816486653108
2	482	1363.662655820891	0
2	491	1426.536584446258	0
2	494	1446.431575204382	0
2	497	1450.298933478361	0
2	503	1467.73686142121	0
2	506	1470.254994133499	0
2	509	1470.772035568709	0.104023447982
2	521	1510.415569407433	0
2	524	1515.130689086684	0
2	530	1519.078277476241	2.39123557378
2	533	1532.422352313135	0
2	536	1567.292582634991	0
2	542	1596.609307757831	0
2	551	1634.946596719037	2.163430945313
2	554	1638.555355330334	0
2	557	1640.123126619158	0
2	560	1646.857651403946	0
2	563	1648.066205135349	0.979228310417
2	578	1685.351298613925	0
2	581	1686.343940843558	0
2	584	1760.126723915663	0
2	590	1768.962752141303	0
2	602	1812.193716983857	0
2	608	1834.107650337334	0
2	611	1843.018018587985	0
2	614	1843.247117971693	0
2	617	1861.515961257858	0
2	623	1866.599046266832	2.799145722141
2	626	1872.563662982874	0
2	632	1918.819018351643	0
2	635	1922.170122707911	2.387530463694
2	638	1927.135092097203	0
2	644	1958.818173604542	0
2	647	1962.740441842936	0
2	653	1996.109447682929	0
2	656	2001.537597643852	0
2	659	2021.986076224084	0
2	662	2023.170148163259	0.266077166378
2	674	2042.508900186943	0
2	680	2056.590289855119	0
2	683	2059.735241101024	0
2	692	2069.301268324076	0.125835951231
2	695	2086.064878180963	0
2	698	2104.034160062187	0
2	701	2106.134517374487	0.753775796686
2	707	2125.262645468682	0
2	710	2128.287466370479	2.457772658727
2	713	2132.783079723615	0
2	716	2135.860101582309	0
2	719	2140.754232986644	0
2	734	2195.068211024388	0
2	740	2210.03931097776	0
2	749	2268.555929125169	0
2	755	2279.697103707062	0
2	764	2302.281166038289	4.143084243239
2	773	2379.198791175981	0
2	779	2391.960392473448	2.948777667075
2	782	2392.085477455509	0.046902471981
2	785	2401.064191084566	0
2	791	2428.6634089363	0
2	797	2433.235207855001	0
2	806	2464.799202030138	0.461173723915
2	812	2470.818451470606	0
2	818	2497.034518314533	0
3	135	353.143387686162	24
3	138	355.696843029815	25
3	141	372.046169477476	26
3	146	375.854497160563	27
3	147	376.746659580506	28
3	150	382.759042612293	29
3	153	387.503569087279	30
3	171	467.389099352989	31
3	186	526.48625352513	32
3	192	557.117336788907	33
3	195	561.228948107069	34
3	198	564.437170570906	35
3	201	568.970327215261	36
3	210	600.344055237769	37
3	216	607.444697265256	38
3	228	624.409851119328	39
3	231	635.843469950464	40
3	234	645.377840086599	41
3	243	668.825661326846	42
3	261	725.266139356103	43
3	270	755.999953246695	44
3	276	779.165268733069	45
3	285	830.245818288144	46
3	288	837.977271313998	47
3	291	846.68294856525	48
3	294	848.994718397333	49
3	303	870.823622552722	50
3	313	882.199322329378	51
3	314	883.122213516117	52
3	315	883.857569896053	53
3	321	895.09426509887	54
3	324	900.882624162669	55
3	330	921.409106413681	56
3	336	953.913261992406	57
3	341	956.327772206775	58
3	342	957.108574836646	59
3	345	974.689119295661	60
3	348	994.085860062092	61
3	351	1006.440406918941	62
3	354	1024.856440036522	63
3	357	1033.049122382901	64
3	360	1035.713225756227	65
3	366	1047.06481260225	66
3	372	1058.870438615336	67
3	380	1067.948096803819	68
3	381	1071.003084746051	69
3	390	1088.170324436148	70
3	399	1123.871295741966	71
3	402	1125.122711239837	72
3	420	1209.669485765849	73
3	434	1236.450236597614	74
3	435	1238.223828386797	75
3	441	1250.568146248986	76
3	456	1295.434452559086	77
3	459	1304.272595644066	78
3	468	1326.67166159782	79
3	474	1337.75481721412	80
3	483	1363.764850767872	81
3	492	1428.132407310167	82
3	495	1446.54010461605	83
3	498	1452.283292811992	84
3	504	1468.945871220614	85
3	509	1470.772035568709	86
3	510	1472.98368245336	87
3	522	1512.411813163339	88
3	525	1515.30451915972	89
3	531	1519.146078181339	90
3	534	1532.744725960565	91
3	537	1569.374003076045	92
3	543	1597.725549133562	93
3	552	1635.18204197027	94
3	555	1638.734844656013	95
3	558	1640.132459515041	96
3	563	1648.066205135349	97
3	564	1648.646826092207	98
3	579	1686.020017067754	99
3	582	1687.304256552381	100
3	585	1761.268278471734	101
3	591	1769.74964223113	102
3	603	1812.93091677276	103
3	609	1834.646333555772	104
3	612	1843.062385079862	105
3	615	1844.555167131933	106
3	618	1861.769482328751	107
3	624	1866.747630135014	108
3	627	1873.419811766961	109
3	636	1923.994799963337	110
3	639	1927.263418384298	111
3	645	1959.08868314652	112
3	648	1963.433822489544	113
3	654	1996.17256718607	114
3	657	2001.686108753865	115
3	662	2023.170148163259	116
3	663	2023.224402049355	117
3	675	2043.45955992008	118
3	681	2056.78664168484	119
3	684	2060.423668007094	120
3	693	2069.885324586178	121
3	696	2086.86615819455	122
3	701	2106.134517374487	123
3	702	2107.924995208564	124
3	711	2131.160728508256	125
3	714	2133.874592347062	126
3	717	2136.510510048845	127
3	720	2141.089880668827	128
3	735	2195.686472167058	129
3	741	2210.652796329653	130
3	750	2269.570078116822	131
3	756	2281.425726067388	132
3	765	2302.6736280487	133
3	774	2380.679300942554	134
3	782	2392.085477455509	135
3	783	2392.796361013527	136
3	786	2401.116643991356	137
3	792	2429.670656275344	138
3	798	2434.250376408885	139
3	807	2465.768759898854	140
3	813	2472.491180093611	141
3	819	2499.969404956512	142
4	135	353.143387686162	1.746705468106
4	138	355.696843029815	0.200761418545
4	141	372.046169477476	0.025827598835
4	146	375.854497160563	1.539920063249
4	147	376.746659580506	2.315398836035
4	150	382.759042612293	3.366309704897
4	153	387.503569087279	0.764113154768
4	171	467.389099352989	3.740115962822
4	186	526.48625352513	2.848764132596
4	192	557.117336788907	0.08726024524
4	195	561.228948107069	1.490396615388
4	198	564.437170570906	0.92520135835
4	201	568.970327215261	3.812716563005
4	210	600.344055237769	1.305609737248
4	216	607.444697265256	0.945718279361
4	228	624.409851119328	11.504735252301
4	231	635.843469950464	2.924049334428
4	234	645.377840086599	1.156155584262
4	243	668.825661326846	0.567213534731
4	261	725.266139356103	0.729536246
4	270	755.999953246695	10.920862633401
4	276	779.165268733069	0.049699338069
4	285	830.245818288144	0.609730102401
4	288	837.977271313998	0.148348322327
4	291	846.68294856525	1.752604973923
4	294	848.994718397333	0.206984106941
4	303	870.823622552722	5.214749051571
4	313	882.199322329378	5.661467922605
4	314	883.122213516117	4.247027915818
4	315	883.857569896053	4.868289329999
4	321	895.09426509887	0.894712720184
4	324	900.882624162669	0.864622662145
4	330	921.409106413681	0.582833518114
4	336	953.913261992406	1.327342879336
4	341	956.327772206775	0.67730542554
4	342	957.108574836646	1.150657626414
4	345	974.689119295661	1.314939931935
4	348	994.085860062092	2.443613698459
4	351	1006.440406918941	1.75076317105
4	354	1024.856440036522	1.649844127353
4	357	1033.049122382901	0.073662897841
4	360	1035.713225756227	0.515834536914
4	366	1047.06481260225	0.254439200869
4	372	1058.870438615336	2.436558937503
4	380	1067.948096803819	1.138494907808
4	381	1071.003084746051	3.450324064852
4	390	1088.170324436148	8.940530251483
4	399	1123.871295741966	0.421033025456
4	402	1125.122711239837	1.060722483408
4	420	1209.669485765849	0.595167517774
4	434	1236.450236597614	2.202909746649
4	435	1238.223828386797	3.819717913835
4	441	1250.568146248986	0.151242069369
4	456	1295.434452559086	0.772539918075
4	459	1304.272595644066	0.015311081982
4	468	1326.67166159782	2.935159035707
4	474	1337.75481721412	1.225294768606
4	483	1363.764850767872	0.102194946981
4	492	1428.132407310167	1.595822863909
4	495	1446.54010461605	0.108529411668
4	498	1452.283292811992	1.984359333631
4	504	1468.945871220614	1.209009799404
4	509	1470.772035568709	0.51704143521
4	510	1472.98368245336	2.315670332633
4	522	1512.411813163339	1.996243755906
4	525	1515.30451915972	0.173830073036
4	531	1519.146078181339	2.459036278878
4	534	1532.744725960565	0.32237364743
4	537	1569.374003076045	2.081420441054
4	543	1597.725549133562	1.116241375731
4	552	1635.18204197027	2.398876196546
4	555	1638.734844656013	0.179489325679
4	558	1640.132459515041	0.009332895883
4	563	1648.066205135349	1.208553731403
4	564	1648.646826092207	1.559849267275
4	579	1686.020017067754	0.668718453829
4	582	1687.304256552381	0.960315708823
4	585	1761.268278471734	1.141554556071
4	591	1769.74964223113	0.786890089827
4	603	1812.93091677276	0.737199788903
4	609	1834.646333555772	0.538683218438
4	612	1843.062385079862	0.044366491877
4	615	1844.555167131933	1.30804916024
4	618	1861.769482328751	0.253521070893
4	624	1866.747630135014	2.947729590323
4	627	1873.419811766961	0.856148784087
4	636	1923.994799963337	4.21220771912
4	639	1927.263418384298	0.128326287095
4	645	1959.08868314652	0.270509541978
4	648	1963.433822489544	0.693380646608
4	654	1996.17256718607	0.063119503141
4	657	2001.686108753865	0.148511110013
4	662	2023.170148163259	1.184071939175
4	663	2023.224402049355	0.320331052474
4	675	2043.45955992008	0.950659733137
4	681	2056.78664168484	0.196351829721
4	684	2060.423668007094	0.68842690607
4	693	2069.885324586178	0.709892213333
4	696	2086.86615819455	0.801280013587
4	701	2106.134517374487	2.1003573123
4	702	2107.924995208564	2.544253630763
4	711	2131.160728508256	5.331034796504
4	714	2133.874592347062	1.091512623447
4	717	2136.510510048845	0.650408466536
4	720	2141.089880668827	0.335647682183
4	735	2195.686472167058	0.61826114267
4	741	2210.652796329653	0.613485351893
4	750	2269.570078116822	1.014148991653
4	756	2281.425726067388	1.728622360326
4	765	2302.6736280487	4.53554625365
4	774	2380.679300942554	1.480509766573
4	782	2392.085477455509	3.073862649136
4	783	2392.796361013527	0.757786029999
4	786	2401.116643991356	0.05245290679
4	792	2429.670656275344	1.007247339044
4	798	2434.250376408885	1.015168553884
4	807	2465.768759898854	1.430731592631
4	813	2472.491180093611	1.672728623005
4	819	2499.969404956512	2.934886641979
5	155	407.023051346512	1
5	158	451.986862219571	1
5	160	452.241254781419	2
5	162	456.269153484022	3
5	165	462.788085686888	3
5	173	471.750175842528	1
5	176	485.838955213216	1
5	179	519.115936014759	1
5	181	522.251961692532	2
5	188	530.364669045925	1
5	203	572.603760894772	1
5	206	587.239462929909	1
5	212	603.134950270608	1
5	218	609.200889985245	1
5	220	610.173953034799	2
5	225	612.980541173579	2
5	236	652.09946073414	1
5	239	654.711139710773	1
5	245	686.391080063499	1
5	248	702.435029905981	1
5	251	711.955453553369	1
5	253	712.551934658254	2
5	257	721.347548185523	1
5	263	739.812602447366	1
5	266	744.908658692014	1
5	272	772.705257103947	1
5	278	806.13012311482	1
5	281	811.858998937252	1
5	296	863.28509472209	1
5	300	867.68999344566	2
5	307	876.537854406773	1
5	317	893.602110190585	1
5	326	901.844889125823	1
5	332	948.259548206261	1
5	362	1041.233624618206	1
5	368	1055.755977745646	1
5	374	1065.018720876321	1
5	383	1075.275228128681	1
5	386	1078.450599689527	1
5	392	1093.025662129838	1
5	395	1106.189148516697	1
5	404	1161.606097471778	1
5	407	1163.578442419488	1
5	410	1201.575345488697	1
5	415	1205.21468365384	1
5	418	1209.074318248075	1
5	422	1216.39044955247	1
5	425	1231.062298958818	1
5	430	1234.247326850965	1
5	437	1248.342184019664	1
5	443	1253.386172667756	1
5	446	1261.957583257431	1
5	449	1277.467176934737	1
5	451	1278.936722892472	2
5	461	1306.576914852068	1
5	466	1323.736502562113	1
5	470	1334.919738381796	1
5	476	1345.193422541783	1
5	479	1347.404884195096	1
5	485	1395.880752839439	1
5	488	1423.878087902705	1
5	500	1456.975740307744	1
5	512	1475.209722097707	1
5	514	1478.042304220319	2
5	518	1491.383258494281	1
5	527	1516.479068035088	1
5	539	1590.50042477963	1
5	545	1599.013666144167	1
5	548	1631.434037847915	1
5	566	1650.493728198422	1
5	569	1658.593476369919	1
5	572	1665.372692648625	1
5	575	1681.278513467016	1
5	587	1766.04703695457	1
5	593	1773.520726651988	1
5	595	1779.875668708269	2
5	598	1781.162383615031	2
5	605	1815.390857124158	1
5	620	1862.080332632237	1
5	629	1880.381953975635	1
5	634	1919.782592244217	1
5	641	1945.274415883366	1
5	650	1965.142792458315	1
5	665	2029.457987501145	1
5	668	2034.339112489427	1
5	671	2036.288220455867	1
5	677	2052.514086448142	1
5	686	2064.672210610458	1
5	689	2066.987813455407	1
5	704	2109.822365075834	1
5	709	2125.829693711752	1
5	722	2149.756655770248	1
5	725	2167.166571253802	1
5	728	2174.916574713006	1
5	731	2192.895363616005	1
5	737	2201.892852908397	1
5	743	2232.882083632135	1
5	746	2259.340022759345	1
5	752	2277.162737970621	1
5	758	2296.648678655655	1
5	762	2298.575357641728	2
5	767	2303.500581520958	1
5	770	2307.262137981784	1
5	776	2388.40867807511	1
5	788	2422.686534544323	1
5	794	2432.913250480392	1
5	800	2438.546595932053	1
5	803	2463.754640204455	1
5	809	2467.837102292445	1
5	815	2475.119593842137	1
6	155	407.023051346512	0
6	156	408.316800267445	0
6	158	451.986862219571	0
6	160	452.241254781419	1
6	162	456.269153484022	2
6	163	460.85001889682	2
6	165	462.788085686888	2
6	166	463.479584158493	2
6	169	466.874953933913	1
6	170	467.124673200784	0
6	173	471.750175842528	0
6	174	474.567127968479	0
6	176	485.838955213216	0
6	177	492.27667562551	0
6	179	519.115936014759	0
6	181	522.251961692532	1
6	182	522.463486355393	1
6	185	525.615754301944	0
6	188	530.364669045925	0
6	189	530.388712956749	0
6	203	572.603760894772	0
6	204	580.421342074772	0
6	206	587.239462929909	0
6	207	588.470413118835	0
6	212	603.134950270608	0
6	213	604.13951630164	0
6	218	609.200889985245	0
6	220	610.173953034799	1
6	221	610.526992495348	1
6	225	612.980541173579	1
6	226	622.089611112946	1
6	227	624.086557304787	0
6	236	652.09946073414	0
6	237	652.727304368247	0
6	239	654.711139710773	0
6	240	661.029295071681	0
6	245	686.391080063499	0
6	246	690.647407090245	0
6	248	702.435029905981	0
6	249	706.653403240764	0
6	251	711.955453553369	0
6	253	712.551934658254	1
6	254	712.862924222072	1
6	255	715.849453261489	0
6	257	721.347548185523	0
6	258	722.957457736899	0
6	263	739.812602447366	0
6	264	741.229743466554	0
6	266	744.908658692014	0
6	269	754.430570660423	0
6	272	772.705257103947	0
6	273	775.381234097515	0
6	278	806.13012311482	0
6	279	807.502059825322	0
6	281	811.858998937252	0
6	282	815.869554931228	0
6	296	863.28509472209	0
6	300	867.68999344566	1
6	301	867.945408940844	1
6	302	870.665517888841	0
6	307	876.537854406773	0
6	308	877.522873633304	0
6	317	893.602110190585	0
6	318	893.893228001498	0
6	326	901.844889125823	0
6	327	902.335158216169	0
6	332	948.259548206261	0
6	333	949.803401431815	0
6	362	1041.233624618206	0
6	363	1041.360158449878	0
6	368	1055.755977745646	0
6	371	1058.428479099071	0
6	374	1065.018720876321	0
6	375	1065.736694129453	0
6	383	1075.275228128681	0
6	384	1075.643130955821	0
6	386	1078.450599689527	0
6	389	1086.923452543244	0
6	392	1093.025662129838	0
6	393	1094.499683514815	0
6	395	1106.189148516697	0
6	396	1106.98831733533	0
6	404	1161.606097471778	0
6	405	1161.790962458416	0
6	407	1163.578442419488	0
6	408	1163.586488448923	0
6	410	1201.575345488697	0
6	413	1204.206251580493	0
6	415	1205.21468365384	0
6	416	1207.60293972273	0
6	418	1209.074318248075	0
6	419	1209.621494375622	0
6	422	1216.39044955247	0
6	423	1216.494130097218	0
6	425	1231.062298958818	0
6	426	1232.345870018917	0
6	430	1234.247326850965	0
6	433	1235.258046356076	0
6	437	1248.342184019664	0
6	438	1249.986204710217	0
6	443	1253.386172667756	0
6	444	1253.875910093659	0
6	446	1261.957583257431	0
6	447	1262.818525688089	0
6	449	1277.467176934737	0
6	451	1278.936722892472	1
6	452	1288.390089875875	1
6	453	1292.798502213851	0
6	461	1306.576914852068	0
6	462	1310.912463174779	0
6	466	1323.736502562113	0
6	467	1326.140773159166	0
6	470	1334.919738381796	0
6	473	1337.346009098622	0
6	476	1345.193422541783	0
6	477	1345.273354154383	0
6	479	1347.404884195096	0
6	480	1356.69790437847	0
6	485	1395.880752839439	0
6	486	1400.30253591722	0
6	488	1423.878087902705	0
6	489	1425.054177081621	0
6	500	1456.975740307744	0
6	501	1457.269298325368	0
6	512	1475.209722097707	0
6	514	1478.042304220319	1
6	515	1481.687132443397	1
6	516	1485.32714398228	0
6	518	1491.383258494281	0
6	519	1494.678071032617	0
6	527	1516.479068035088	0
6	530	1519.078277476241	0
6	539	1590.50042477963	0
6	540	1591.707882478735	0
6	545	1599.013666144167	0
6	546	1601.756677620262	0
6	548	1631.434037847915	0
6	551	1634.946596719037	0
6	566	1650.493728198422	0
6	567	1656.334129154979	0
6	569	1658.593476369919	0
6	570	1665.159576643821	0
6	572	1665.372692648625	0
6	573	1667.776023544117	0
6	575	1681.278513467016	0
6	576	1685.157413244902	0
6	587	1766.04703695457	0
6	588	1766.304835018657	0
6	593	1773.520726651988	0
6	595	1779.875668708269	1
6	596	1780.642379399084	1
6	598	1781.162383615031	1
6	599	1784.609475203094	1
6	600	1786.126198967122	0
6	605	1815.390857124158	0
6	606	1817.680649597347	0
6	620	1862.080332632237	0
6	623	1866.599046266832	0
6	629	1880.381953975635	0
6	630	1881.638011081959	0
6	634	1919.782592244217	0
6	635	1922.170122707911	0
6	641	1945.274415883366	0
6	642	1947.188184060575	0
6	650	1965.142792458315	0
6	651	1970.751186408777	0
6	665	2029.457987501145	0
6	666	2030.209424134608	0
6	668	2034.339112489427	0
6	669	2034.577668528752	0
6	671	2036.288220455867	0
6	672	2036.870706231757	0
6	677	2052.514086448142	0
6	678	2052.632012024447	0
6	686	2064.672210610458	0
6	687	2066.602631573825	0
6	689	2066.987813455407	0
6	692	2069.301268324076	0
6	704	2109.822365075834	0
6	705	2111.167031569229	0
6	709	2125.829693711752	0
6	710	2128.287466370479	0
6	722	2149.756655770248	0
6	723	2154.975975219037	0
6	725	2167.166571253802	0
6	726	2167.905113165814	0
6	728	2174.916574713006	0
6	729	2175.390047450157	0
6	731	2192.895363616005	0
6	732	2193.543003031359	0
6	737	2201.892852908397	0
6	738	2207.030076063357	0
6	743	2232.882083632135	0
6	744	2242.886068934837	0
6	746	2259.340022759345	0
6	747	2259.949563833658	0
6	752	2277.162737970621	0
6	753	2278.837753615684	0
6	758	2296.648678655655	0
6	762	2298.575357641728	1
6	763	2299.132235893825	1
6	764	2302.281166038289	0
6	767	2303.500581520958	0
6	768	2303.898050433553	0
6	770	2307.262137981784	0
6	771	2307.76953871473	0
6	776	2388.40867807511	0
6	779	2391.960392473448	0
6	788	2422.686534544323	0
6	789	2425.673185029097	0
6	794	2432.913250480392	0
6	795	2433.029366274231	0
6	800	2438.546595932053	0
6	801	2440.233541729547	0
6	803	2463.754640204455	0
6	806	2464.799202030138	0
6	809	2467.837102292445	0
6	810	2469.779977690867	0
6	815	2475.119593842137	0
6	816	2481.933362073687	0
7	155	407.023051346512	0
7	158	451.986862219571	0
7	163	460.85001889682	8.608764115401
7	166	463.479584158493	7.210430674471
7	169	466.874953933913	4.086868247025
7	173	471.750175842528	0
7	176	485.838955213216	0
7	179	519.115936014759	0
7	182	522.463486355393	0.211524662861
7	188	530.364669045925	0
7	203	572.603760894772	0
7	206	587.239462929909	0
7	212	603.134950270608	0
7	218	609.200889985245	0
7	221	610.526992495348	0.353039460549
7	226	622.089611112946	9.109069939367
7	236	652.09946073414	0
7	239	654.711139710773	0
7	245	686.391080063499	0
7	248	702.435029905981	0
7	251	711.955453553369	0
7	254	712.862924222072	0.310989563818
7	257	721.347548185523	0
7	263	739.812602447366	0
7	266	744.908658692014	0
7	272	772.705257103947	0
7	278	806.13012311482	0
7	281	811.858998937252	0
7	296	863.28509472209	0
7	301	867.945408940844	0.255415495184
7	307	876.537854406773	0
7	317	893.602110190585	0
7	326	901.844889125823	0
7	332	948.259548206261	0
7	362	1041.233624618206	0
7	368	1055.755977745646	0
7	374	1065.018720876321	0
7	383	1075.275228128681	0
7	386	1078.450599689527	0
7	392	1093.025662129838	0
7	395	1106.189148516697	0
7	404	1161.606097471778	0
7	407	1163.578442419488	0
7	410	1201.575345488697	0
7	415	1205.21468365384	0
7	418	1209.074318248075	0
7	422	1216.39044955247	0
7	425	1231.062298958818	0
7	430	1234.247326850965	0
7	437	1248.342184019664	0
7	443	1253.386172667756	0
7	446	1261.957583257431	0
7	449	1277.467176934737	0
7	452	1288.390089875875	9.453366983403
7	461	1306.576914852068	0
7	466	1323.736502562113	0
7	470	1334.919738381796	0
7	476	1345.193422541783	0
7	479	1347.404884195096	0
7	485	1395.880752839439	0
7	488	1423.878087902705	0
7	500	1456.975740307744	0
7	512	1475.209722097707	0
7	515	1481.687132443397	3.644828223078
7	518	1491.383258494281	0
7	527	1516.479068035088	0
7	539	1590.50042477963	0
7	545	1599.013666144167	0
7	548	1631.434037847915	0
7	566	1650.493728198422	0
7	569	1658.593476369919	0
7	572	1665.372692648625	0
7	575	1681.278513467016	0
7	587	1766.04703695457	0
7	593	1773.520726651988	0
7	596	1780.642379399084	0.766710690815
7	599	1784.609475203094	3.447091588063
7	605	1815.390857124158	0
7	620	1862.080332632237	0
7	629	1880.381953975635	0
7	634	1919.782592244217	0
7	641	1945.274415883366	0
7	650	1965.142792458315	0
7	665	2029.457987501145	0
7	668	2034.339112489427	0
7	671	2036.288220455867	0
7	677	2052.514086448142	0
7	686	2064.672210610458	0
7	689	2066.987813455407	0
7	704	2109.822365075834	0
7	709	2125.829693711752	0
7	722	2149.756655770248	0
7	725	2167.166571253802	0
7	728	2174.916574713006	0
7	731	2192.895363616005	0
7	737	2201.892852908397	0
7	743	2232.882083632135	0
7	746	2259.340022759345	0
7	752	2277.162737970621	0
7	758	2296.648678655655	0
7	763	2299.132235893825	0.556878252097
7	767	2303.500581520958	0
7	770	2307.262137981784	0
7	776	2388.40867807511	0
7	788	2422.686534544323	0
7	794	2432.913250480392	0
7	800	2438.546595932053	0
7	803	2463.754640204455	0
7	809	2467.837102292445	0
7	815	2475.119593842137	0
8	156	408.316800267445	22
8	163	460.85001889682	23
8	166	463.479584158493	24
8	169	466.874953933913	25
8	170	467.124673200784	26
8	174	474.567127968479	27
8	177	492.27667562551	28
8	182	522.463486355393	29
8	185	525.615754301944	30
8	189	530.388712956749	31
8	204	580.421342074772	32
8	207	588.470413118835	33
8	213	604.13951630164	34
8	221	610.526992495348	35
8	226	622.089611112946	36
8	227	624.086557304787	37
8	237	652.727304368247	38
8	240	661.029295071681	39
8	246	690.647407090245	40
8	249	706.653403240764	41
8	254	712.862924222072	42
8	255	715.849453261489	43
8	258	722.957457736899	44
8	264	741.229743466554	45
8	269	754.430570660423	46
8	273	775.381234097515	47
8	279	807.502059825322	48
8	282	815.869554931228	49
8	301	867.945408940844	50
8	302	870.665517888841	51
8	308	877.522873633304	52
8	318	893.893228001498	53
8	327	902.335158216169	54
8	333	949.803401431815	55
8	363	1041.360158449878	56
8	371	1058.428479099071	57
8	375	1065.736694129453	58
8	384	1075.643130955821	59
8	389	1086.923452543244	60
8	393	1094.499683514815	61
8	396	1106.98831733533	62
8	405	1161.790962458416	63
8	408	1163.586488448923	64
8	413	1204.206251580493	65
8	416	1207.60293972273	66
8	419	1209.621494375622	67
8	423	1216.494130097218	68
8	426	1232.345870018917	69
8	433	1235.258046356076	70
8	438	1249.986204710217	71
8	444	1253.875910093659	72
8	447	1262.818525688089	73
8	452	1288.390089875875	74
8	453	1292.798502213851	75
8	462	1310.912463174779	76
8	467	1326.140773159166	77
8	473	1337.346009098622	78
8	477	1345.273354154383	79
8	480	1356.69790437847	80
8	486	1400.30253591722	81
8	489	1425.054177081621	82
8	501	1457.269298325368	83
8	515	1481.687132443397	84
8	516	1485.32714398228	85
8	519	1494.678071032617	86
8	530	1519.078277476241	87
8	540	1591.707882478735	88
8	546	1601.756677620262	89
8	551	1634.946596719037	90
8	567	1656.334129154979	91
8	570	1665.159576643821	92
8	573	1667.776023544117	93
8	576	1685.157413244902	94
8	588	1766.304835018657	95
8	596	1780.642379399084	96
8	599	1784.609475203094	97
8	600	1786.126198967122	98
8	606	1817.680649597347	99
8	623	1866.599046266832	100
8	630	1881.638011081959	101
8	635	1922.170122707911	102
8	642	1947.188184060575	103
8	651	1970.751186408777	104
8	666	2030.209424134608	105
8	669	2034.577668528752	106
8	672	2036.870706231757	107
8	678	2052.632012024447	108
8	687	2066.602631573825	109
8	692	2069.301268324076	110
8	705	2111.167031569229	111
8	710	2128.287466370479	112
8	723	2154.975975219037	113
8	726	2167.905113165814	114
8	729	2175.390047450157	115
8	732	2193.543003031359	116
8	738	2207.030076063357	117
8	744	2242.886068934837	118
8	747	2259.949563833658	119
8	753	2278.837753615684	120
8	763	2299.132235893825	121
8	764	2302.281166038289	122
8	768	2303.898050433553	123
8	771	2307.76953871473	124
8	779	2391.960392473448	125
8	789	2425.673185029097	126
8	795	2433.029366274231	127
8	801	2440.233541729547	128
8	806	2464.799202030138	129
8	810	2469.779977690867	130
8	816	2481.933362073687	131
9	156	408.316800267445	1.293748920933
9	163	460.85001889682	8.863156677249
9	166	463.479584158493	11.238329377074
9	169	466.874953933913	10.605800449891
9	170	467.124673200784	4.336587513896
9	174	474.567127968479	2.816952125951
9	177	492.27667562551	6.437720412294
9	182	522.463486355393	3.347550340634
9	185	525.615754301944	3.363792609412
9	189	530.388712956749	0.024043910824
9	204	580.421342074772	7.81758118
9	207	588.470413118835	1.230950188926
9	213	604.13951630164	1.004566031032
9	221	610.526992495348	1.326102510103
9	226	622.089611112946	11.915658078147
9	227	624.086557304787	11.106016131208
9	237	652.727304368247	0.627843634107
9	240	661.029295071681	6.318155360908
9	246	690.647407090245	4.256327026746
9	249	706.653403240764	4.218373334783
9	254	712.862924222072	0.907470668703
9	255	715.849453261489	3.297518603235
9	258	722.957457736899	1.609909551376
9	264	741.229743466554	1.417141019188
9	269	754.430570660423	9.521911968409
9	273	775.381234097515	2.675976993568
9	279	807.502059825322	1.371936710502
9	282	815.869554931228	4.010555993976
9	301	867.945408940844	4.660314218754
9	302	870.665517888841	2.975524443181
9	308	877.522873633304	0.985019226531
9	318	893.893228001498	0.291117810913
9	327	902.335158216169	0.490269090346
9	333	949.803401431815	1.543853225554
9	363	1041.360158449878	0.126533831672
9	371	1058.428479099071	2.672501353425
9	375	1065.736694129453	0.717973253132
9	384	1075.643130955821	0.36790282714
9	389	1086.923452543244	8.472852853717
9	393	1094.499683514815	1.474021384977
9	396	1106.98831733533	0.799168818633
9	405	1161.790962458416	0.184864986638
9	408	1163.586488448923	0.008046029435
9	413	1204.206251580493	2.630906091796
9	416	1207.60293972273	2.38825606889
9	419	1209.621494375622	0.547176127547
9	423	1216.494130097218	0.103680544748
9	426	1232.345870018917	1.283571060099
9	433	1235.258046356076	1.010719505111
9	438	1249.986204710217	1.644020690553
9	444	1253.875910093659	0.489737425903
9	447	1262.818525688089	0.860942430658
9	452	1288.390089875875	10.922912941138
9	453	1292.798502213851	13.861779321379
9	462	1310.912463174779	4.335548322711
9	467	1326.140773159166	2.404270597053
9	473	1337.346009098622	2.426270716826
9	477	1345.273354154383	0.0799316126
9	480	1356.69790437847	9.293020183374
9	486	1400.30253591722	4.421783077781
9	489	1425.054177081621	1.176089178916
9	501	1457.269298325368	0.293558017624
9	515	1481.687132443397	6.47741034569
9	516	1485.32714398228	7.284839761961
9	519	1494.678071032617	3.294812538336
9	530	1519.078277476241	2.599209441153
9	540	1591.707882478735	1.207457699105
9	546	1601.756677620262	2.743011476095
9	551	1634.946596719037	3.512558871122
9	567	1656.334129154979	5.840400956557
9	570	1665.159576643821	6.566100273902
9	573	1667.776023544117	2.403330895492
9	576	1685.157413244902	3.878899777886
9	588	1766.304835018657	0.257798064087
9	596	1780.642379399084	7.121652747096
9	599	1784.609475203094	4.733806494825
9	600	1786.126198967122	4.963815352091
9	606	1817.680649597347	2.289792473189
9	623	1866.599046266832	4.518713634595
9	630	1881.638011081959	1.256057106324
9	635	1922.170122707911	2.387530463694
9	642	1947.188184060575	1.913768177209
9	651	1970.751186408777	5.608393950462
9	666	2030.209424134608	0.751436633463
9	669	2034.577668528752	0.238556039325
9	672	2036.870706231757	0.58248577589
9	678	2052.632012024447	0.117925576305
9	687	2066.602631573825	1.930420963367
9	692	2069.301268324076	2.313454868669
9	705	2111.167031569229	1.344666493395
9	710	2128.287466370479	2.457772658727
9	723	2154.975975219037	5.219319448789
9	726	2167.905113165814	0.738541912012
9	729	2175.390047450157	0.473472737151
9	732	2193.543003031359	0.647639415354
9	738	2207.030076063357	5.13722315496
9	744	2242.886068934837	10.003985302702
9	747	2259.949563833658	0.609541074313
9	753	2278.837753615684	1.675015645063
9	763	2299.132235893825	2.48355723817
9	764	2302.281166038289	3.705808396561
9	768	2303.898050433553	0.397468912595
9	771	2307.76953871473	0.507400732946
9	779	2391.960392473448	3.551714398338
9	789	2425.673185029097	2.986650484774
9	795	2433.029366274231	0.116115793839
9	801	2440.233541729547	1.686945797494
9	806	2464.799202030138	1.044561825683
9	810	2469.779977690867	1.942875398422
9	816	2481.933362073687	6.81376823155
10	307	876.537854406773	2
10	415	1205.21468365384	3
10	418	1209.074318248075	4
10	430	1234.247326850965	5
10	466	1323.736502562113	6
10	634	1919.782592244217	7
10	709	2125.829693711752	8
11	820	2500	0.0568
12	820	2500	0.0524

