version 2
run factors_calibration_minions-39-20230303-19:02:06-26049
attr configname factors_calibration_minions
attr datetime 20230303-19:02:06
attr experiment factors_calibration_minions
attr inifile omnetpp.ini
attr iterationvars $0=2
attr iterationvarsf 2-
attr measurement $0=2
attr network Network
attr processid 26049
attr repetition 9
attr replication #9
attr resultdir results
attr runnumber 39
attr seedset 9
param *.minion.arrival_mean 20
param *.minion.service_mean 2
param *.boss.arrival_mean 20
param *.boss.service_mean 3
param *.player.recover_rate_x 100
param **.minion.arrival_distribution 0
param **.minion.service_distribution 0
param **.boss.arrival_distribution 0
param **.boss.service_distribution 0

vector 0 Network.player boss_defeated_stat:vector ETV
attr source signal_boss_defeated
vector 1 Network.player boss_jobs_queue_number_stat:vector ETV
attr source signal_boss_jobs_queue_number
vector 2 Network.player boss_response_time_stat:vector ETV
attr source signal_boss_response_time
vector 3 Network.player minion_jobs_number_stat:vector ETV
attr source signal_minion_jobs_number
vector 4 Network.player minion_jobs_queue_number_stat:vector ETV
attr source signal_minion_jobs_queue_number
vector 5 Network.player minion_waiting_time_stat:vector ETV
attr source signal_minion_waiting_time
vector 6 Network.player minion_defeated_stat:vector ETV
attr source signal_minion_defeated
vector 7 Network.player minion_response_time_stat:vector ETV
attr source signal_minion_response_time
vector 8 Network.player boss_jobs_number_stat:vector ETV
attr source signal_boss_jobs_number
vector 9 Network.player boss_waiting_time_stat:vector ETV
attr source signal_boss_waiting_time
vector 10 Network.player minion_recovered_stat:vector ETV
attr source signal_minion_recovered
vector 11 Network.player minion_throughput:vector ETV
attr source signal_minion_throughput
vector 12 Network.player boss_throughput:vector ETV
attr source signal_boss_throughput
0	78	351.051979988309	10
0	84	369.143313807579	11
0	87	383.368041522791	12
0	90	388.121226281505	13
0	93	390.525160364645	14
0	102	401.462418267961	15
0	105	406.036628327996	16
0	108	411.503843575081	17
0	114	444.669962202438	18
0	117	453.165448751734	19
0	122	485.926236941055	20
0	123	490.996601798735	21
0	129	519.763380135718	22
0	135	537.713636432135	23
0	138	550.520113765896	24
0	141	570.488961399739	25
0	150	588.173954559422	26
0	162	628.451447232623	27
0	174	661.375665283878	28
0	177	667.681342023169	29
0	183	682.146019557142	30
0	191	706.213176844023	31
0	198	726.616647481753	32
0	206	741.467425626226	33
0	207	742.735048461465	34
0	216	763.398894454725	35
0	219	766.718811360435	36
0	227	782.062759412093	37
0	231	792.395280150534	38
0	245	831.634439958686	39
0	249	845.131373628183	40
0	267	906.379177438383	41
0	270	919.355763320462	42
0	285	963.177243591868	43
0	294	970.676436259496	44
0	297	974.497627232625	45
0	298	974.83655771322	46
0	314	987.636249707207	47
0	315	988.472623937722	48
0	327	1010.652005279468	49
0	339	1075.895406844119	50
0	358	1135.995300813717	51
0	359	1136.4781799863	52
0	375	1208.410060858948	53
0	378	1218.635742366164	54
0	381	1229.033341545655	55
0	384	1261.064526986861	56
0	387	1289.090671224928	57
0	390	1304.03298135509	58
0	399	1329.532376733821	59
0	405	1338.527614044311	60
0	408	1342.563882458919	61
0	411	1346.969983656208	62
0	424	1377.186319886767	63
0	429	1388.157525240026	64
0	434	1439.18278773458	65
0	438	1448.135964511996	66
0	446	1473.558492762484	67
0	447	1475.743520029119	68
0	452	1479.60938560474	69
0	453	1480.269712126697	70
0	456	1487.46218934351	71
0	459	1494.290374139174	72
0	467	1504.186238476015	73
0	473	1512.263412223689	74
0	480	1540.111052738515	75
0	485	1585.848111348186	76
0	486	1585.889065818061	77
0	492	1605.855692690442	78
0	500	1614.577178777191	79
0	501	1615.31333564348	80
0	504	1624.153404472376	81
0	519	1728.976031686061	82
0	522	1745.990653454621	83
0	536	1795.799712046018	84
0	539	1799.568290354165	85
0	542	1801.624628916696	86
0	560	1835.513051344068	87
0	564	1849.13733532114	88
0	567	1854.01862861026	89
0	572	1862.783260081267	90
0	573	1865.626311738434	91
0	579	1883.45330402591	92
0	582	1885.791546495714	93
0	594	1926.486861589812	94
0	627	2022.321735308671	95
0	630	2037.403063319447	96
0	633	2041.614140760217	97
0	641	2056.03909133219	98
0	645	2065.19649304888	99
0	648	2070.445833770586	100
0	654	2082.210102390343	101
0	660	2128.704637872842	102
0	670	2141.582193896147	103
0	671	2145.686704192261	104
0	674	2147.311459405162	105
0	687	2181.746138822026	106
0	692	2201.321727112092	107
0	705	2222.567535342851	108
0	710	2229.850224232223	109
0	711	2231.840369449035	110
0	714	2235.479440269322	111
0	723	2253.310421946199	112
0	724	2254.052834751836	113
0	729	2260.797720721327	114
0	735	2278.72631917412	115
0	738	2288.779923248657	116
0	741	2297.006869064757	117
0	747	2332.321547553795	118
0	752	2359.349893361809	119
0	759	2369.466658129067	120
0	765	2380.911890981777	121
0	771	2425.85847280941	122
0	777	2438.772019473672	123
0	780	2459.702293394016	124
0	795	2488.156434710886	125
1	78	351.051979988309	0
1	83	366.90674060042	0
1	84	369.143313807579	0
1	86	381.784833013177	0
1	87	383.368041522791	0
1	89	386.250875507134	0
1	90	388.121226281505	0
1	92	389.749122569849	0
1	93	390.525160364645	0
1	101	399.549588799422	0
1	102	401.462418267961	0
1	104	402.504371015353	0
1	105	406.036628327996	0
1	107	408.499009690112	0
1	108	411.503843575081	0
1	113	443.817232557662	0
1	114	444.669962202438	0
1	116	445.367973862082	0
1	117	453.165448751734	0
1	119	478.003471691353	0
1	121	484.600153220399	1
1	122	485.926236941055	1
1	123	490.996601798735	0
1	128	517.502141464979	0
1	129	519.763380135718	0
1	134	529.042666305749	0
1	135	537.713636432135	0
1	137	549.723407939261	0
1	138	550.520113765896	0
1	140	562.927292449865	0
1	141	570.488961399739	0
1	149	586.270515660759	0
1	150	588.173954559422	0
1	161	626.843884536897	0
1	162	628.451447232623	0
1	167	647.353795303353	0
1	174	661.375665283878	0
1	176	662.438482297379	0
1	177	667.681342023169	0
1	182	680.919630399863	0
1	183	682.146019557142	0
1	190	697.442376960556	0
1	191	706.213176844023	0
1	197	725.763040227324	0
1	198	726.616647481753	0
1	203	738.500469943368	0
1	205	739.177665474985	1
1	206	741.467425626226	1
1	207	742.735048461465	0
1	215	762.526755291277	0
1	216	763.398894454725	0
1	218	765.313687185756	0
1	219	766.718811360435	0
1	226	779.370713826155	0
1	227	782.062759412093	0
1	230	791.075455498199	0
1	231	792.395280150534	0
1	242	825.727435836351	0
1	245	831.634439958686	0
1	248	841.668238793278	0
1	249	845.131373628183	0
1	266	906.230180631313	0
1	267	906.379177438383	0
1	269	918.329453634844	0
1	270	919.355763320462	0
1	280	957.388344174164	0
1	282	957.723820241117	1
1	285	963.177243591868	1
1	287	965.1212364791	1
1	293	970.625671301786	2
1	294	970.676436259496	2
1	297	974.497627232625	1
1	298	974.83655771322	0
1	311	986.583432109771	0
1	313	987.393290059605	1
1	314	987.636249707207	1
1	315	988.472623937722	0
1	326	1008.65887140681	0
1	327	1010.652005279468	0
1	338	1070.155179727889	0
1	339	1075.895406844119	0
1	353	1130.416300279589	0
1	355	1132.048297238397	1
1	358	1135.995300813717	1
1	359	1136.4781799863	0
1	374	1205.642446634233	0
1	375	1208.410060858948	0
1	377	1216.616931884824	0
1	378	1218.635742366164	0
1	380	1228.520457625003	0
1	381	1229.033341545655	0
1	383	1254.734196931696	0
1	384	1261.064526986861	0
1	386	1286.850380159512	0
1	387	1289.090671224928	0
1	389	1302.844015444965	0
1	390	1304.03298135509	0
1	398	1328.909099580252	0
1	399	1329.532376733821	0
1	404	1337.388330083135	0
1	405	1338.527614044311	0
1	407	1339.233828183082	0
1	408	1342.563882458919	0
1	410	1343.29505004117	0
1	411	1346.969983656208	0
1	421	1374.799124051652	0
1	424	1377.186319886767	0
1	428	1387.35074829731	0
1	429	1388.157525240026	0
1	433	1438.672465126625	0
1	434	1439.18278773458	0
1	437	1446.386407934709	0
1	438	1448.135964511996	0
1	443	1465.471776737086	0
1	445	1472.526123282645	1
1	446	1473.558492762484	1
1	447	1475.743520029119	0
1	449	1477.260476761024	0
1	451	1478.758750500482	1
1	452	1479.60938560474	1
1	453	1480.269712126697	0
1	455	1484.290723402252	0
1	456	1487.46218934351	0
1	458	1490.187265864041	0
1	459	1494.290374139174	0
1	464	1500.847975289427	0
1	467	1504.186238476015	0
1	470	1508.857475936079	0
1	473	1512.263412223689	0
1	479	1534.984185702364	0
1	480	1540.111052738515	0
1	482	1584.596546818588	0
1	484	1584.900654196861	1
1	485	1585.848111348186	1
1	486	1585.889065818061	0
1	491	1604.854966012996	0
1	492	1605.855692690442	0
1	497	1608.92861649769	0
1	499	1610.735235706327	1
1	500	1614.577178777191	1
1	501	1615.31333564348	0
1	503	1622.440234149539	0
1	504	1624.153404472376	0
1	518	1725.797566812866	0
1	519	1728.976031686061	0
1	521	1744.043509672546	0
1	522	1745.990653454621	0
1	533	1790.574625413366	0
1	535	1793.295441535686	1
1	536	1795.799712046018	1
1	538	1796.601928198126	1
1	539	1799.568290354165	1
1	542	1801.624628916696	0
1	557	1830.0117169173	0
1	560	1835.513051344068	0
1	563	1848.743132659626	0
1	564	1849.13733532114	0
1	566	1853.658041950659	0
1	567	1854.01862861026	0
1	569	1855.784039861942	0
1	571	1857.679617678275	1
1	572	1862.783260081267	1
1	573	1865.626311738434	0
1	578	1882.457710465602	0
1	579	1883.45330402591	0
1	581	1885.04093721874	0
1	582	1885.791546495714	0
1	593	1925.63764088096	0
1	594	1926.486861589812	0
1	626	2022.200134446936	0
1	627	2022.321735308671	0
1	629	2032.794886553949	0
1	630	2037.403063319447	0
1	632	2040.625890296416	0
1	633	2041.614140760217	0
1	638	2053.878915809292	0
1	641	2056.03909133219	0
1	644	2064.153547375319	0
1	645	2065.19649304888	0
1	647	2068.750220991927	0
1	648	2070.445833770586	0
1	653	2081.78025563606	0
1	654	2082.210102390343	0
1	659	2126.915847722145	0
1	660	2128.704637872842	0
1	667	2137.731399979001	0
1	669	2139.643418030477	1
1	670	2141.582193896147	1
1	671	2145.686704192261	0
1	673	2146.629260054248	0
1	674	2147.311459405162	0
1	686	2179.771093233548	0
1	687	2181.746138822026	0
1	689	2196.627595088498	0
1	692	2201.321727112092	0
1	704	2216.971440694834	0
1	705	2222.567535342851	0
1	707	2226.000127713074	0
1	709	2228.447023846671	1
1	710	2229.850224232223	1
1	711	2231.840369449035	0
1	713	2234.20252635727	0
1	714	2235.479440269322	0
1	716	2237.414483346714	0
1	722	2249.077865559208	1
1	723	2253.310421946199	1
1	724	2254.052834751836	0
1	728	2259.534430219018	0
1	729	2260.797720721327	0
1	734	2277.923741025562	0
1	735	2278.72631917412	0
1	737	2288.666116345938	0
1	738	2288.779923248657	0
1	740	2296.659481833168	0
1	741	2297.006869064757	0
1	746	2330.015315462675	0
1	747	2332.321547553795	0
1	749	2350.915731692075	0
1	752	2359.349893361809	0
1	758	2367.773846882979	0
1	759	2369.466658129067	0
1	764	2378.574598955318	0
1	765	2380.911890981777	0
1	770	2425.11642804679	0
1	771	2425.85847280941	0
1	776	2431.98697731575	0
1	777	2438.772019473672	0
1	779	2458.246234532336	0
1	780	2459.702293394016	0
1	794	2481.626538504285	0
1	795	2488.156434710886	0
2	78	351.051979988309	2.771361629401
2	84	369.143313807579	2.236573207159
2	87	383.368041522791	1.583208509614
2	90	388.121226281505	1.870350774371
2	93	390.525160364645	0.776037794796
2	102	401.462418267961	1.912829468539
2	105	406.036628327996	3.532257312643
2	108	411.503843575081	3.004833884969
2	114	444.669962202438	0.852729644776
2	117	453.165448751734	7.797474889652
2	122	485.926236941055	7.922765249702
2	123	490.996601798735	6.396448578336
2	129	519.763380135718	2.261238670739
2	135	537.713636432135	8.670970126386
2	138	550.520113765896	0.796705826635
2	141	570.488961399739	7.561668949874
2	150	588.173954559422	1.903438898663
2	162	628.451447232623	1.607562695726
2	174	661.375665283878	14.021869980525
2	177	667.681342023169	5.24285972579
2	183	682.146019557142	1.226389157279
2	191	706.213176844023	8.770799883467
2	198	726.616647481753	0.853607254429
2	206	741.467425626226	2.966955682858
2	207	742.735048461465	3.55738298648
2	216	763.398894454725	0.872139163448
2	219	766.718811360435	1.405124174679
2	227	782.062759412093	2.692045585938
2	231	792.395280150534	1.319824652335
2	245	831.634439958686	5.907004122335
2	249	845.131373628183	3.463134834905
2	267	906.379177438383	0.14899680707
2	270	919.355763320462	1.026309685618
2	285	963.177243591868	5.788899417704
2	294	970.676436259496	12.952616018379
2	297	974.497627232625	9.376390753525
2	298	974.83655771322	4.210886411434
2	314	987.636249707207	1.052817597436
2	315	988.472623937722	1.079333878117
2	327	1010.652005279468	1.993133872658
2	339	1075.895406844119	5.74022711623
2	358	1135.995300813717	5.579000534128
2	359	1136.4781799863	4.429882747903
2	375	1208.410060858948	2.767614224715
2	378	1218.635742366164	2.01881048134
2	381	1229.033341545655	0.512883920652
2	384	1261.064526986861	6.330330055165
2	387	1289.090671224928	2.240291065416
2	390	1304.03298135509	1.188965910125
2	399	1329.532376733821	0.623277153569
2	405	1338.527614044311	1.139283961176
2	408	1342.563882458919	3.330054275837
2	411	1346.969983656208	3.674933615038
2	424	1377.186319886767	2.387195835115
2	429	1388.157525240026	0.806776942716
2	434	1439.18278773458	0.510322607955
2	438	1448.135964511996	1.749556577287
2	446	1473.558492762484	8.086716025398
2	447	1475.743520029119	3.217396746474
2	452	1479.60938560474	2.348908843716
2	453	1480.269712126697	1.510961626215
2	456	1487.46218934351	3.171465941258
2	459	1494.290374139174	4.103108275133
2	467	1504.186238476015	3.338263186588
2	473	1512.263412223689	3.40593628761
2	480	1540.111052738515	5.126867036151
2	485	1585.848111348186	1.251564529598
2	486	1585.889065818061	0.9884116212
2	492	1605.855692690442	1.000726677446
2	500	1614.577178777191	5.648562279501
2	501	1615.31333564348	4.578099937153
2	504	1624.153404472376	1.713170322837
2	519	1728.976031686061	3.178464873195
2	522	1745.990653454621	1.947143782075
2	536	1795.799712046018	5.225086632652
2	539	1799.568290354165	6.272848818479
2	542	1801.624628916696	5.02270071857
2	560	1835.513051344068	5.501334426768
2	564	1849.13733532114	0.394202661514
2	567	1854.01862861026	0.360586659601
2	572	1862.783260081267	6.999220219325
2	573	1865.626311738434	7.946694060159
2	579	1883.45330402591	0.995593560308
2	582	1885.791546495714	0.750609276974
2	594	1926.486861589812	0.849220708852
2	627	2022.321735308671	0.121600861735
2	630	2037.403063319447	4.608176765498
2	633	2041.614140760217	0.988250463801
2	641	2056.03909133219	2.160175522898
2	645	2065.19649304888	1.042945673561
2	648	2070.445833770586	1.695612778659
2	654	2082.210102390343	0.429846754283
2	660	2128.704637872842	1.788790150697
2	670	2141.582193896147	3.850793917146
2	671	2145.686704192261	6.043286161784
2	674	2147.311459405162	0.682199350914
2	687	2181.746138822026	1.975045588478
2	692	2201.321727112092	4.694132023594
2	705	2222.567535342851	5.596094648017
2	710	2229.850224232223	3.850096519149
2	711	2231.840369449035	3.393345602364
2	714	2235.479440269322	1.276913912052
2	723	2253.310421946199	15.895938599485
2	724	2254.052834751836	4.974969192628
2	729	2260.797720721327	1.263290502309
2	735	2278.72631917412	0.802578148558
2	738	2288.779923248657	0.113806902719
2	741	2297.006869064757	0.347387231589
2	747	2332.321547553795	2.30623209112
2	752	2359.349893361809	8.434161669734
2	759	2369.466658129067	1.692811246088
2	765	2380.911890981777	2.337292026459
2	771	2425.85847280941	0.74204476262
2	777	2438.772019473672	6.785042157922
2	780	2459.702293394016	1.45605886168
2	795	2488.156434710886	6.529896206601
3	80	358.816528523987	1
3	95	391.545869333229	1
3	98	392.207925780068	1
3	110	440.487504080597	1
3	125	499.32453643686	1
3	131	527.097009599076	1
3	143	574.031563238272	1
3	145	575.00247661892	2
3	152	590.978416168097	1
3	155	608.900766359957	1
3	158	613.288984018038	1
3	164	642.193875295888	1
3	169	647.474041242749	1
3	171	659.979978304635	2
3	173	660.027353870306	3
3	185	691.716285159638	1
3	188	696.841388543048	1
3	194	717.739631796989	1
3	200	727.150690962935	1
3	209	743.790093644317	1
3	212	755.846854553176	1
3	221	769.598750257933	1
3	224	775.248109048586	1
3	233	807.421510521103	1
3	236	819.749922178751	1
3	239	822.172815177332	1
3	244	826.897567658402	1
3	251	845.320314901817	1
3	254	867.547511621873	1
3	257	873.069459596018	1
3	260	885.090637866461	1
3	263	903.000018773442	1
3	272	920.963377342799	1
3	275	944.660646303342	1
3	278	952.581204462834	1
3	284	963.158132136688	2
3	289	968.229941694024	3
3	291	968.814406874115	4
3	296	973.671590374429	5
3	302	981.038652585014	4
3	307	984.805883869297	2
3	317	992.666949221459	1
3	319	993.125756695292	2
3	323	1001.398393464872	1
3	329	1021.233176146108	1
3	332	1032.806337715093	1
3	335	1047.967013382312	1
3	341	1082.216279859172	1
3	344	1087.794480683029	1
3	347	1090.493342324064	1
3	350	1105.374915173726	1
3	357	1133.619055749698	1
3	362	1137.447778957462	1
3	365	1138.598097535009	1
3	368	1146.967151805038	1
3	371	1179.199017741037	1
3	392	1305.358838088199	1
3	395	1327.700940245204	1
3	401	1332.991632034575	1
3	413	1348.356953790154	1
3	416	1348.871863104044	1
3	419	1371.744087199423	1
3	423	1375.011717961827	2
3	431	1438.350667862155	1
3	440	1451.552054399139	1
3	461	1495.359290859558	1
3	466	1504.09105125692	1
3	472	1511.272931257864	1
3	476	1531.69313962027	1
3	488	1595.859312217242	1
3	494	1606.733627024807	1
3	506	1644.043708499724	1
3	509	1648.184431505787	1
3	511	1651.740583966703	2
3	515	1660.410613245743	1
3	524	1752.993059203935	1
3	527	1766.15799131813	1
3	529	1768.22844998517	2
3	541	1800.619154847004	1
3	545	1805.372057105413	1
3	548	1815.682916186617	1
3	550	1816.446967527522	2
3	554	1827.971792992093	1
3	559	1831.022439537066	1
3	575	1872.300349368099	1
3	584	1914.701045784914	1
3	587	1919.075132750423	1
3	590	1922.030043098953	1
3	596	1947.612341975904	1
3	598	1948.6675626462	2
3	602	1971.466262792332	1
3	604	1974.836972253523	2
3	607	1979.435888884181	2
3	611	1993.270722405758	1
3	613	1995.003954919681	2
3	617	2001.228761467829	1
3	620	2005.875078835922	1
3	622	2006.279825394959	2
3	635	2046.907205307768	1
3	640	2055.688210683401	1
3	650	2080.930929633202	1
3	656	2108.921654613641	1
3	662	2130.952221633028	1
3	665	2137.55390283123	1
3	676	2147.779706643436	2
3	680	2172.447396363945	1
3	682	2174.056503041633	2
3	691	2200.623457671585	1
3	695	2205.874252804812	1
3	697	2206.592337431162	2
3	701	2211.086614790637	1
3	718	2238.461577953448	1
3	720	2241.999183706119	2
3	731	2265.120345129908	1
3	743	2323.920686810702	1
3	751	2354.391994781886	1
3	754	2360.162832949609	2
3	761	2375.235331074727	1
3	767	2421.865806980137	1
3	773	2430.938641552417	1
3	782	2460.425668940494	1
3	785	2463.135126015631	1
3	788	2466.313897790737	1
3	791	2475.875971855604	1
4	80	358.816528523987	0
4	81	359.479041661505	0
4	95	391.545869333229	0
4	96	391.821904798179	0
4	98	392.207925780068	0
4	99	395.008100572257	0
4	110	440.487504080597	0
4	111	441.217620351289	0
4	125	499.32453643686	0
4	126	502.471767235444	0
4	131	527.097009599076	0
4	132	528.80266108566	0
4	143	574.031563238272	0
4	145	575.00247661892	1
4	146	576.006066072408	1
4	147	577.733751662801	0
4	152	590.978416168097	0
4	153	592.150552302367	0
4	155	608.900766359957	0
4	156	608.911362347905	0
4	158	613.288984018038	0
4	159	619.907972540986	0
4	164	642.193875295888	0
4	165	644.061000244374	0
4	169	647.474041242749	0
4	171	659.979978304635	1
4	173	660.027353870306	2
4	178	670.123093348575	2
4	179	670.561407089652	1
4	180	674.860348127994	0
4	185	691.716285159638	0
4	186	692.759913377281	0
4	188	696.841388543048	0
4	192	707.826333420519	0
4	194	717.739631796989	0
4	195	717.940297458667	0
4	200	727.150690962935	0
4	201	728.854399805928	0
4	209	743.790093644317	0
4	210	748.606906729702	0
4	212	755.846854553176	0
4	213	758.288071035602	0
4	221	769.598750257933	0
4	222	771.833608885709	0
4	224	775.248109048586	0
4	228	784.152050799733	0
4	233	807.421510521103	0
4	234	810.924124779545	0
4	236	819.749922178751	0
4	237	819.855099555525	0
4	239	822.172815177332	0
4	240	822.719387807906	0
4	244	826.897567658402	0
4	246	831.924056829126	0
4	251	845.320314901817	0
4	252	849.241630815147	0
4	254	867.547511621873	0
4	255	867.796436359123	0
4	257	873.069459596018	0
4	258	873.521215637287	0
4	260	885.090637866461	0
4	261	885.99803170712	0
4	263	903.000018773442	0
4	264	905.593489471535	0
4	272	920.963377342799	0
4	273	924.216655767661	0
4	275	944.660646303342	0
4	276	945.566669555405	0
4	278	952.581204462834	0
4	284	963.158132136688	1
4	289	968.229941694024	2
4	291	968.814406874115	3
4	296	973.671590374429	4
4	299	978.578483179262	4
4	300	980.423172621995	3
4	302	981.038652585014	3
4	303	981.233040890453	3
4	304	983.088985686554	2
4	305	984.390770431781	1
4	307	984.805883869297	1
4	308	985.9432559985	1
4	309	986.337567951889	0
4	317	992.666949221459	0
4	319	993.125756695292	1
4	320	994.822805368787	1
4	321	999.479318749347	0
4	323	1001.398393464872	0
4	324	1002.660315582239	0
4	329	1021.233176146108	0
4	330	1024.117430430769	0
4	332	1032.806337715093	0
4	333	1034.668755241068	0
4	335	1047.967013382312	0
4	336	1048.410453843255	0
4	341	1082.216279859172	0
4	342	1083.958457807871	0
4	344	1087.794480683029	0
4	345	1088.70490357064	0
4	347	1090.493342324064	0
4	348	1092.390911253685	0
4	350	1105.374915173726	0
4	351	1107.185529092597	0
4	357	1133.619055749698	0
4	360	1137.384671955099	0
4	362	1137.447778957462	0
4	363	1137.529619349841	0
4	365	1138.598097535009	0
4	366	1139.989944059736	0
4	368	1146.967151805038	0
4	369	1150.448843354495	0
4	371	1179.199017741037	0
4	372	1180.047304007188	0
4	392	1305.358838088199	0
4	393	1307.40364885257	0
4	395	1327.700940245204	0
4	396	1328.400290413707	0
4	401	1332.991632034575	0
4	402	1333.030277022938	0
4	413	1348.356953790154	0
4	414	1348.579486296389	0
4	416	1348.871863104044	0
4	417	1352.152052958487	0
4	419	1371.744087199423	0
4	423	1375.011717961827	1
4	425	1380.726598716274	1
4	426	1381.764625642729	0
4	431	1438.350667862155	0
4	435	1442.737474309573	0
4	440	1451.552054399139	0
4	441	1451.559275197663	0
4	461	1495.359290859558	0
4	462	1495.7369914736	0
4	466	1504.09105125692	0
4	468	1505.438088338391	0
4	472	1511.272931257864	0
4	474	1512.34872556269	0
4	476	1531.69313962027	0
4	477	1532.514650508991	0
4	488	1595.859312217242	0
4	489	1601.699787125072	0
4	494	1606.733627024807	0
4	495	1608.266781421076	0
4	506	1644.043708499724	0
4	507	1646.942229854511	0
4	509	1648.184431505787	0
4	511	1651.740583966703	1
4	512	1653.707067493015	1
4	513	1657.565228572188	0
4	515	1660.410613245743	0
4	516	1664.5945267269	0
4	524	1752.993059203935	0
4	525	1754.742343753936	0
4	527	1766.15799131813	0
4	529	1768.22844998517	1
4	530	1768.947244142916	1
4	531	1774.201021881413	0
4	541	1800.619154847004	0
4	543	1802.875591678903	0
4	545	1805.372057105413	0
4	546	1806.99388695333	0
4	548	1815.682916186617	0
4	550	1816.446967527522	1
4	551	1818.117036690912	1
4	552	1820.423992727406	0
4	554	1827.971792992093	0
4	555	1828.050774900921	0
4	559	1831.022439537066	0
4	561	1835.930141733448	0
4	575	1872.300349368099	0
4	576	1874.577351810227	0
4	584	1914.701045784914	0
4	585	1914.880585999581	0
4	587	1919.075132750423	0
4	588	1920.161071643741	0
4	590	1922.030043098953	0
4	591	1923.631604432153	0
4	596	1947.612341975904	0
4	598	1948.6675626462	1
4	599	1952.275514340925	1
4	600	1952.94597803626	0
4	602	1971.466262792332	0
4	604	1974.836972253523	1
4	605	1977.272992932192	1
4	607	1979.435888884181	1
4	608	1981.593983629927	1
4	609	1989.142966270926	0
4	611	1993.270722405758	0
4	613	1995.003954919681	1
4	614	1995.420379927173	1
4	615	1997.158594796138	0
4	617	2001.228761467829	0
4	618	2001.826077701821	0
4	620	2005.875078835922	0
4	622	2006.279825394959	1
4	623	2013.281505481383	1
4	624	2014.000803034834	0
4	635	2046.907205307768	0
4	636	2048.677200762828	0
4	640	2055.688210683401	0
4	642	2057.475966727643	0
4	650	2080.930929633202	0
4	651	2081.735922668472	0
4	656	2108.921654613641	0
4	657	2109.741472468779	0
4	662	2130.952221633028	0
4	663	2132.241933215913	0
4	665	2137.55390283123	0
4	676	2147.779706643436	1
4	677	2149.870960164814	1
4	678	2151.041958954062	0
4	680	2172.447396363945	0
4	682	2174.056503041633	1
4	683	2174.356671411677	1
4	684	2176.975687741962	0
4	691	2200.623457671585	0
4	693	2202.433718110813	0
4	695	2205.874252804812	0
4	697	2206.592337431162	1
4	698	2207.860770871462	1
4	699	2208.287493556262	0
4	701	2211.086614790637	0
4	702	2215.063059319026	0
4	718	2238.461577953448	0
4	720	2241.999183706119	1
4	725	2254.096121386121	1
4	726	2254.915161371161	0
4	731	2265.120345129908	0
4	732	2269.549583274373	0
4	743	2323.920686810702	0
4	744	2326.267911436152	0
4	751	2354.391994781886	0
4	754	2360.162832949609	1
4	755	2361.405478204243	1
4	756	2362.490130737164	0
4	761	2375.235331074727	0
4	762	2376.681788092438	0
4	767	2421.865806980137	0
4	768	2422.323784559871	0
4	773	2430.938641552417	0
4	774	2431.469081043552	0
4	782	2460.425668940494	0
4	783	2460.506551349293	0
4	785	2463.135126015631	0
4	786	2464.540228960008	0
4	788	2466.313897790737	0
4	789	2468.134120946298	0
4	791	2475.875971855604	0
4	792	2477.97785482979	0
5	80	358.816528523987	0
5	95	391.545869333229	0
5	98	392.207925780068	0
5	110	440.487504080597	0
5	125	499.32453643686	0
5	131	527.097009599076	0
5	143	574.031563238272	0
5	146	576.006066072408	1.003589453488
5	152	590.978416168097	0
5	155	608.900766359957	0
5	158	613.288984018038	0
5	164	642.193875295888	0
5	174	661.375665283878	13.901624041129
5	177	667.681342023169	7.701363718534
5	178	670.123093348575	10.095739478269
5	179	670.561407089652	8.122924792273
5	185	691.716285159638	0
5	188	696.841388543048	0
5	191	706.213176844023	8.770799883467
5	194	717.739631796989	0
5	200	727.150690962935	0
5	209	743.790093644317	0
5	212	755.846854553176	0
5	221	769.598750257933	0
5	224	775.248109048586	0
5	227	782.062759412093	2.692045585938
5	233	807.421510521103	0
5	236	819.749922178751	0
5	239	822.172815177332	0
5	245	831.634439958686	4.736872300284
5	251	845.320314901817	0
5	254	867.547511621873	0
5	257	873.069459596018	0
5	260	885.090637866461	0
5	263	903.000018773442	0
5	272	920.963377342799	0
5	275	944.660646303342	0
5	278	952.581204462834	0
5	298	974.83655771322	17.448213539056
5	299	978.578483179262	15.420351042574
5	300	980.423172621995	12.193230927971
5	303	981.233040890453	12.418634016338
5	304	983.088985686554	9.417395312125
5	305	984.390770431781	3.352117846767
5	308	985.9432559985	1.137372129203
5	317	992.666949221459	0
5	320	994.822805368787	1.697048673495
5	323	1001.398393464872	0
5	329	1021.233176146108	0
5	332	1032.806337715093	0
5	335	1047.967013382312	0
5	341	1082.216279859172	0
5	344	1087.794480683029	0
5	347	1090.493342324064	0
5	350	1105.374915173726	0
5	359	1136.4781799863	2.859124236602
5	362	1137.447778957462	0
5	365	1138.598097535009	0
5	368	1146.967151805038	0
5	371	1179.199017741037	0
5	392	1305.358838088199	0
5	395	1327.700940245204	0
5	401	1332.991632034575	0
5	413	1348.356953790154	0
5	416	1348.871863104044	0
5	419	1371.744087199423	0
5	424	1377.186319886767	2.387195835115
5	425	1380.726598716274	5.714880754447
5	431	1438.350667862155	0
5	434	1439.18278773458	0.510322607955
5	440	1451.552054399139	0
5	461	1495.359290859558	0
5	467	1504.186238476015	0.095187219095
5	473	1512.263412223689	0.990480965825
5	476	1531.69313962027	0
5	488	1595.859312217242	0
5	494	1606.733627024807	0
5	506	1644.043708499724	0
5	509	1648.184431505787	0
5	512	1653.707067493015	1.966483526312
5	515	1660.410613245743	0
5	524	1752.993059203935	0
5	527	1766.15799131813	0
5	530	1768.947244142916	0.718794157746
5	542	1801.624628916696	1.005474069692
5	545	1805.372057105413	0
5	548	1815.682916186617	0
5	551	1818.117036690912	1.67006916339
5	554	1827.971792992093	0
5	560	1835.513051344068	4.490611807002
5	575	1872.300349368099	0
5	584	1914.701045784914	0
5	587	1919.075132750423	0
5	590	1922.030043098953	0
5	596	1947.612341975904	0
5	599	1952.275514340925	3.607951694725
5	602	1971.466262792332	0
5	605	1977.272992932192	2.436020678669
5	608	1981.593983629927	2.158094745746
5	611	1993.270722405758	0
5	614	1995.420379927173	0.416425007492
5	617	2001.228761467829	0
5	620	2005.875078835922	0
5	623	2013.281505481383	7.001680086424
5	635	2046.907205307768	0
5	641	2056.03909133219	0.350880648789
5	650	2080.930929633202	0
5	656	2108.921654613641	0
5	662	2130.952221633028	0
5	665	2137.55390283123	0
5	671	2145.686704192261	7.95530421326
5	674	2147.311459405162	0.682199350914
5	677	2149.870960164814	2.091253521378
5	680	2172.447396363945	0
5	683	2174.356671411677	0.300168370044
5	692	2201.321727112092	0.698269440507
5	695	2205.874252804812	0
5	698	2207.860770871462	1.2684334403
5	701	2211.086614790637	0
5	724	2254.052834751836	15.591256798388
5	725	2254.096121386121	12.096937680002
5	731	2265.120345129908	0
5	743	2323.920686810702	0
5	752	2359.349893361809	4.957898579923
5	755	2361.405478204243	1.242645254634
5	761	2375.235331074727	0
5	767	2421.865806980137	0
5	773	2430.938641552417	0
5	782	2460.425668940494	0
5	785	2463.135126015631	0
5	788	2466.313897790737	0
5	791	2475.875971855604	0
6	81	359.479041661505	17
6	96	391.821904798179	18
6	99	395.008100572257	19
6	111	441.217620351289	20
6	126	502.471767235444	21
6	132	528.80266108566	22
6	146	576.006066072408	23
6	147	577.733751662801	24
6	153	592.150552302367	25
6	156	608.911362347905	26
6	159	619.907972540986	27
6	165	644.061000244374	28
6	178	670.123093348575	29
6	179	670.561407089652	30
6	180	674.860348127994	31
6	186	692.759913377281	32
6	192	707.826333420519	33
6	195	717.940297458667	34
6	201	728.854399805928	35
6	210	748.606906729702	36
6	213	758.288071035602	37
6	222	771.833608885709	38
6	228	784.152050799733	39
6	234	810.924124779545	40
6	237	819.855099555525	41
6	240	822.719387807906	42
6	246	831.924056829126	43
6	252	849.241630815147	44
6	255	867.796436359123	45
6	258	873.521215637287	46
6	261	885.99803170712	47
6	264	905.593489471535	48
6	273	924.216655767661	49
6	276	945.566669555405	50
6	299	978.578483179262	51
6	300	980.423172621995	52
6	303	981.233040890453	53
6	304	983.088985686554	54
6	305	984.390770431781	55
6	308	985.9432559985	56
6	309	986.337567951889	57
6	320	994.822805368787	58
6	321	999.479318749347	59
6	324	1002.660315582239	60
6	330	1024.117430430769	61
6	333	1034.668755241068	62
6	336	1048.410453843255	63
6	342	1083.958457807871	64
6	345	1088.70490357064	65
6	348	1092.390911253685	66
6	351	1107.185529092597	67
6	360	1137.384671955099	68
6	363	1137.529619349841	69
6	366	1139.989944059736	70
6	369	1150.448843354495	71
6	372	1180.047304007188	72
6	393	1307.40364885257	73
6	396	1328.400290413707	74
6	402	1333.030277022938	75
6	414	1348.579486296389	76
6	417	1352.152052958487	77
6	425	1380.726598716274	78
6	426	1381.764625642729	79
6	435	1442.737474309573	80
6	441	1451.559275197663	81
6	462	1495.7369914736	82
6	468	1505.438088338391	83
6	474	1512.34872556269	84
6	477	1532.514650508991	85
6	489	1601.699787125072	86
6	495	1608.266781421076	87
6	507	1646.942229854511	88
6	512	1653.707067493015	89
6	513	1657.565228572188	90
6	516	1664.5945267269	91
6	525	1754.742343753936	92
6	530	1768.947244142916	93
6	531	1774.201021881413	94
6	543	1802.875591678903	95
6	546	1806.99388695333	96
6	551	1818.117036690912	97
6	552	1820.423992727406	98
6	555	1828.050774900921	99
6	561	1835.930141733448	100
6	576	1874.577351810227	101
6	585	1914.880585999581	102
6	588	1920.161071643741	103
6	591	1923.631604432153	104
6	599	1952.275514340925	105
6	600	1952.94597803626	106
6	605	1977.272992932192	107
6	608	1981.593983629927	108
6	609	1989.142966270926	109
6	614	1995.420379927173	110
6	615	1997.158594796138	111
6	618	2001.826077701821	112
6	623	2013.281505481383	113
6	624	2014.000803034834	114
6	636	2048.677200762828	115
6	642	2057.475966727643	116
6	651	2081.735922668472	117
6	657	2109.741472468779	118
6	663	2132.241933215913	119
6	677	2149.870960164814	120
6	678	2151.041958954062	121
6	683	2174.356671411677	122
6	684	2176.975687741962	123
6	693	2202.433718110813	124
6	698	2207.860770871462	125
6	699	2208.287493556262	126
6	702	2215.063059319026	127
6	725	2254.096121386121	128
6	726	2254.915161371161	129
6	732	2269.549583274373	130
6	744	2326.267911436152	131
6	755	2361.405478204243	132
6	756	2362.490130737164	133
6	762	2376.681788092438	134
6	768	2422.323784559871	135
6	774	2431.469081043552	136
6	783	2460.506551349293	137
6	786	2464.540228960008	138
6	789	2468.134120946298	139
6	792	2477.97785482979	140
7	81	359.479041661505	0.662513137518
7	96	391.821904798179	0.27603546495
7	99	395.008100572257	2.800174792189
7	111	441.217620351289	0.730116270692
7	126	502.471767235444	3.147230798584
7	132	528.80266108566	1.705651486584
7	146	576.006066072408	1.974502834136
7	147	577.733751662801	2.731275043881
7	153	592.150552302367	1.17213613427
7	156	608.911362347905	0.010595987948
7	159	619.907972540986	6.618988522948
7	165	644.061000244374	1.867124948486
7	178	670.123093348575	10.14311504394
7	179	670.561407089652	10.534053219346
7	180	674.860348127994	12.421865830615
7	186	692.759913377281	1.043628217643
7	192	707.826333420519	10.383956459963
7	195	717.940297458667	0.200665661678
7	201	728.854399805928	1.703708842993
7	210	748.606906729702	4.816813085385
7	213	758.288071035602	2.441216482426
7	222	771.833608885709	2.234858627776
7	228	784.152050799733	4.781336973578
7	234	810.924124779545	3.502614258442
7	237	819.855099555525	0.105177376774
7	240	822.719387807906	0.546572630574
7	246	831.924056829126	5.026489170724
7	252	849.241630815147	3.92131591333
7	255	867.796436359123	0.24892473725
7	258	873.521215637287	0.451756041269
7	261	885.99803170712	0.907393840659
7	264	905.593489471535	2.593470698093
7	273	924.216655767661	3.253278424862
7	276	945.566669555405	0.906023252063
7	299	978.578483179262	21.190139005098
7	300	980.423172621995	17.265040485307
7	303	981.233040890453	13.003099196429
7	304	983.088985686554	14.274578812439
7	305	984.390770431781	10.719180057352
7	308	985.9432559985	4.904603413486
7	309	986.337567951889	1.531684082592
7	320	994.822805368787	2.155856147328
7	321	999.479318749347	6.353562054055
7	324	1002.660315582239	1.261922117367
7	330	1024.117430430769	2.884254284661
7	333	1034.668755241068	1.862417525975
7	336	1048.410453843255	0.443440460943
7	342	1083.958457807871	1.742177948699
7	345	1088.70490357064	0.910422887611
7	348	1092.390911253685	1.897568929621
7	351	1107.185529092597	1.810613918871
7	360	1137.384671955099	3.765616205401
7	363	1137.529619349841	0.081840392379
7	366	1139.989944059736	1.391846524727
7	369	1150.448843354495	3.481691549457
7	372	1180.047304007188	0.848286266151
7	393	1307.40364885257	2.044810764371
7	396	1328.400290413707	0.699350168503
7	402	1333.030277022938	0.038644988363
7	414	1348.579486296389	0.222532506235
7	417	1352.152052958487	3.280189854443
7	425	1380.726598716274	5.927474664622
7	426	1381.764625642729	6.752907680902
7	435	1442.737474309573	4.065009182948
7	441	1451.559275197663	0.007220798524
7	462	1495.7369914736	0.377700614042
7	468	1505.438088338391	1.347037081471
7	474	1512.34872556269	1.075794304826
7	477	1532.514650508991	0.821510888721
7	489	1601.699787125072	5.84047490783
7	495	1608.266781421076	1.533154396269
7	507	1646.942229854511	2.898521354787
7	512	1653.707067493015	5.522635987228
7	513	1657.565228572188	5.824644605485
7	516	1664.5945267269	4.183913481157
7	525	1754.742343753936	1.749284550001
7	530	1768.947244142916	2.789252824786
7	531	1774.201021881413	5.972571896243
7	543	1802.875591678903	2.256436831899
7	546	1806.99388695333	1.621829847917
7	551	1818.117036690912	2.434120504295
7	552	1820.423992727406	3.977025199884
7	555	1828.050774900921	0.078981908828
7	561	1835.930141733448	4.907702196382
7	576	1874.577351810227	2.277002442128
7	585	1914.880585999581	0.179540214667
7	588	1920.161071643741	1.085938893318
7	591	1923.631604432153	1.6015613332
7	599	1952.275514340925	4.663172365021
7	600	1952.94597803626	4.27841539006
7	605	1977.272992932192	5.80673013986
7	608	1981.593983629927	6.757011376404
7	609	1989.142966270926	9.707077386745
7	614	1995.420379927173	2.149657521415
7	615	1997.158594796138	2.154639876457
7	618	2001.826077701821	0.597316233992
7	623	2013.281505481383	7.406426645461
7	624	2014.000803034834	7.720977639875
7	636	2048.677200762828	1.76999545506
7	642	2057.475966727643	1.787756044242
7	651	2081.735922668472	0.80499303527
7	657	2109.741472468779	0.819817855138
7	663	2132.241933215913	1.289711582885
7	677	2149.870960164814	3.241700110566
7	678	2151.041958954062	3.262252310626
7	683	2174.356671411677	1.909275047732
7	684	2176.975687741962	2.919184700329
7	693	2202.433718110813	1.810260439228
7	698	2207.860770871462	1.98651806665
7	699	2208.287493556262	1.6951561251
7	702	2215.063059319026	3.976444528389
7	725	2254.096121386121	15.634543432673
7	726	2254.915161371161	12.915977665042
7	732	2269.549583274373	4.429238144465
7	744	2326.267911436152	2.34722462545
7	755	2361.405478204243	7.013483422357
7	756	2362.490130737164	2.327297787555
7	762	2376.681788092438	1.446457017711
7	768	2422.323784559871	0.457977579734
7	774	2431.469081043552	0.530439491135
7	783	2460.506551349293	0.080882408799
7	786	2464.540228960008	1.405102944377
7	789	2468.134120946298	1.820223155561
7	792	2477.97785482979	2.101882974186
8	83	366.90674060042	1
8	86	381.784833013177	1
8	89	386.250875507134	1
8	92	389.749122569849	1
8	101	399.549588799422	1
8	104	402.504371015353	1
8	107	408.499009690112	1
8	113	443.817232557662	1
8	116	445.367973862082	1
8	119	478.003471691353	1
8	121	484.600153220399	2
8	128	517.502141464979	1
8	134	529.042666305749	1
8	137	549.723407939261	1
8	140	562.927292449865	1
8	149	586.270515660759	1
8	161	626.843884536897	1
8	167	647.353795303353	1
8	176	662.438482297379	1
8	182	680.919630399863	1
8	190	697.442376960556	1
8	197	725.763040227324	1
8	203	738.500469943368	1
8	205	739.177665474985	2
8	215	762.526755291277	1
8	218	765.313687185756	1
8	226	779.370713826155	1
8	230	791.075455498199	1
8	242	825.727435836351	1
8	248	841.668238793278	1
8	266	906.230180631313	1
8	269	918.329453634844	1
8	280	957.388344174164	1
8	282	957.723820241117	2
8	287	965.1212364791	2
8	293	970.625671301786	3
8	311	986.583432109771	1
8	313	987.393290059605	2
8	326	1008.65887140681	1
8	338	1070.155179727889	1
8	353	1130.416300279589	1
8	355	1132.048297238397	2
8	374	1205.642446634233	1
8	377	1216.616931884824	1
8	380	1228.520457625003	1
8	383	1254.734196931696	1
8	386	1286.850380159512	1
8	389	1302.844015444965	1
8	398	1328.909099580252	1
8	404	1337.388330083135	1
8	407	1339.233828183082	1
8	410	1343.29505004117	1
8	421	1374.799124051652	1
8	428	1387.35074829731	1
8	433	1438.672465126625	1
8	437	1446.386407934709	1
8	443	1465.471776737086	1
8	445	1472.526123282645	2
8	449	1477.260476761024	1
8	451	1478.758750500482	2
8	455	1484.290723402252	1
8	458	1490.187265864041	1
8	464	1500.847975289427	1
8	470	1508.857475936079	1
8	479	1534.984185702364	1
8	482	1584.596546818588	1
8	484	1584.900654196861	2
8	491	1604.854966012996	1
8	497	1608.92861649769	1
8	499	1610.735235706327	2
8	503	1622.440234149539	1
8	518	1725.797566812866	1
8	521	1744.043509672546	1
8	533	1790.574625413366	1
8	535	1793.295441535686	2
8	538	1796.601928198126	2
8	557	1830.0117169173	1
8	563	1848.743132659626	1
8	566	1853.658041950659	1
8	569	1855.784039861942	1
8	571	1857.679617678275	2
8	578	1882.457710465602	1
8	581	1885.04093721874	1
8	593	1925.63764088096	1
8	626	2022.200134446936	1
8	629	2032.794886553949	1
8	632	2040.625890296416	1
8	638	2053.878915809292	1
8	644	2064.153547375319	1
8	647	2068.750220991927	1
8	653	2081.78025563606	1
8	659	2126.915847722145	1
8	667	2137.731399979001	1
8	669	2139.643418030477	2
8	673	2146.629260054248	1
8	686	2179.771093233548	1
8	689	2196.627595088498	1
8	704	2216.971440694834	1
8	707	2226.000127713074	1
8	709	2228.447023846671	2
8	713	2234.20252635727	1
8	716	2237.414483346714	1
8	722	2249.077865559208	2
8	728	2259.534430219018	1
8	734	2277.923741025562	1
8	737	2288.666116345938	1
8	740	2296.659481833168	1
8	746	2330.015315462675	1
8	749	2350.915731692075	1
8	758	2367.773846882979	1
8	764	2378.574598955318	1
8	770	2425.11642804679	1
8	776	2431.98697731575	1
8	779	2458.246234532336	1
8	794	2481.626538504285	1
9	83	366.90674060042	0
9	86	381.784833013177	0
9	89	386.250875507134	0
9	92	389.749122569849	0
9	101	399.549588799422	0
9	104	402.504371015353	0
9	107	408.499009690112	0
9	113	443.817232557662	0
9	116	445.367973862082	0
9	119	478.003471691353	0
9	122	485.926236941055	1.326083720656
9	128	517.502141464979	0
9	134	529.042666305749	0
9	137	549.723407939261	0
9	140	562.927292449865	0
9	149	586.270515660759	0
9	161	626.843884536897	0
9	167	647.353795303353	0
9	176	662.438482297379	0
9	182	680.919630399863	0
9	190	697.442376960556	0
9	197	725.763040227324	0
9	203	738.500469943368	0
9	206	741.467425626226	2.289760151241
9	215	762.526755291277	0
9	218	765.313687185756	0
9	226	779.370713826155	0
9	230	791.075455498199	0
9	242	825.727435836351	0
9	248	841.668238793278	0
9	266	906.230180631313	0
9	269	918.329453634844	0
9	280	957.388344174164	0
9	285	963.177243591868	5.453423350751
9	294	970.676436259496	5.555199780396
9	297	974.497627232625	3.871955930839
9	311	986.583432109771	0
9	314	987.636249707207	0.242959647602
9	326	1008.65887140681	0
9	338	1070.155179727889	0
9	353	1130.416300279589	0
9	358	1135.995300813717	3.94700357532
9	374	1205.642446634233	0
9	377	1216.616931884824	0
9	380	1228.520457625003	0
9	383	1254.734196931696	0
9	386	1286.850380159512	0
9	389	1302.844015444965	0
9	398	1328.909099580252	0
9	404	1337.388330083135	0
9	407	1339.233828183082	0
9	410	1343.29505004117	0
9	421	1374.799124051652	0
9	428	1387.35074829731	0
9	433	1438.672465126625	0
9	437	1446.386407934709	0
9	443	1465.471776737086	0
9	446	1473.558492762484	1.032369479839
9	449	1477.260476761024	0
9	452	1479.60938560474	0.850635104258
9	455	1484.290723402252	0
9	458	1490.187265864041	0
9	464	1500.847975289427	0
9	470	1508.857475936079	0
9	479	1534.984185702364	0
9	482	1584.596546818588	0
9	485	1585.848111348186	0.947457151325
9	491	1604.854966012996	0
9	497	1608.92861649769	0
9	500	1614.577178777191	3.841943070864
9	503	1622.440234149539	0
9	518	1725.797566812866	0
9	521	1744.043509672546	0
9	533	1790.574625413366	0
9	536	1795.799712046018	2.504270510332
9	539	1799.568290354165	2.966362156039
9	557	1830.0117169173	0
9	563	1848.743132659626	0
9	566	1853.658041950659	0
9	569	1855.784039861942	0
9	572	1862.783260081267	5.103642402992
9	578	1882.457710465602	0
9	581	1885.04093721874	0
9	593	1925.63764088096	0
9	626	2022.200134446936	0
9	629	2032.794886553949	0
9	632	2040.625890296416	0
9	638	2053.878915809292	0
9	644	2064.153547375319	0
9	647	2068.750220991927	0
9	653	2081.78025563606	0
9	659	2126.915847722145	0
9	667	2137.731399979001	0
9	670	2141.582193896147	1.93877586567
9	673	2146.629260054248	0
9	686	2179.771093233548	0
9	689	2196.627595088498	0
9	704	2216.971440694834	0
9	707	2226.000127713074	0
9	710	2229.850224232223	1.403200385552
9	713	2234.20252635727	0
9	716	2237.414483346714	0
9	723	2253.310421946199	4.232556386991
9	728	2259.534430219018	0
9	734	2277.923741025562	0
9	737	2288.666116345938	0
9	740	2296.659481833168	0
9	746	2330.015315462675	0
9	749	2350.915731692075	0
9	758	2367.773846882979	0
9	764	2378.574598955318	0
9	770	2425.11642804679	0
9	776	2431.98697731575	0
9	779	2458.246234532336	0
9	794	2481.626538504285	0
10	176	662.438482297379	2
10	190	697.442376960556	3
10	226	779.370713826155	4
10	280	957.388344174164	5
10	421	1374.799124051652	6
10	433	1438.672465126625	7
10	667	2137.731399979001	8
10	673	2146.629260054248	9
11	796	2500	0.056
12	796	2500	0.05

