file 49791 1677866556                                           
version 2
run factors_calibration_minions-182-20230303-19:02:36-26768
attr configname factors_calibration_minions
attr datetime 20230303-19:02:36
attr experiment factors_calibration_minions
attr inifile omnetpp.ini
attr iterationvars $0=12
attr iterationvarsf 12-
attr measurement $0=12
attr network Network
attr processid 26768
attr repetition 2
attr replication #2
attr resultdir results
attr runnumber 182
attr seedset 2
param *.minion.arrival_mean 20
param *.minion.service_mean 12
param *.boss.arrival_mean 20
param *.boss.service_mean 3
param *.player.recover_rate_x 100
param **.minion.arrival_distribution 0
param **.minion.service_distribution 0
param **.boss.arrival_distribution 0
param **.boss.service_distribution 0

vector 0 Network.player minion_jobs_number_stat:vector ETV
attr source signal_minion_jobs_number
vector 1 Network.player minion_jobs_queue_number_stat:vector ETV
attr source signal_minion_jobs_queue_number
vector 2 Network.player minion_waiting_time_stat:vector ETV
attr source signal_minion_waiting_time
vector 3 Network.player boss_jobs_number_stat:vector ETV
attr source signal_boss_jobs_number
vector 4 Network.player boss_jobs_queue_number_stat:vector ETV
attr source signal_boss_jobs_queue_number
vector 5 Network.player minion_recovered_stat:vector ETV
attr source signal_minion_recovered
vector 6 Network.player boss_waiting_time_stat:vector ETV
attr source signal_boss_waiting_time
vector 7 Network.player boss_defeated_stat:vector ETV
attr source signal_boss_defeated
vector 8 Network.player boss_response_time_stat:vector ETV
attr source signal_boss_response_time
vector 9 Network.player minion_defeated_stat:vector ETV
attr source signal_minion_defeated
vector 10 Network.player minion_response_time_stat:vector ETV
attr source signal_minion_response_time
vector 11 Network.player minion_throughput:vector ETV
attr source signal_minion_throughput
vector 12 Network.player boss_throughput:vector ETV
attr source signal_boss_throughput
0	1976 3192 119 838 367.671244185334 2491.726777532963 121 1 27 1826 34202
1	5168 5808 119 839 367.671244185334 2494.623463106143 220 0 26 3179 58031
2	10976 7837 119 839 367.671244185334 2494.623463106143 201 0 281.10949608537 27324.656318255 4863316.8076475
3	18813 3247 121 834 368.958402505989 2486.574186514758 127 1 3 152 208
4	22060 6495 121 835 368.958402505989 2489.411592250024 254 0 2 50 62
5	28555 2684 121 834 368.958402505989 2486.574186514758 101 5 105 5555 391375
6	31239 3528 121 834 368.958402505989 2486.574186514758 127 0 11.354573261156 61.422775171045 300.13223871969
7	34767 3425 122 835 369.303746541623 2489.411592250024 127 23 149 10922 1109980
8	38192 4895 122 835 369.303746541623 2489.411592250024 127 0.018053262154 15.299288973527 456.32294428788 3118.9122492379
9	43087 2657 123 839 375.077709687956 2494.623463106143 99 18 116 6633 525261
10	45744 4008 123 839 375.077709687956 2494.623463106143 99 2.189438238905 281.35995647698 14682.882370326 2740330.1816939
11	49752 19 840 840 2500 2500 1 0.0464 0.0464 0.0464 0.00215296
12	49771 19 840 840 2500 2500 1 0.0596 0.0596 0.0596 0.00355216

