version 2
run factors_calibration_minions-119-20230303-19:02:23-26452
attr configname factors_calibration_minions
attr datetime 20230303-19:02:23
attr experiment factors_calibration_minions
attr inifile omnetpp.ini
attr iterationvars $0=5
attr iterationvarsf 5-
attr measurement $0=5
attr network Network
attr processid 26452
attr repetition 29
attr replication #29
attr resultdir results
attr runnumber 119
attr seedset 29
param *.minion.arrival_mean 20
param *.minion.service_mean 5
param *.boss.arrival_mean 20
param *.boss.service_mean 3
param *.player.recover_rate_x 100
param **.minion.arrival_distribution 0
param **.minion.service_distribution 0
param **.boss.arrival_distribution 0
param **.boss.service_distribution 0

vector 0 Network.player boss_jobs_number_stat:vector ETV
attr source signal_boss_jobs_number
vector 1 Network.player boss_jobs_queue_number_stat:vector ETV
attr source signal_boss_jobs_queue_number
vector 2 Network.player boss_waiting_time_stat:vector ETV
attr source signal_boss_waiting_time
vector 3 Network.player boss_defeated_stat:vector ETV
attr source signal_boss_defeated
vector 4 Network.player boss_response_time_stat:vector ETV
attr source signal_boss_response_time
vector 5 Network.player minion_jobs_number_stat:vector ETV
attr source signal_minion_jobs_number
vector 6 Network.player minion_jobs_queue_number_stat:vector ETV
attr source signal_minion_jobs_queue_number
vector 7 Network.player minion_waiting_time_stat:vector ETV
attr source signal_minion_waiting_time
vector 8 Network.player minion_defeated_stat:vector ETV
attr source signal_minion_defeated
vector 9 Network.player minion_response_time_stat:vector ETV
attr source signal_minion_response_time
vector 10 Network.player minion_recovered_stat:vector ETV
attr source signal_minion_recovered
vector 11 Network.player minion_throughput:vector ETV
attr source signal_minion_throughput
vector 12 Network.player boss_throughput:vector ETV
attr source signal_boss_throughput
0	95	361.021825549164	1
0	98	377.990665820572	1
0	100	378.253915431294	2
0	104	422.009642860919	1
0	110	440.507768153143	1
0	122	523.73951392862	1
0	129	530.555131859566	1
0	137	545.373125084985	1
0	150	589.35608943426	1
0	156	610.291214639623	1
0	160	615.800908427453	1
0	178	652.662135001111	1
0	183	662.997675276741	1
0	188	681.988222083014	1
0	191	722.609711117216	1
0	194	742.368989217759	1
0	197	751.111928766331	1
0	208	799.632860009152	1
0	212	814.853493710681	1
0	218	860.107364097815	1
0	221	863.381446274853	1
0	224	873.232163967375	1
0	226	875.141813991404	2
0	233	896.29040962463	1
0	238	900.777193276199	1
0	245	924.490335754125	1
0	251	944.436092298924	1
0	254	951.47929612701	1
0	263	1011.77198842037	1
0	266	1012.512646375906	1
0	269	1038.37111930574	1
0	278	1124.687148995609	1
0	281	1134.14472775205	1
0	283	1136.014676504768	2
0	290	1150.696087075246	1
0	298	1163.995141988292	1
0	300	1164.834707420463	2
0	304	1175.182035494463	1
0	308	1230.359838712003	1
0	320	1257.761287405401	1
0	328	1277.139323562446	1
0	336	1284.576761460268	2
0	341	1290.546818596825	1
0	343	1290.626256761703	2
0	345	1295.97049487972	3
0	351	1303.980580883593	2
0	355	1309.463716143574	1
0	364	1347.514072646773	1
0	374	1388.786029090884	1
0	380	1400.099639158162	1
0	392	1448.468959825449	1
0	395	1540.065042446857	1
0	410	1583.325883925548	1
0	416	1586.275170027452	1
0	434	1613.626189748491	1
0	436	1614.26675634966	2
0	443	1628.988584949879	1
0	446	1633.042512394715	1
0	449	1654.225093828105	1
0	452	1663.525897776844	1
0	470	1734.077240528806	1
0	473	1749.437982594428	1
0	487	1799.40592340194	1
0	497	1818.494866855502	1
0	509	1844.445977291195	1
0	515	1857.169951238713	1
0	518	1865.263090597383	1
0	521	1870.89228262137	1
0	524	1874.166523009959	1
0	527	1875.969531453931	1
0	530	1894.574768464284	1
0	547	1956.269871227903	1
0	549	1958.634551972986	2
0	557	1983.36840924784	1
0	566	2008.698798874346	1
0	575	2040.337147864579	1
0	581	2060.761979702989	1
0	586	2072.43993907191	1
0	599	2125.454313612626	1
0	611	2161.780818154514	1
0	614	2164.572453140033	1
0	616	2165.34997202045	2
0	625	2184.469118021856	1
0	629	2206.677665640295	1
0	632	2213.274337973245	1
0	635	2217.002569442759	1
0	643	2221.137838314775	1
0	659	2272.148163070228	1
0	662	2275.806883192869	1
0	665	2280.659867074338	1
0	668	2285.193654503639	1
0	673	2296.706842502531	1
0	675	2299.904511665169	2
0	680	2307.946249155461	1
0	683	2328.895385620355	1
0	686	2339.416810040685	1
0	688	2339.425908011321	2
0	692	2342.523346328393	1
0	695	2367.255355255618	1
0	701	2436.401942894968	1
0	706	2455.75371522284	1
1	95	361.021825549164	0
1	96	361.984447366053	0
1	98	377.990665820572	0
1	100	378.253915431294	1
1	101	379.624777422263	1
1	102	381.180900991721	0
1	104	422.009642860919	0
1	107	435.052287492858	0
1	110	440.507768153143	0
1	111	441.150422561531	0
1	122	523.73951392862	0
1	123	524.023491328993	0
1	129	530.555131859566	0
1	130	531.46966683577	0
1	137	545.373125084985	0
1	138	545.763787696091	0
1	150	589.35608943426	0
1	151	599.394688327178	0
1	156	610.291214639623	0
1	157	612.619078423632	0
1	160	615.800908427453	0
1	161	617.735581056979	0
1	178	652.662135001111	0
1	179	657.386440275449	0
1	183	662.997675276741	0
1	184	665.402468995443	0
1	188	681.988222083014	0
1	189	683.451096784922	0
1	191	722.609711117216	0
1	192	723.123170246068	0
1	194	742.368989217759	0
1	195	743.559446060408	0
1	197	751.111928766331	0
1	198	752.407291098363	0
1	208	799.632860009152	0
1	209	799.765793772249	0
1	212	814.853493710681	0
1	213	821.218038083683	0
1	218	860.107364097815	0
1	219	861.34742590061	0
1	221	863.381446274853	0
1	222	865.300386365417	0
1	224	873.232163967375	0
1	226	875.141813991404	1
1	227	875.582459748494	1
1	228	879.856082915987	0
1	233	896.29040962463	0
1	236	898.704898077455	0
1	238	900.777193276199	0
1	239	903.545037272419	0
1	245	924.490335754125	0
1	246	928.278043192048	0
1	251	944.436092298924	0
1	252	947.536579239592	0
1	254	951.47929612701	0
1	255	953.971187641407	0
1	263	1011.77198842037	0
1	264	1011.907267701212	0
1	266	1012.512646375906	0
1	267	1015.253815876793	0
1	269	1038.37111930574	0
1	270	1041.718829654777	0
1	278	1124.687148995609	0
1	279	1129.336548847819	0
1	281	1134.14472775205	0
1	283	1136.014676504768	1
1	284	1138.873102367647	1
1	287	1144.861722018253	0
1	290	1150.696087075246	0
1	293	1152.213187942295	0
1	298	1163.995141988292	0
1	300	1164.834707420463	1
1	301	1168.897593525917	1
1	302	1169.558560133915	0
1	304	1175.182035494463	0
1	305	1176.102453479391	0
1	308	1230.359838712003	0
1	309	1230.823649006857	0
1	320	1257.761287405401	0
1	321	1260.353965600902	0
1	328	1277.139323562446	0
1	336	1284.576761460268	1
1	337	1288.479416642648	1
1	338	1288.917562594481	0
1	341	1290.546818596825	0
1	343	1290.626256761703	1
1	345	1295.97049487972	2
1	348	1299.574483445826	2
1	349	1302.142506018555	1
1	351	1303.980580883593	1
1	352	1306.915819610095	1
1	353	1307.046762144246	0
1	355	1309.463716143574	0
1	358	1317.863254070459	0
1	364	1347.514072646773	0
1	365	1352.558078113173	0
1	374	1388.786029090884	0
1	375	1389.60342354668	0
1	380	1400.099639158162	0
1	381	1401.111154814741	0
1	392	1448.468959825449	0
1	393	1453.244129801266	0
1	395	1540.065042446857	0
1	396	1548.871858272881	0
1	410	1583.325883925548	0
1	413	1585.323169655537	0
1	416	1586.275170027452	0
1	419	1591.520494899423	0
1	434	1613.626189748491	0
1	436	1614.26675634966	1
1	437	1616.909891383058	1
1	438	1617.039393112427	0
1	443	1628.988584949879	0
1	444	1632.780881639949	0
1	446	1633.042512394715	0
1	447	1634.547971657384	0
1	449	1654.225093828105	0
1	450	1654.997273444342	0
1	452	1663.525897776844	0
1	453	1664.618167149192	0
1	470	1734.077240528806	0
1	471	1738.188407205114	0
1	473	1749.437982594428	0
1	474	1753.815833884651	0
1	487	1799.40592340194	0
1	488	1800.653497538987	0
1	497	1818.494866855502	0
1	498	1818.738640159154	0
1	509	1844.445977291195	0
1	510	1844.765819841411	0
1	515	1857.169951238713	0
1	516	1859.248359434795	0
1	518	1865.263090597383	0
1	519	1865.452872957234	0
1	521	1870.89228262137	0
1	522	1872.50550417943	0
1	524	1874.166523009959	0
1	525	1875.60976784393	0
1	527	1875.969531453931	0
1	528	1879.751951864886	0
1	530	1894.574768464284	0
1	531	1898.144979590984	0
1	547	1956.269871227903	0
1	549	1958.634551972986	1
1	550	1959.447532149395	1
1	551	1967.856304718923	0
1	557	1983.36840924784	0
1	558	1984.597563026972	0
1	566	2008.698798874346	0
1	567	2010.645261422712	0
1	575	2040.337147864579	0
1	576	2041.602096923564	0
1	581	2060.761979702989	0
1	582	2064.293820055065	0
1	586	2072.43993907191	0
1	589	2073.301184919026	0
1	599	2125.454313612626	0
1	600	2130.280931797162	0
1	611	2161.780818154514	0
1	612	2164.080997266091	0
1	614	2164.572453140033	0
1	616	2165.34997202045	1
1	617	2166.510197432538	1
1	618	2169.496886116087	0
1	625	2184.469118021856	0
1	626	2186.381604402649	0
1	629	2206.677665640295	0
1	630	2207.380742356091	0
1	632	2213.274337973245	0
1	633	2214.708804340746	0
1	635	2217.002569442759	0
1	636	2217.394271341266	0
1	643	2221.137838314775	0
1	646	2231.85642807794	0
1	659	2272.148163070228	0
1	660	2274.344295348624	0
1	662	2275.806883192869	0
1	663	2276.879136453858	0
1	665	2280.659867074338	0
1	666	2281.002276780215	0
1	668	2285.193654503639	0
1	669	2287.628840677447	0
1	673	2296.706842502531	0
1	675	2299.904511665169	1
1	676	2302.474242132595	1
1	677	2303.620702805698	0
1	680	2307.946249155461	0
1	681	2308.242733026211	0
1	683	2328.895385620355	0
1	684	2333.690495188657	0
1	686	2339.416810040685	0
1	688	2339.425908011321	1
1	689	2340.243113751818	1
1	690	2340.364149364979	0
1	692	2342.523346328393	0
1	693	2346.795462054521	0
1	695	2367.255355255618	0
1	696	2368.79802979348	0
1	701	2436.401942894968	0
1	702	2438.660694748293	0
1	706	2455.75371522284	0
1	707	2455.909834038964	0
2	95	361.021825549164	0
2	98	377.990665820572	0
2	101	379.624777422263	1.370861990969
2	104	422.009642860919	0
2	110	440.507768153143	0
2	122	523.73951392862	0
2	129	530.555131859566	0
2	137	545.373125084985	0
2	150	589.35608943426	0
2	156	610.291214639623	0
2	160	615.800908427453	0
2	178	652.662135001111	0
2	183	662.997675276741	0
2	188	681.988222083014	0
2	191	722.609711117216	0
2	194	742.368989217759	0
2	197	751.111928766331	0
2	208	799.632860009152	0
2	212	814.853493710681	0
2	218	860.107364097815	0
2	221	863.381446274853	0
2	224	873.232163967375	0
2	227	875.582459748494	0.44064575709
2	233	896.29040962463	0
2	238	900.777193276199	0
2	245	924.490335754125	0
2	251	944.436092298924	0
2	254	951.47929612701	0
2	263	1011.77198842037	0
2	266	1012.512646375906	0
2	269	1038.37111930574	0
2	278	1124.687148995609	0
2	281	1134.14472775205	0
2	284	1138.873102367647	2.858425862879
2	290	1150.696087075246	0
2	298	1163.995141988292	0
2	301	1168.897593525917	4.062886105454
2	304	1175.182035494463	0
2	308	1230.359838712003	0
2	320	1257.761287405401	0
2	328	1277.139323562446	0
2	337	1288.479416642648	3.90265518238
2	341	1290.546818596825	0
2	348	1299.574483445826	8.948226684123
2	349	1302.142506018555	6.172011138835
2	352	1306.915819610095	2.935238726502
2	355	1309.463716143574	0
2	364	1347.514072646773	0
2	374	1388.786029090884	0
2	380	1400.099639158162	0
2	392	1448.468959825449	0
2	395	1540.065042446857	0
2	410	1583.325883925548	0
2	416	1586.275170027452	0
2	434	1613.626189748491	0
2	437	1616.909891383058	2.643135033398
2	443	1628.988584949879	0
2	446	1633.042512394715	0
2	449	1654.225093828105	0
2	452	1663.525897776844	0
2	470	1734.077240528806	0
2	473	1749.437982594428	0
2	487	1799.40592340194	0
2	497	1818.494866855502	0
2	509	1844.445977291195	0
2	515	1857.169951238713	0
2	518	1865.263090597383	0
2	521	1870.89228262137	0
2	524	1874.166523009959	0
2	527	1875.969531453931	0
2	530	1894.574768464284	0
2	547	1956.269871227903	0
2	550	1959.447532149395	0.812980176409
2	557	1983.36840924784	0
2	566	2008.698798874346	0
2	575	2040.337147864579	0
2	581	2060.761979702989	0
2	586	2072.43993907191	0
2	599	2125.454313612626	0
2	611	2161.780818154514	0
2	614	2164.572453140033	0
2	617	2166.510197432538	1.160225412088
2	625	2184.469118021856	0
2	629	2206.677665640295	0
2	632	2213.274337973245	0
2	635	2217.002569442759	0
2	643	2221.137838314775	0
2	659	2272.148163070228	0
2	662	2275.806883192869	0
2	665	2280.659867074338	0
2	668	2285.193654503639	0
2	673	2296.706842502531	0
2	676	2302.474242132595	2.569730467426
2	680	2307.946249155461	0
2	683	2328.895385620355	0
2	686	2339.416810040685	0
2	689	2340.243113751818	0.817205740497
2	692	2342.523346328393	0
2	695	2367.255355255618	0
2	701	2436.401942894968	0
2	706	2455.75371522284	0
3	96	361.984447366053	14
3	101	379.624777422263	15
3	102	381.180900991721	16
3	107	435.052287492858	17
3	111	441.150422561531	18
3	123	524.023491328993	19
3	130	531.46966683577	20
3	138	545.763787696091	21
3	151	599.394688327178	22
3	157	612.619078423632	23
3	161	617.735581056979	24
3	179	657.386440275449	25
3	184	665.402468995443	26
3	189	683.451096784922	27
3	192	723.123170246068	28
3	195	743.559446060408	29
3	198	752.407291098363	30
3	209	799.765793772249	31
3	213	821.218038083683	32
3	219	861.34742590061	33
3	222	865.300386365417	34
3	227	875.582459748494	35
3	228	879.856082915987	36
3	236	898.704898077455	37
3	239	903.545037272419	38
3	246	928.278043192048	39
3	252	947.536579239592	40
3	255	953.971187641407	41
3	264	1011.907267701212	42
3	267	1015.253815876793	43
3	270	1041.718829654777	44
3	279	1129.336548847819	45
3	284	1138.873102367647	46
3	287	1144.861722018253	47
3	293	1152.213187942295	48
3	301	1168.897593525917	49
3	302	1169.558560133915	50
3	305	1176.102453479391	51
3	309	1230.823649006857	52
3	321	1260.353965600902	53
3	337	1288.479416642648	54
3	338	1288.917562594481	55
3	348	1299.574483445826	56
3	349	1302.142506018555	57
3	352	1306.915819610095	58
3	353	1307.046762144246	59
3	358	1317.863254070459	60
3	365	1352.558078113173	61
3	375	1389.60342354668	62
3	381	1401.111154814741	63
3	393	1453.244129801266	64
3	396	1548.871858272881	65
3	413	1585.323169655537	66
3	419	1591.520494899423	67
3	437	1616.909891383058	68
3	438	1617.039393112427	69
3	444	1632.780881639949	70
3	447	1634.547971657384	71
3	450	1654.997273444342	72
3	453	1664.618167149192	73
3	471	1738.188407205114	74
3	474	1753.815833884651	75
3	488	1800.653497538987	76
3	498	1818.738640159154	77
3	510	1844.765819841411	78
3	516	1859.248359434795	79
3	519	1865.452872957234	80
3	522	1872.50550417943	81
3	525	1875.60976784393	82
3	528	1879.751951864886	83
3	531	1898.144979590984	84
3	550	1959.447532149395	85
3	551	1967.856304718923	86
3	558	1984.597563026972	87
3	567	2010.645261422712	88
3	576	2041.602096923564	89
3	582	2064.293820055065	90
3	589	2073.301184919026	91
3	600	2130.280931797162	92
3	612	2164.080997266091	93
3	617	2166.510197432538	94
3	618	2169.496886116087	95
3	626	2186.381604402649	96
3	630	2207.380742356091	97
3	633	2214.708804340746	98
3	636	2217.394271341266	99
3	646	2231.85642807794	100
3	660	2274.344295348624	101
3	663	2276.879136453858	102
3	666	2281.002276780215	103
3	669	2287.628840677447	104
3	676	2302.474242132595	105
3	677	2303.620702805698	106
3	681	2308.242733026211	107
3	684	2333.690495188657	108
3	689	2340.243113751818	109
3	690	2340.364149364979	110
3	693	2346.795462054521	111
3	696	2368.79802979348	112
3	702	2438.660694748293	113
3	707	2455.909834038964	114
4	96	361.984447366053	0.962621816889
4	101	379.624777422263	1.634111601691
4	102	381.180900991721	2.926985560427
4	107	435.052287492858	13.042644631939
4	111	441.150422561531	0.642654408388
4	123	524.023491328993	0.283977400373
4	130	531.46966683577	0.914534976204
4	138	545.763787696091	0.390662611106
4	151	599.394688327178	10.038598892918
4	157	612.619078423632	2.327863784009
4	161	617.735581056979	1.934672629526
4	179	657.386440275449	4.724305274338
4	184	665.402468995443	2.404793718702
4	189	683.451096784922	1.462874701908
4	192	723.123170246068	0.513459128852
4	195	743.559446060408	1.190456842649
4	198	752.407291098363	1.295362332032
4	209	799.765793772249	0.132933763097
4	213	821.218038083683	6.364544373002
4	219	861.34742590061	1.240061802795
4	222	865.300386365417	1.918940090564
4	227	875.582459748494	2.350295781119
4	228	879.856082915987	4.714268924583
4	236	898.704898077455	2.414488452825
4	239	903.545037272419	2.76784399622
4	246	928.278043192048	3.787707437923
4	252	947.536579239592	3.100486940668
4	255	953.971187641407	2.491891514397
4	264	1011.907267701212	0.135279280842
4	267	1015.253815876793	2.741169500887
4	270	1041.718829654777	3.347710349037
4	279	1129.336548847819	4.64939985221
4	284	1138.873102367647	4.728374615597
4	287	1144.861722018253	8.847045513485
4	293	1152.213187942295	1.517100867049
4	301	1168.897593525917	4.902451537625
4	302	1169.558560133915	4.723852713452
4	305	1176.102453479391	0.920417984928
4	309	1230.823649006857	0.463810294854
4	321	1260.353965600902	2.592678195501
4	337	1288.479416642648	11.340093080202
4	338	1288.917562594481	4.340801134213
4	348	1299.574483445826	9.027664849001
4	349	1302.142506018555	11.516249256852
4	352	1306.915819610095	10.945324730375
4	353	1307.046762144246	3.066181260653
4	358	1317.863254070459	8.399537926885
4	365	1352.558078113173	5.0440054664
4	375	1389.60342354668	0.817394455796
4	381	1401.111154814741	1.011515656579
4	393	1453.244129801266	4.775169975817
4	396	1548.871858272881	8.806815826024
4	413	1585.323169655537	1.997285729989
4	419	1591.520494899423	5.245324871971
4	437	1616.909891383058	3.283701634567
4	438	1617.039393112427	2.772636762767
4	444	1632.780881639949	3.79229669007
4	447	1634.547971657384	1.505459262669
4	450	1654.997273444342	0.772179616237
4	453	1664.618167149192	1.092269372348
4	471	1738.188407205114	4.111166676308
4	474	1753.815833884651	4.377851290223
4	488	1800.653497538987	1.247574137047
4	498	1818.738640159154	0.243773303652
4	510	1844.765819841411	0.319842550216
4	516	1859.248359434795	2.078408196082
4	519	1865.452872957234	0.189782359851
4	522	1872.50550417943	1.61322155806
4	525	1875.60976784393	1.443244833971
4	528	1879.751951864886	3.782420410955
4	531	1898.144979590984	3.5702111267
4	550	1959.447532149395	3.177660921492
4	551	1967.856304718923	9.221752745937
4	558	1984.597563026972	1.229153779132
4	567	2010.645261422712	1.946462548366
4	576	2041.602096923564	1.264949058985
4	582	2064.293820055065	3.531840352076
4	589	2073.301184919026	0.861245847116
4	600	2130.280931797162	4.826618184536
4	612	2164.080997266091	2.300179111577
4	617	2166.510197432538	1.937744292505
4	618	2169.496886116087	4.146914095637
4	626	2186.381604402649	1.912486380793
4	630	2207.380742356091	0.703076715796
4	633	2214.708804340746	1.434466367501
4	636	2217.394271341266	0.391701898507
4	646	2231.85642807794	10.718589763165
4	660	2274.344295348624	2.196132278396
4	663	2276.879136453858	1.072253260989
4	666	2281.002276780215	0.342409705877
4	669	2287.628840677447	2.435186173808
4	676	2302.474242132595	5.767399630064
4	677	2303.620702805698	3.716191140529
4	681	2308.242733026211	0.29648387075
4	684	2333.690495188657	4.795109568302
4	689	2340.243113751818	0.826303711133
4	690	2340.364149364979	0.938241353658
4	693	2346.795462054521	4.272115726128
4	696	2368.79802979348	1.542674537862
4	702	2438.660694748293	2.258751853325
4	707	2455.909834038964	0.156118816124
5	106	422.386198260945	1
5	113	448.938326461182	1
5	115	453.631088304871	2
5	119	482.983475634209	1
5	125	530.145033433278	1
5	127	530.361649910608	2
5	133	542.575900281643	2
5	135	543.585408670861	3
5	142	573.497902724104	2
5	145	584.020493069197	2
5	147	584.506172789282	3
5	154	608.57831931087	2
5	163	619.018153786064	2
5	165	626.474758463015	3
5	167	627.706314360928	4
5	171	644.611031661344	3
5	176	651.679438094651	1
5	181	661.304983628706	2
5	200	759.2161906267	1
5	203	770.314084067084	1
5	206	798.456467298955	1
5	215	852.588835505732	1
5	230	887.32056546102	1
5	235	897.765540699165	1
5	242	916.274754853656	1
5	248	931.653037877099	1
5	257	989.666511159173	1
5	260	999.645339494413	1
5	272	1090.419454239947	1
5	275	1112.653127438867	1
5	286	1144.483513206269	1
5	292	1151.727558488378	1
5	295	1155.763665936555	2
5	311	1237.212924625113	1
5	314	1242.580179275315	1
5	316	1249.179163290159	2
5	318	1254.319617233705	3
5	325	1272.313468392898	2
5	330	1277.391177266082	2
5	332	1279.007824754455	3
5	334	1283.303210225511	4
5	347	1296.893130046661	4
5	357	1313.099499621487	5
5	367	1358.792769150488	2
5	369	1365.946239041703	3
5	377	1389.875029932745	1
5	383	1419.264388538131	1
5	385	1423.517625883383	2
5	387	1429.490126564861	3
5	398	1561.052007870126	1
5	400	1564.088305826684	2
5	403	1570.237404650926	2
5	406	1573.65786492103	2
5	412	1584.423470806476	1
5	418	1589.301787492501	1
5	422	1592.329291437967	1
5	425	1595.838414576598	1
5	428	1601.318353113865	1
5	431	1604.291122136983	1
5	440	1622.01036995763	1
5	455	1675.202700291272	1
5	458	1685.61778482558	1
5	461	1701.718451476362	1
5	464	1704.1453649777	1
5	467	1712.319916892135	1
5	476	1755.546147175063	1
5	479	1787.29435833153	1
5	481	1792.887547261209	2
5	485	1799.211700038714	1
5	491	1812.980309645616	1
5	493	1817.691749866348	2
5	495	1818.137554961165	3
5	501	1821.813396391638	3
5	504	1827.002241607193	3
5	512	1846.91314194571	1
5	533	1907.793653340478	1
5	535	1911.569266213486	2
5	537	1918.805856748999	3
5	541	1935.310996260919	2
5	545	1955.455053949159	1
5	553	1972.96669083906	2
5	560	1985.309684874745	1
5	563	2000.92437316367	1
5	569	2012.353453886381	1
5	572	2034.85481411325	1
5	578	2046.666371770565	1
5	584	2071.150115231788	1
5	588	2072.7950857854	2
5	592	2084.14261419494	2
5	596	2106.623911201761	1
5	602	2137.256340091079	1
5	604	2137.474504781787	2
5	607	2153.116898661496	2
5	620	2170.539841157252	1
5	623	2181.007633101662	1
5	638	2217.51219284984	1
5	640	2218.028080303521	2
5	645	2223.650234552202	2
5	649	2234.376151456474	2
5	652	2237.146682073598	2
5	655	2260.252053613848	2
5	671	2291.88899473292	1
5	698	2382.148613833656	1
5	704	2448.635742391973	1
5	710	2478.830599924705	1
5	713	2482.638452956555	1
5	716	2493.396696766099	1
5	719	2498.150480111202	1
6	106	422.386198260945	0
6	108	435.810754536728	0
6	113	448.938326461182	0
6	115	453.631088304871	1
6	116	453.936791013321	1
6	117	459.56953031745	0
6	119	482.983475634209	0
6	120	507.493907687749	0
6	125	530.145033433278	0
6	127	530.361649910608	1
6	131	541.346973394775	1
6	133	542.575900281643	1
6	135	543.585408670861	2
6	139	554.284309119149	2
6	140	558.570771804971	1
6	142	573.497902724104	1
6	143	574.580712893785	1
6	145	584.020493069197	1
6	147	584.506172789282	2
6	148	586.025337200155	2
6	152	606.210934792888	1
6	154	608.57831931087	1
6	158	615.146454609255	1
6	163	619.018153786064	1
6	165	626.474758463015	2
6	167	627.706314360928	3
6	168	628.996757038666	3
6	169	635.485344889862	2
6	171	644.611031661344	2
6	172	649.052885434537	2
6	173	649.870734463904	1
6	174	650.527775172052	0
6	176	651.679438094651	0
6	181	661.304983628706	1
6	185	671.51448723423	1
6	186	673.03924747405	0
6	200	759.2161906267	0
6	201	760.870903132114	0
6	203	770.314084067084	0
6	204	776.932745613166	0
6	206	798.456467298955	0
6	210	803.832274117552	0
6	215	852.588835505732	0
6	216	852.78567607997	0
6	230	887.32056546102	0
6	231	887.459445920027	0
6	235	897.765540699165	0
6	240	912.481169139294	0
6	242	916.274754853656	0
6	243	916.428635361556	0
6	248	931.653037877099	0
6	249	932.327312236872	0
6	257	989.666511159173	0
6	258	989.77701277447	0
6	260	999.645339494413	0
6	261	1004.424263925016	0
6	272	1090.419454239947	0
6	273	1094.291156191083	0
6	275	1112.653127438867	0
6	276	1118.887135452979	0
6	286	1144.483513206269	0
6	288	1145.265205361344	0
6	292	1151.727558488378	0
6	295	1155.763665936555	1
6	296	1163.802956543925	1
6	306	1184.084762348771	0
6	311	1237.212924625113	0
6	312	1237.78139792569	0
6	314	1242.580179275315	0
6	316	1249.179163290159	1
6	318	1254.319617233705	2
6	322	1260.936649929264	2
6	323	1269.77572052783	1
6	325	1272.313468392898	1
6	326	1274.412744234414	1
6	330	1277.391177266082	1
6	332	1279.007824754455	2
6	334	1283.303210225511	3
6	339	1289.83955387689	3
6	347	1296.893130046661	3
6	357	1313.099499621487	4
6	359	1324.4168977183	4
6	360	1332.082639992355	3
6	361	1337.771959120121	2
6	362	1341.78338149643	1
6	367	1358.792769150488	1
6	369	1365.946239041703	2
6	370	1371.444710868175	2
6	371	1375.452629039566	1
6	372	1379.008521773206	0
6	377	1389.875029932745	0
6	378	1400.076422386055	0
6	383	1419.264388538131	0
6	385	1423.517625883383	1
6	387	1429.490126564861	2
6	388	1431.215060379322	2
6	389	1433.375723518618	1
6	390	1437.938325465084	0
6	398	1561.052007870126	0
6	400	1564.088305826684	1
6	401	1566.633073751466	1
6	403	1570.237404650926	1
6	404	1570.588494900821	1
6	406	1573.65786492103	1
6	407	1574.737657802254	1
6	408	1581.723740232333	0
6	412	1584.423470806476	0
6	414	1585.66284190392	0
6	418	1589.301787492501	0
6	420	1592.056853833111	0
6	422	1592.329291437967	0
6	423	1594.146376000771	0
6	425	1595.838414576598	0
6	426	1596.00414061572	0
6	428	1601.318353113865	0
6	429	1601.986345450842	0
6	431	1604.291122136983	0
6	432	1611.275429080714	0
6	440	1622.01036995763	0
6	441	1627.657673222738	0
6	455	1675.202700291272	0
6	456	1677.467702132401	0
6	458	1685.61778482558	0
6	459	1688.880548703657	0
6	461	1701.718451476362	0
6	462	1702.02281222773	0
6	464	1704.1453649777	0
6	465	1704.964801260109	0
6	467	1712.319916892135	0
6	468	1714.255610008218	0
6	476	1755.546147175063	0
6	477	1756.231482896227	0
6	479	1787.29435833153	0
6	481	1792.887547261209	1
6	482	1793.236121986105	1
6	483	1798.422572218973	0
6	485	1799.211700038714	0
6	489	1810.384855642183	0
6	491	1812.980309645616	0
6	493	1817.691749866348	1
6	495	1818.137554961165	2
6	499	1819.105628672842	2
6	501	1821.813396391638	2
6	502	1824.621767064915	2
6	504	1827.002241607193	2
6	505	1834.665435307418	2
6	506	1837.51121846339	1
6	507	1837.685772681953	0
6	512	1846.91314194571	0
6	513	1852.833542580924	0
6	533	1907.793653340478	0
6	535	1911.569266213486	1
6	537	1918.805856748999	2
6	538	1922.712673100385	2
6	539	1931.153070537007	1
6	541	1935.310996260919	1
6	542	1937.541858695647	1
6	543	1947.068338407727	0
6	545	1955.455053949159	0
6	553	1972.96669083906	1
6	554	1979.804895532872	1
6	555	1980.786387555748	0
6	560	1985.309684874745	0
6	561	1990.482494679669	0
6	563	2000.92437316367	0
6	564	2006.88669697861	0
6	569	2012.353453886381	0
6	570	2020.103430544066	0
6	572	2034.85481411325	0
6	573	2038.323124316396	0
6	578	2046.666371770565	0
6	579	2051.831719348371	0
6	584	2071.150115231788	0
6	588	2072.7950857854	1
6	590	2079.56803663981	1
6	592	2084.14261419494	1
6	593	2085.347085674884	1
6	594	2091.644664713919	0
6	596	2106.623911201761	0
6	597	2108.143837762257	0
6	602	2137.256340091079	0
6	604	2137.474504781787	1
6	605	2138.294878401068	1
6	607	2153.116898661496	1
6	608	2154.681536280319	1
6	609	2159.400662733013	0
6	620	2170.539841157252	0
6	621	2170.920487736913	0
6	623	2181.007633101662	0
6	627	2192.079930062063	0
6	638	2217.51219284984	0
6	640	2218.028080303521	1
6	641	2220.631843780244	1
6	645	2223.650234552202	1
6	647	2232.843842185688	1
6	649	2234.376151456474	1
6	650	2234.594202942334	1
6	652	2237.146682073598	1
6	653	2255.063256778531	1
6	655	2260.252053613848	1
6	656	2260.681835933654	1
6	657	2266.961312089948	0
6	671	2291.88899473292	0
6	678	2307.514145078733	0
6	698	2382.148613833656	0
6	699	2386.211040053293	0
6	704	2448.635742391973	0
6	708	2456.764493009071	0
6	710	2478.830599924705	0
6	711	2481.647585047658	0
6	713	2482.638452956555	0
6	714	2483.96720863073	0
6	716	2493.396696766099	0
6	717	2493.758510978887	0
6	719	2498.150480111202	0
6	720	2499.071042322204	0
7	107	435.052287492858	12.666089231913
7	113	448.938326461182	0
7	116	453.936791013321	0.30570270845
7	119	482.983475634209	0
7	125	530.145033433278	0
7	130	531.46966683577	1.108016925162
7	131	541.346973394775	10.791841535209
7	138	545.763787696091	3.187887414448
7	139	554.284309119149	10.698900448288
7	140	558.570771804971	13.197646719986
7	143	574.580712893785	1.082810169681
7	148	586.025337200155	2.004844130958
7	151	599.394688327178	14.888515537896
7	152	606.210934792888	16.854845358628
7	157	612.619078423632	4.040759112762
7	158	615.146454609255	4.855239969632
7	161	617.735581056979	1.934672629526
7	168	628.996757038666	9.978603252602
7	169	635.485344889862	9.010586426847
7	172	649.052885434537	21.346571073609
7	173	649.870734463904	5.25970280256
7	176	651.679438094651	0
7	179	657.386440275449	4.724305274338
7	184	665.402468995443	4.097485366737
7	185	671.51448723423	8.516811957489
7	200	759.2161906267	0
7	203	770.314084067084	0
7	206	798.456467298955	0
7	209	799.765793772249	0.132933763097
7	215	852.588835505732	0
7	230	887.32056546102	0
7	236	898.704898077455	0.93935737829
7	239	903.545037272419	2.76784399622
7	242	916.274754853656	0
7	248	931.653037877099	0
7	257	989.666511159173	0
7	260	999.645339494413	0
7	272	1090.419454239947	0
7	275	1112.653127438867	0
7	287	1144.861722018253	0.378208811984
7	293	1152.213187942295	0.485629453917
7	296	1163.802956543925	8.03929060737
7	302	1169.558560133915	5.563418145623
7	305	1176.102453479391	0.920417984928
7	311	1237.212924625113	0
7	314	1242.580179275315	0
7	321	1260.353965600902	11.174802310743
7	322	1260.936649929264	6.617032695559
7	323	1269.77572052783	12.014433122429
7	326	1274.412744234414	2.099275841516
7	338	1288.917562594481	11.778239032035
7	339	1289.83955387689	12.448376610808
7	353	1307.046762144246	28.038937389791
7	358	1317.863254070459	34.560043844948
7	359	1324.4168977183	33.870079121475
7	360	1332.082639992355	35.189509945694
7	361	1337.771959120121	28.308242976547
7	362	1341.78338149643	28.683881874943
7	365	1352.558078113173	5.0440054664
7	370	1371.444710868175	12.651941717687
7	371	1375.452629039566	9.506389997863
7	377	1389.875029932745	0
7	383	1419.264388538131	0
7	388	1431.215060379322	7.697434495939
7	389	1433.375723518618	3.885596953757
7	398	1561.052007870126	0
7	401	1566.633073751466	2.544767924782
7	404	1570.588494900821	0.351090249895
7	407	1574.737657802254	1.079792881224
7	413	1585.323169655537	0.899698849061
7	419	1591.520494899423	2.218707406922
7	422	1592.329291437967	0
7	425	1595.838414576598	0
7	428	1601.318353113865	0
7	431	1604.291122136983	0
7	440	1622.01036995763	0
7	455	1675.202700291272	0
7	458	1685.61778482558	0
7	461	1701.718451476362	0
7	464	1704.1453649777	0
7	467	1712.319916892135	0
7	476	1755.546147175063	0
7	479	1787.29435833153	0
7	482	1793.236121986105	0.348574724896
7	485	1799.211700038714	0
7	488	1800.653497538987	1.247574137047
7	491	1812.980309645616	0
7	498	1818.738640159154	1.046890292806
7	499	1819.105628672842	0.968073711677
7	502	1824.621767064915	6.126900209413
7	505	1834.665435307418	12.85203891578
7	506	1837.51121846339	10.508976856197
7	512	1846.91314194571	0
7	533	1907.793653340478	0
7	538	1922.712673100385	11.143406886899
7	539	1931.153070537007	12.347213788008
7	542	1937.541858695647	2.230862434728
7	545	1955.455053949159	0
7	551	1967.856304718923	11.58643349102
7	554	1979.804895532872	6.838204693812
7	560	1985.309684874745	0
7	563	2000.92437316367	0
7	569	2012.353453886381	0
7	572	2034.85481411325	0
7	578	2046.666371770565	0
7	584	2071.150115231788	0
7	589	2073.301184919026	0.861245847116
7	590	2079.56803663981	6.77295085441
7	593	2085.347085674884	1.204471479944
7	596	2106.623911201761	0
7	602	2137.256340091079	0
7	605	2138.294878401068	0.820373619281
7	608	2154.681536280319	1.564637618823
7	620	2170.539841157252	0
7	623	2181.007633101662	0
7	626	2186.381604402649	1.912486380793
7	638	2217.51219284984	0
7	641	2220.631843780244	2.603763476723
7	646	2231.85642807794	10.718589763165
7	647	2232.843842185688	9.193607633486
7	650	2234.594202942334	0.21805148586
7	653	2255.063256778531	17.916574704933
7	656	2260.681835933654	0.429782319806
7	671	2291.88899473292	0
7	677	2303.620702805698	6.913860303167
7	698	2382.148613833656	0
7	704	2448.635742391973	0
7	707	2455.909834038964	0.156118816124
7	710	2478.830599924705	0
7	713	2482.638452956555	0
7	716	2493.396696766099	0
7	719	2498.150480111202	0
8	108	435.810754536728	19
8	116	453.936791013321	20
8	117	459.56953031745	21
8	120	507.493907687749	22
8	131	541.346973394775	23
8	139	554.284309119149	24
8	140	558.570771804971	25
8	143	574.580712893785	26
8	148	586.025337200155	27
8	152	606.210934792888	28
8	158	615.146454609255	29
8	168	628.996757038666	30
8	169	635.485344889862	31
8	172	649.052885434537	32
8	173	649.870734463904	33
8	174	650.527775172052	34
8	185	671.51448723423	35
8	186	673.03924747405	36
8	201	760.870903132114	37
8	204	776.932745613166	38
8	210	803.832274117552	39
8	216	852.78567607997	40
8	231	887.459445920027	41
8	240	912.481169139294	42
8	243	916.428635361556	43
8	249	932.327312236872	44
8	258	989.77701277447	45
8	261	1004.424263925016	46
8	273	1094.291156191083	47
8	276	1118.887135452979	48
8	288	1145.265205361344	49
8	296	1163.802956543925	50
8	306	1184.084762348771	51
8	312	1237.78139792569	52
8	322	1260.936649929264	53
8	323	1269.77572052783	54
8	326	1274.412744234414	55
8	339	1289.83955387689	56
8	359	1324.4168977183	57
8	360	1332.082639992355	58
8	361	1337.771959120121	59
8	362	1341.78338149643	60
8	370	1371.444710868175	61
8	371	1375.452629039566	62
8	372	1379.008521773206	63
8	378	1400.076422386055	64
8	388	1431.215060379322	65
8	389	1433.375723518618	66
8	390	1437.938325465084	67
8	401	1566.633073751466	68
8	404	1570.588494900821	69
8	407	1574.737657802254	70
8	408	1581.723740232333	71
8	414	1585.66284190392	72
8	420	1592.056853833111	73
8	423	1594.146376000771	74
8	426	1596.00414061572	75
8	429	1601.986345450842	76
8	432	1611.275429080714	77
8	441	1627.657673222738	78
8	456	1677.467702132401	79
8	459	1688.880548703657	80
8	462	1702.02281222773	81
8	465	1704.964801260109	82
8	468	1714.255610008218	83
8	477	1756.231482896227	84
8	482	1793.236121986105	85
8	483	1798.422572218973	86
8	489	1810.384855642183	87
8	499	1819.105628672842	88
8	502	1824.621767064915	89
8	505	1834.665435307418	90
8	506	1837.51121846339	91
8	507	1837.685772681953	92
8	513	1852.833542580924	93
8	538	1922.712673100385	94
8	539	1931.153070537007	95
8	542	1937.541858695647	96
8	543	1947.068338407727	97
8	554	1979.804895532872	98
8	555	1980.786387555748	99
8	561	1990.482494679669	100
8	564	2006.88669697861	101
8	570	2020.103430544066	102
8	573	2038.323124316396	103
8	579	2051.831719348371	104
8	590	2079.56803663981	105
8	593	2085.347085674884	106
8	594	2091.644664713919	107
8	597	2108.143837762257	108
8	605	2138.294878401068	109
8	608	2154.681536280319	110
8	609	2159.400662733013	111
8	621	2170.920487736913	112
8	627	2192.079930062063	113
8	641	2220.631843780244	114
8	647	2232.843842185688	115
8	650	2234.594202942334	116
8	653	2255.063256778531	117
8	656	2260.681835933654	118
8	657	2266.961312089948	119
8	678	2307.514145078733	120
8	699	2386.211040053293	121
8	708	2456.764493009071	122
8	711	2481.647585047658	123
8	714	2483.96720863073	124
8	717	2493.758510978887	125
8	720	2499.071042322204	126
9	108	435.810754536728	13.424556275783
9	116	453.936791013321	4.998464552139
9	117	459.56953031745	5.938442012579
9	120	507.493907687749	24.51043205354
9	131	541.346973394775	10.985323484167
9	139	554.284309119149	11.708408837506
9	140	558.570771804971	14.98536313411
9	143	574.580712893785	29.2075878088
9	148	586.025337200155	12.527434476051
9	152	606.210934792888	21.704762003606
9	158	615.146454609255	6.568135298385
9	168	628.996757038666	13.195848611213
9	169	635.485344889862	16.467191103798
9	172	649.052885434537	22.578126971522
9	173	649.870734463904	22.164420102976
9	174	650.527775172052	5.916743510708
9	185	671.51448723423	10.209503605524
9	186	673.03924747405	10.041572197309
9	201	760.870903132114	1.654712505414
9	204	776.932745613166	6.618661546082
9	210	803.832274117552	4.1994141084
9	216	852.78567607997	0.196840574238
9	231	887.459445920027	0.138880459007
9	240	912.481169139294	11.703975863095
9	243	916.428635361556	0.1538805079
9	249	932.327312236872	0.674274359773
9	258	989.77701277447	0.110501615297
9	261	1004.424263925016	4.778924430603
9	273	1094.291156191083	3.871701951136
9	276	1118.887135452979	6.234008014112
9	288	1145.265205361344	0.781692155075
9	296	1163.802956543925	12.075398055547
9	306	1184.084762348771	8.902726854308
9	312	1237.78139792569	0.568473300577
9	322	1260.936649929264	11.757486639105
9	323	1269.77572052783	15.456103294125
9	326	1274.412744234414	16.651456829013
9	339	1289.83955387689	12.700230314444
9	359	1324.4168977183	41.113687492789
9	360	1332.082639992355	41.53582139553
9	361	1337.771959120121	40.87882907346
9	362	1341.78338149643	32.319665352856
9	370	1371.444710868175	23.930638221402
9	371	1375.452629039566	16.659859889078
9	372	1379.008521773206	13.062282731503
9	378	1400.076422386055	10.20139245331
9	388	1431.215060379322	11.950671841191
9	389	1433.375723518618	9.858097635235
9	390	1437.938325465084	8.448198900223
9	401	1566.633073751466	5.58106588134
9	404	1570.588494900821	6.500189074137
9	407	1574.737657802254	4.500253151328
9	408	1581.723740232333	8.065875311303
9	414	1585.66284190392	1.239371097444
9	420	1592.056853833111	2.75506634061
9	423	1594.146376000771	1.817084562804
9	426	1596.00414061572	0.165726039122
9	429	1601.986345450842	0.667992336977
9	432	1611.275429080714	6.984306943731
9	441	1627.657673222738	5.647303265108
9	456	1677.467702132401	2.265001841129
9	459	1688.880548703657	3.262763878077
9	462	1702.02281222773	0.304360751368
9	465	1704.964801260109	0.819436282409
9	468	1714.255610008218	1.935693116083
9	477	1756.231482896227	0.685335721164
9	482	1793.236121986105	5.941763654575
9	483	1798.422572218973	5.535024957764
9	489	1810.384855642183	10.978932240243
9	499	1819.105628672842	1.413878806494
9	502	1824.621767064915	6.48421210375
9	505	1834.665435307418	16.170568451916
9	506	1837.51121846339	15.697822071752
9	507	1837.685772681953	10.68353107476
9	513	1852.833542580924	5.920400635214
9	538	1922.712673100385	14.919019759907
9	539	1931.153070537007	19.583804323521
9	542	1937.541858695647	18.736001946648
9	543	1947.068338407727	11.757342146808
9	554	1979.804895532872	23.535024304969
9	555	1980.786387555748	7.819696716688
9	561	1990.482494679669	5.172809804924
9	564	2006.88669697861	5.96232381494
9	570	2020.103430544066	7.749976657685
9	573	2038.323124316396	3.468310203146
9	579	2051.831719348371	5.165347577806
9	590	2079.56803663981	7.1280975679
9	593	2085.347085674884	12.551999889484
9	594	2091.644664713919	7.502050518979
9	597	2108.143837762257	1.519926560496
9	605	2138.294878401068	1.038538309989
9	608	2154.681536280319	17.207031498532
9	609	2159.400662733013	6.283764071517
9	621	2170.920487736913	0.380646579661
9	627	2192.079930062063	7.610812040207
9	641	2220.631843780244	3.119650930404
9	647	2232.843842185688	11.706003870913
9	650	2234.594202942334	10.943968390132
9	653	2255.063256778531	20.687105322057
9	656	2260.681835933654	23.535153860056
9	657	2266.961312089948	6.7092584761
9	678	2307.514145078733	10.807302576202
9	699	2386.211040053293	4.062426219637
9	708	2456.764493009071	1.010777786231
9	711	2481.647585047658	2.816985122953
9	714	2483.96720863073	1.328755674175
9	717	2493.758510978887	0.361814212788
9	720	2499.071042322204	0.920562211002
10	129	530.555131859566	4
10	137	545.373125084985	5
10	150	589.35608943426	6
10	156	610.291214639623	7
10	160	615.800908427453	8
10	178	652.662135001111	9
10	183	662.997675276741	10
10	208	799.632860009152	11
10	238	900.777193276199	12
10	298	1163.995141988292	13
10	304	1175.182035494463	14
10	320	1257.761287405401	15
10	328	1277.139323562446	16
10	341	1290.546818596825	17
10	355	1309.463716143574	18
10	364	1347.514072646773	19
10	487	1799.40592340194	20
10	497	1818.494866855502	21
10	547	1956.269871227903	22
10	586	2072.43993907191	23
10	625	2184.469118021856	24
10	643	2221.137838314775	25
10	673	2296.706842502531	26
10	706	2455.75371522284	27
11	721	2500	0.0504
12	721	2500	0.0456

