file 39674 1677866525                                           
version 2
run factors_calibration_minions-31-20230303-19:02:05-26009
attr configname factors_calibration_minions
attr datetime 20230303-19:02:05
attr experiment factors_calibration_minions
attr inifile omnetpp.ini
attr iterationvars $0=2
attr iterationvarsf 2-
attr measurement $0=2
attr network Network
attr processid 26009
attr repetition 1
attr replication #1
attr resultdir results
attr runnumber 31
attr seedset 1
param *.minion.arrival_mean 20
param *.minion.service_mean 2
param *.boss.arrival_mean 20
param *.boss.service_mean 3
param *.player.recover_rate_x 100
param **.minion.arrival_distribution 0
param **.minion.service_distribution 0
param **.boss.arrival_distribution 0
param **.boss.service_distribution 0

vector 0 Network.player boss_jobs_number_stat:vector ETV
attr source signal_boss_jobs_number
vector 1 Network.player boss_jobs_queue_number_stat:vector ETV
attr source signal_boss_jobs_queue_number
vector 2 Network.player boss_waiting_time_stat:vector ETV
attr source signal_boss_waiting_time
vector 3 Network.player boss_defeated_stat:vector ETV
attr source signal_boss_defeated
vector 4 Network.player boss_response_time_stat:vector ETV
attr source signal_boss_response_time
vector 5 Network.player minion_jobs_number_stat:vector ETV
attr source signal_minion_jobs_number
vector 6 Network.player minion_jobs_queue_number_stat:vector ETV
attr source signal_minion_jobs_queue_number
vector 7 Network.player minion_waiting_time_stat:vector ETV
attr source signal_minion_waiting_time
vector 8 Network.player minion_recovered_stat:vector ETV
attr source signal_minion_recovered
vector 9 Network.player minion_defeated_stat:vector ETV
attr source signal_minion_defeated
vector 10 Network.player minion_response_time_stat:vector ETV
attr source signal_minion_response_time
vector 11 Network.player minion_throughput:vector ETV
attr source signal_minion_throughput
vector 12 Network.player boss_throughput:vector ETV
attr source signal_boss_throughput
0	1970 2562 92 731 369.375255317272 2496.852317827315 100 1 2 105 115
1	4532 5102 92 731 369.375255317272 2496.852317827315 199 0 1 10 10
2	9634 2628 92 731 369.375255317272 2496.852317827315 100 0 11.133145180613 21.258990620029 167.71665480761
3	12262 2657 93 726 371.453991932918 2482.850411278459 99 19 117 6732 538626
4	14919 3823 93 726 371.453991932918 2482.850411278459 99 0.004283694835 18.240065614148 297.07536693109 1785.8536934138
5	18742 2921 98 728 413.522371152632 2483.41390848375 114 1 3 138 196
6	21663 5845 98 729 413.522371152632 2483.848059936135 228 0 2 48 68
7	27508 4018 98 728 413.522371152632 2483.41390848375 134 0 14.712340576054 151.90290854625 919.55978747929
8	31526 526 100 709 415.788676091801 2418.968326914021 20 3 22 250 3790
9	32052 3065 106 729 420.335256455224 2483.848059936135 114 13 126 7923 674101
10	35117 4518 106 729 420.335256455224 2483.848059936135 114 0.003287039937 16.970832491268 348.38714644741 2154.7595616812
11	39635 19 732 732 2500 2500 1 0.0504 0.0504 0.0504 0.00254016
12	39654 19 732 732 2500 2500 1 0.0468 0.0468 0.0468 0.00219024

