version 2
run factors_calibration_minions-213-20230303-19:02:42-26925
attr configname factors_calibration_minions
attr datetime 20230303-19:02:42
attr experiment factors_calibration_minions
attr inifile omnetpp.ini
attr iterationvars $0=15
attr iterationvarsf 15-
attr measurement $0=15
attr network Network
attr processid 26925
attr repetition 3
attr replication #3
attr resultdir results
attr runnumber 213
attr seedset 3
param *.minion.arrival_mean 20
param *.minion.service_mean 15
param *.boss.arrival_mean 20
param *.boss.service_mean 3
param *.player.recover_rate_x 100
param **.minion.arrival_distribution 0
param **.minion.service_distribution 0
param **.boss.arrival_distribution 0
param **.boss.service_distribution 0

vector 0 Network.player boss_defeated_stat:vector ETV
attr source signal_boss_defeated
vector 1 Network.player boss_jobs_queue_number_stat:vector ETV
attr source signal_boss_jobs_queue_number
vector 2 Network.player boss_response_time_stat:vector ETV
attr source signal_boss_response_time
vector 3 Network.player minion_waiting_time_stat:vector ETV
attr source signal_minion_waiting_time
vector 4 Network.player minion_jobs_number_stat:vector ETV
attr source signal_minion_jobs_number
vector 5 Network.player minion_jobs_queue_number_stat:vector ETV
attr source signal_minion_jobs_queue_number
vector 6 Network.player minion_defeated_stat:vector ETV
attr source signal_minion_defeated
vector 7 Network.player minion_response_time_stat:vector ETV
attr source signal_minion_response_time
vector 8 Network.player boss_jobs_number_stat:vector ETV
attr source signal_boss_jobs_number
vector 9 Network.player minion_recovered_stat:vector ETV
attr source signal_minion_recovered
vector 10 Network.player boss_waiting_time_stat:vector ETV
attr source signal_boss_waiting_time
vector 11 Network.player minion_throughput:vector ETV
attr source signal_minion_throughput
vector 12 Network.player boss_throughput:vector ETV
attr source signal_boss_throughput
0	109	353.989102091388	20
0	118	388.149072056822	21
0	121	396.070800125319	22
0	126	405.270616400454	23
0	129	412.128925544153	24
0	132	429.314817081488	25
0	141	495.742314345848	26
0	144	501.765687660453	27
0	145	514.255769938515	28
0	148	524.044255798417	29
0	151	525.696968027872	30
0	154	529.474714891932	31
0	159	541.121687338976	32
0	168	590.221278449553	33
0	171	601.816384737317	34
0	174	607.664124603623	35
0	196	706.9602553639	36
0	201	730.531014723555	37
0	204	735.921065484348	38
0	212	765.025069344128	39
0	225	840.216563913676	40
0	246	899.336836141557	41
0	247	904.538950422257	42
0	248	905.93835756095	43
0	249	906.838246675521	44
0	250	911.125981001237	45
0	260	927.792355267178	46
0	265	942.325895291188	47
0	273	1000.799537713384	48
0	283	1015.399354416874	49
0	288	1029.505142883848	50
0	293	1043.206387743148	51
0	294	1043.982767428002	52
0	300	1061.038867314104	53
0	303	1065.142115726831	54
0	310	1086.4713207471	55
0	313	1092.02900559789	56
0	318	1095.230114787088	57
0	324	1121.509883242591	58
0	327	1130.215035623745	59
0	332	1135.54181997689	60
0	344	1176.400921553012	61
0	362	1257.900163100545	62
0	367	1260.660924860756	63
0	368	1263.359650943159	64
0	382	1289.628800670313	65
0	383	1294.791351127446	66
0	384	1296.150572612228	67
0	391	1343.063106019783	68
0	399	1366.447079736056	69
0	406	1409.178775050466	70
0	411	1436.736223392999	71
0	412	1441.993949115455	72
0	415	1447.463542565465	73
0	421	1473.253771939874	74
0	437	1566.322750561011	75
0	440	1589.380155684514	76
0	445	1601.715997364167	77
0	464	1682.638985080095	78
0	470	1687.983431138073	79
0	476	1713.246929523574	80
0	480	1716.594532702097	81
0	483	1723.828107222589	82
0	489	1745.823451811206	83
0	495	1783.41117166057	84
0	498	1788.539663652043	85
0	505	1799.966006757196	86
0	506	1803.53501168883	87
0	507	1804.072384312642	88
0	510	1806.855128327592	89
0	526	1919.905636190701	90
0	549	2054.585491989703	91
0	559	2079.228464035809	92
0	562	2082.526433264525	93
0	567	2113.262416786805	94
0	570	2121.169925092795	95
0	578	2143.617753064901	96
0	594	2172.365139504149	97
0	597	2177.709815185814	98
0	608	2236.53372395768	99
0	615	2261.144307731403	100
0	628	2275.860187237594	101
0	629	2277.106739085835	102
0	632	2278.307123924585	103
0	635	2286.444564721183	104
0	639	2289.214034594932	105
0	647	2297.92225682287	106
0	650	2301.696415191723	107
0	659	2313.963648939732	108
0	681	2422.318615134034	109
0	690	2453.832944970379	110
0	695	2458.25551792281	111
0	696	2459.494560392133	112
0	699	2464.202321581133	113
1	109	353.989102091388	0
1	117	380.659473743649	0
1	118	388.149072056822	0
1	120	395.971694417465	0
1	121	396.070800125319	0
1	125	404.35044228479	0
1	126	405.270616400454	0
1	128	410.037356174797	0
1	129	412.128925544153	0
1	131	425.519679098172	0
1	132	429.314817081488	0
1	138	493.340900375065	0
1	140	493.458722537011	1
1	141	495.742314345848	1
1	143	496.742594609582	1
1	144	501.765687660453	1
1	145	514.255769938515	0
1	147	519.107824800269	0
1	148	524.044255798417	0
1	150	524.050395342014	0
1	151	525.696968027872	0
1	153	528.76545634016	0
1	154	529.474714891932	0
1	156	535.742612840699	0
1	159	541.121687338976	0
1	167	589.672238161967	0
1	168	590.221278449553	0
1	170	598.144708626378	0
1	171	601.816384737317	0
1	173	607.520627601297	0
1	174	607.664124603623	0
1	195	702.49001005566	0
1	196	706.9602553639	0
1	200	730.410353463151	0
1	201	730.531014723555	0
1	203	735.549137058382	0
1	204	735.921065484348	0
1	211	764.354773011734	0
1	212	765.025069344128	0
1	224	838.86047744023	0
1	225	840.216563913676	0
1	235	879.741882111558	0
1	237	882.113317559985	1
1	239	884.446492488943	2
1	241	888.24560307094	3
1	243	895.381730109802	4
1	246	899.336836141557	4
1	247	904.538950422257	3
1	248	905.93835756095	2
1	249	906.838246675521	1
1	250	911.125981001237	0
1	259	927.517978306195	0
1	260	927.792355267178	0
1	264	940.401529101434	0
1	265	942.325895291188	0
1	272	990.909014986853	0
1	273	1000.799537713384	0
1	282	1013.261047276616	0
1	283	1015.399354416874	0
1	287	1028.545887104851	0
1	288	1029.505142883848	0
1	290	1034.503025313914	0
1	292	1036.534772003394	1
1	293	1043.206387743148	1
1	294	1043.982767428002	0
1	299	1060.691130510771	0
1	300	1061.038867314104	0
1	302	1063.19383248497	0
1	303	1065.142115726831	0
1	309	1084.594332712561	0
1	310	1086.4713207471	0
1	312	1090.754167319039	0
1	313	1092.02900559789	0
1	317	1094.772215871149	0
1	318	1095.230114787088	0
1	323	1120.122180825996	0
1	324	1121.509883242591	0
1	326	1127.896198946203	0
1	327	1130.215035623745	0
1	329	1131.632484755457	0
1	332	1135.54181997689	0
1	343	1175.335185131008	0
1	344	1176.400921553012	0
1	361	1256.60543472736	0
1	362	1257.900163100545	0
1	364	1258.346007673972	0
1	366	1258.889412571991	1
1	367	1260.660924860756	1
1	368	1263.359650943159	0
1	377	1286.342301461403	0
1	379	1286.57494181929	1
1	381	1287.862513521532	2
1	382	1289.628800670313	2
1	383	1294.791351127446	1
1	384	1296.150572612228	0
1	390	1337.223720075614	0
1	391	1343.063106019783	0
1	398	1363.520401318974	0
1	399	1366.447079736056	0
1	405	1406.512882744487	0
1	406	1409.178775050466	0
1	408	1433.648475926042	0
1	410	1435.347326120521	1
1	411	1436.736223392999	1
1	412	1441.993949115455	0
1	414	1445.829455077947	0
1	415	1447.463542565465	0
1	420	1469.693661528508	0
1	421	1473.253771939874	0
1	436	1564.774017558306	0
1	437	1566.322750561011	0
1	439	1588.196429206383	0
1	440	1589.380155684514	0
1	444	1600.231040489507	0
1	445	1601.715997364167	0
1	463	1682.208424127058	0
1	464	1682.638985080095	0
1	469	1686.419845939918	0
1	470	1687.983431138073	0
1	475	1707.679710106683	0
1	476	1713.246929523574	0
1	479	1716.345476470025	0
1	480	1716.594532702097	0
1	482	1720.55581185757	0
1	483	1723.828107222589	0
1	488	1745.64792178764	0
1	489	1745.823451811206	0
1	494	1779.449199170603	0
1	495	1783.41117166057	0
1	497	1788.294956596051	0
1	498	1788.539663652043	0
1	500	1797.29918631301	0
1	502	1798.359156213276	1
1	504	1799.172771781991	2
1	505	1799.966006757196	2
1	506	1803.53501168883	1
1	507	1804.072384312642	0
1	509	1806.766350733902	0
1	510	1806.855128327592	0
1	525	1917.923427135827	0
1	526	1919.905636190701	0
1	548	2052.509094390919	0
1	549	2054.585491989703	0
1	558	2075.308674587472	0
1	559	2079.228464035809	0
1	561	2082.099549429316	0
1	562	2082.526433264525	0
1	566	2108.685862315649	0
1	567	2113.262416786805	0
1	569	2121.076209533676	0
1	570	2121.169925092795	0
1	577	2142.723683495446	0
1	578	2143.617753064901	0
1	593	2169.304437475917	0
1	594	2172.365139504149	0
1	596	2177.228225124877	0
1	597	2177.709815185814	0
1	607	2234.76196218177	0
1	608	2236.53372395768	0
1	614	2260.983183628547	0
1	615	2261.144307731403	0
1	617	2264.84038493309	0
1	619	2268.90144810621	1
1	627	2273.677289607649	2
1	628	2275.860187237594	2
1	629	2277.106739085835	1
1	632	2278.307123924585	0
1	634	2285.719432706355	0
1	635	2286.444564721183	0
1	638	2288.561711981572	0
1	639	2289.214034594932	0
1	644	2293.558850252091	0
1	647	2297.92225682287	0
1	649	2298.239937262922	0
1	650	2301.696415191723	0
1	656	2312.094400186417	0
1	659	2313.963648939732	0
1	680	2421.021190455418	0
1	681	2422.318615134034	0
1	687	2446.030079873069	0
1	689	2451.694476261001	1
1	690	2453.832944970379	1
1	692	2455.678417661446	1
1	694	2458.010288498061	2
1	695	2458.25551792281	2
1	696	2459.494560392133	1
1	699	2464.202321581133	0
2	109	353.989102091388	6.177257082791
2	118	388.149072056822	7.489598313173
2	121	396.070800125319	0.099105707854
2	126	405.270616400454	0.920174115664
2	129	412.128925544153	2.091569369356
2	132	429.314817081488	3.795137983316
2	141	495.742314345848	2.401413970783
2	144	501.765687660453	8.306965123442
2	145	514.255769938515	17.513175328933
2	148	524.044255798417	4.936430998148
2	151	525.696968027872	1.646572685858
2	154	529.474714891932	0.709258551772
2	159	541.121687338976	5.379074498277
2	168	590.221278449553	0.549040287586
2	171	601.816384737317	3.671676110939
2	174	607.664124603623	0.143497002326
2	196	706.9602553639	4.47024530824
2	201	730.531014723555	0.120661260404
2	204	735.921065484348	0.371928425966
2	212	765.025069344128	0.670296332394
2	225	840.216563913676	1.356086473446
2	246	899.336836141557	19.594954029999
2	247	904.538950422257	22.425632862272
2	248	905.93835756095	21.491865072007
2	249	906.838246675521	18.592643604581
2	250	911.125981001237	15.744250891435
2	260	927.792355267178	0.274376960983
2	265	942.325895291188	1.924366189754
2	273	1000.799537713384	9.890522726531
2	283	1015.399354416874	2.138307140258
2	288	1029.505142883848	0.959255778997
2	293	1043.206387743148	8.703362429234
2	294	1043.982767428002	7.447995424608
2	300	1061.038867314104	0.347736803333
2	303	1065.142115726831	1.948283241861
2	310	1086.4713207471	1.876988034539
2	313	1092.02900559789	1.274838278851
2	318	1095.230114787088	0.457898915939
2	324	1121.509883242591	1.387702416595
2	327	1130.215035623745	2.318836677542
2	332	1135.54181997689	3.909335221433
2	344	1176.400921553012	1.065736422004
2	362	1257.900163100545	1.294728373185
2	367	1260.660924860756	2.314917186784
2	368	1263.359650943159	4.470238371168
2	382	1289.628800670313	3.28649920891
2	383	1294.791351127446	8.216409308156
2	384	1296.150572612228	8.288059090696
2	391	1343.063106019783	5.839385944169
2	399	1366.447079736056	2.926678417082
2	406	1409.178775050466	2.665892305979
2	411	1436.736223392999	3.087747466957
2	412	1441.993949115455	6.646622994934
2	415	1447.463542565465	1.634087487518
2	421	1473.253771939874	3.560110411366
2	437	1566.322750561011	1.548733002705
2	440	1589.380155684514	1.183726478131
2	445	1601.715997364167	1.48495687466
2	464	1682.638985080095	0.430560953037
2	470	1687.983431138073	1.563585198155
2	476	1713.246929523574	5.567219416891
2	480	1716.594532702097	0.249056232072
2	483	1723.828107222589	3.272295365019
2	489	1745.823451811206	0.175530023566
2	495	1783.41117166057	3.961972489967
2	498	1788.539663652043	0.244707055992
2	505	1799.966006757196	2.666820444186
2	506	1803.53501168883	5.175855475554
2	507	1804.072384312642	4.899612530651
2	510	1806.855128327592	0.08877759369
2	526	1919.905636190701	1.982209054874
2	549	2054.585491989703	2.076397598784
2	559	2079.228464035809	3.919789448337
2	562	2082.526433264525	0.426883835209
2	567	2113.262416786805	4.576554471156
2	570	2121.169925092795	0.093715559119
2	578	2143.617753064901	0.894069569455
2	594	2172.365139504149	3.060702028232
2	597	2177.709815185814	0.481590060937
2	608	2236.53372395768	1.77176177591
2	615	2261.144307731403	0.161124102856
2	628	2275.860187237594	11.019802304504
2	629	2277.106739085835	8.205290979625
2	632	2278.307123924585	4.629834316936
2	635	2286.444564721183	0.725132014828
2	639	2289.214034594932	0.65232261336
2	647	2297.92225682287	4.363406570779
2	650	2301.696415191723	3.456477928801
2	659	2313.963648939732	1.869248753315
2	681	2422.318615134034	1.297424678616
2	690	2453.832944970379	7.80286509731
2	695	2458.25551792281	6.561041661809
2	696	2459.494560392133	3.816142730687
2	699	2464.202321581133	6.192033083072
3	109	353.989102091388	81.757890509242
3	112	358.242840793443	78.348774045424
3	115	378.842945036523	89.893977144122
3	118	388.149072056822	83.70428343019
3	121	396.070800125319	85.398740224023
3	126	405.270616400454	85.338133450523
3	129	412.128925544153	87.195011548489
3	132	429.314817081488	92.753559240061
3	133	436.681215499512	97.168294240998
3	134	455.88421164466	108.07236663606
3	145	514.255769938515	165.41195355818
3	148	524.044255798417	168.5237313538
3	151	525.696968027872	147.63635754748
3	154	529.474714891932	148.81524114828
3	159	541.121687338976	145.14999292151
3	162	583.767121803153	187.0742012045
3	165	589.084057037559	184.73361475277
3	168	590.221278449553	180.18392227476
3	171	601.816384737317	176.29670563914
3	174	607.664124603623	128.70413548798
3	181	643.059045197495	149.71814482243
3	186	659.72195236476	140.61412756449
3	187	662.190127865383	138.13973252337
3	188	662.725032769522	133.95957642936
3	191	678.412949422366	142.67033658167
3	192	683.39951400313	146.71088552889
3	193	684.303926903211	134.47782813806
3	196	706.9602553639	118.8236513623
3	201	730.531014723555	140.85877656159
3	204	735.921065484348	137.77635685797
3	207	754.317526092983	146.79689849169
3	212	765.025069344128	128.15725717642
3	213	774.593375837186	137.68032776908
3	214	781.592015135451	140.46759951019
3	217	791.899650824947	136.04470189557
3	218	808.984039569027	149.92632889813
3	219	817.850107543268	142.73147580394
3	220	822.291466332263	119.8014562766
3	221	824.068172199573	101.38884521037
3	222	835.411886958364	105.00153349521
3	225	840.216563913676	104.66742685529
3	226	848.814549680229	112.84879282784
3	231	855.220578866541	96.193976589477
3	250	911.125981001237	146.7712079895
3	255	916.293503006512	128.03497448655
3	256	916.435363228519	77.574885788289
3	257	925.619352537172	74.08786983336
3	260	927.792355267178	72.756731965992
3	261	934.447660619808	67.234044484374
3	262	937.430036960671	57.688154849113
3	265	942.325895291188	46.186257360341
3	270	986.992566009776	74.290025918116
3	273	1000.799537713384	87.676410148206
3	274	1004.486108705135	76.96813039894
3	283	1015.399354416874	74.99782531544
3	288	1029.505142883848	84.066316643794
3	294	1043.982767428002	95.638565655036
3	297	1049.754284850855	58.845269864002
3	300	1061.038867314104	55.338164813869
3	303	1065.142115726831	56.96927096096
3	310	1086.4713207471	73.242927314955
3	313	1092.02900559789	78.767958321274
3	318	1095.230114787088	74.583416224129
3	319	1095.716469961294	67.170582856443
3	324	1121.509883242591	87.006857928677
3	327	1130.215035623745	85.291929443672
3	332	1135.54181997689	74.850689466119
3	333	1147.511484866292	84.317652381322
3	336	1158.706456788743	91.521864515919
3	339	1159.715944311896	78.670604784995
3	344	1176.400921553012	91.806588840451
3	349	1203.777504680534	113.02333736149
3	350	1211.379250116766	117.58988432864
3	357	1226.286103423008	131.51388755186
3	358	1233.9688136358	135.64994787521
3	359	1239.080121153487	118.95794032749
3	362	1257.900163100545	130.00396415434
3	368	1263.359650943159	131.7271661877
3	375	1277.912635207407	145.71907728451
3	384	1296.150572612228	144.1062874104
3	385	1296.964826873919	138.08237187424
3	386	1297.096135877596	135.09700193114
3	387	1320.340354990238	145.00516985923
3	388	1324.002027564084	135.58332246591
3	391	1343.063106019783	153.55630088046
3	394	1354.256384931948	140.49453147708
3	399	1366.447079736056	149.09388657594
3	400	1369.734943073374	144.44462041208
3	401	1370.91600499815	114.31057027079
3	406	1409.178775050466	150.83276737649
3	412	1441.993949115455	176.4714719765
3	415	1447.463542565465	173.79229841143
3	418	1463.490114886252	189.05592824271
3	421	1473.253771939874	186.91147047847
3	422	1502.015130474118	164.7914103985
3	423	1514.11555878919	163.29424712762
3	426	1524.793238414784	169.06307912062
3	429	1533.801518440656	170.28111712168
3	432	1555.524308824682	180.19983956655
3	437	1566.322750561011	159.80986781652
3	440	1589.380155684514	155.73167975847
3	445	1601.715997364167	155.88654228622
3	448	1614.197131982246	152.6805579225
3	451	1624.945797398625	155.25213587012
3	454	1633.419053654426	111.86202954489
3	461	1680.128058331985	154.77583869409
3	464	1682.638985080095	128.11155868135
3	465	1682.639165651823	125.51858858368
3	466	1684.528670007689	119.75465244938
3	467	1685.608813135408	97.412383929025
3	470	1687.983431138073	96.002410602303
3	471	1692.238357723536	92.007317234029
3	476	1713.246929523574	105.49636325524
3	477	1715.020684166746	96.831027980696
3	480	1716.594532702097	87.450781289565
3	483	1723.828107222589	82.67998059514
3	484	1729.714461240914	69.823295419735
3	485	1734.475358542834	64.346615060779
3	486	1739.340473725455	57.132049598397
3	489	1745.823451811206	59.403605871288
3	490	1749.134464876963	47.847313753865
3	491	1763.573931081856	55.894220975173
3	492	1773.167910712558	56.822434242533
3	495	1783.41117166057	62.855359803
3	498	1788.539663652043	42.891741864403
3	507	1804.072384312642	24.623185142039
3	510	1806.855128327592	18.560171731541
3	513	1832.5588672476	35.25968093459
3	514	1840.859889471927	34.093538738025
3	515	1856.886951154739	49.073057931478
3	522	1874.72052720804	14.631541197397
3	523	1888.08203425989	24.08335164251
3	526	1919.905636190701	49.651720526016
3	529	1937.308681609247	19.38525447342
3	532	1951.252332752507	15.278379637964
3	535	1955.457482825928	12.228680593981
3	536	1960.812297813312	6.714788156368
3	539	1980.852410625115	0
3	542	1995.521327700798	3.634143604453
3	545	2044.765183897454	0
3	551	2057.205873045751	0
3	554	2064.36028859598	6.738677295956
3	559	2079.228464035809	12.247597849282
3	562	2082.526433264525	7.217758677053
3	563	2083.737187961615	1.637638532299
3	572	2122.005803355867	0
3	575	2134.534577271549	0
3	578	2143.617753064901	0.894069569455
3	587	2162.79819787584	11.349266011925
3	590	2167.721228574154	15.556265452504
3	591	2168.776237791457	13.306201051073
3	594	2172.365139504149	15.134370121252
3	597	2177.709815185814	14.351186285583
3	598	2189.463159225518	20.158721749601
3	601	2191.073506708212	13.845281583335
3	602	2207.092230011885	17.359339364107
3	605	2223.762460473156	0
3	608	2236.53372395768	1.77176177591
3	611	2243.985480094767	0
3	632	2278.307123924585	8.439207328525
3	635	2286.444564721183	16.010555809222
3	636	2288.004207168192	17.278103222721
3	639	2289.214034594932	11.349572336133
3	642	2293.440709803145	7.72127709679
3	647	2297.92225682287	9.360544841298
3	650	2301.696415191723	12.120984885007
3	651	2305.163824108413	11.604973856322
3	652	2310.133697511137	15.567168544591
3	659	2313.963648939732	15.72371167681
3	662	2332.737615131937	21.35086673593
3	675	2406.723017989416	94.628617802999
3	676	2407.635533475201	95.116954954862
3	681	2422.318615134034	95.909201369349
3	682	2425.253723365406	84.029213731465
3	685	2442.350160723367	68.452110669148
3	699	2464.202321581133	79.534522187962
3	700	2468.272739819103	73.044785432078
3	705	2479.714076651384	83.497721255944
3	706	2492.334791486313	95.122264631108
3	707	2493.763431992011	79.559351851576
4	111	355.520524444615	12
4	114	378.060610480392	12
4	123	396.692920598649	12
4	136	478.959989115646	11
4	158	536.688628474242	12
4	161	549.826098765153	13
4	164	588.136604001603	13
4	176	636.867812167712	13
4	178	636.913048068107	14
4	180	641.124415625264	15
4	183	655.85494892938	15
4	185	659.057710670902	16
4	190	675.118631739324	14
4	198	722.679326989198	12
4	206	735.965756852393	13
4	209	759.026602277064	13
4	216	788.258528519959	12
4	228	851.531482703812	6
4	230	855.035623301186	7
4	233	867.213616135434	7
4	245	896.139637930847	8
4	252	912.70254009166	9
4	254	913.123127565178	10
4	267	945.438826240054	6
4	269	948.344201772966	7
4	276	1005.700702500235	6
4	278	1008.172844765871	7
4	280	1013.228393432145	8
4	285	1020.646698562959	9
4	296	1044.923106180073	10
4	305	1067.184592272824	10
4	307	1081.045339526901	11
4	315	1093.789365788123	12
4	321	1098.318865760587	12
4	331	1132.193557922902	13
4	335	1152.044285201824	13
4	338	1158.882454999683	13
4	341	1161.999133946455	13
4	346	1188.41870509817	14
4	348	1189.506805139327	15
4	352	1213.761853454868	14
4	354	1217.353193160112	15
4	356	1225.290322661293	16
4	370	1265.522477138954	14
4	372	1273.671244154035	15
4	374	1274.434186643546	16
4	393	1350.821311661569	12
4	396	1355.730159294163	12
4	403	1375.324469258133	11
4	417	1461.516574059746	12
4	425	1521.557024109541	10
4	428	1525.352219637898	10
4	431	1554.527426398746	10
4	434	1557.120577068146	10
4	442	1591.98102053577	11
4	447	1607.750566268338	12
4	450	1618.18965618605	12
4	453	1629.143751412532	12
4	456	1641.148126627449	12
4	458	1659.891165821179	13
4	460	1670.128743482055	14
4	473	1701.287151123098	10
4	512	1807.813893223261	4
4	517	1860.088986010643	2
4	519	1863.99868261738	3
4	521	1870.253915664685	4
4	528	1935.973953114543	3
4	531	1943.228802231947	3
4	534	1954.097509656944	3
4	539	1980.852410625115	1
4	541	1991.887184096345	2
4	545	2044.765183897454	1
4	551	2057.205873045751	1
4	553	2057.621611300024	2
4	556	2066.980866186527	2
4	572	2122.005803355867	1
4	575	2134.534577271549	1
4	580	2151.448931863915	2
4	582	2152.16496312165	3
4	584	2155.470036740384	4
4	586	2157.230769382897	5
4	589	2163.358628900231	5
4	600	2189.732890647778	3
4	605	2223.762460473156	1
4	611	2243.985480094767	1
4	621	2269.86791659606	1
4	623	2270.434008911961	2
4	625	2270.726103945471	3
4	631	2277.864462258799	4
4	641	2289.575430306716	4
4	646	2294.566528966546	4
4	654	2311.386748396007	3
4	658	2312.518578520339	4
4	661	2326.409413764685	5
4	664	2341.224509633941	5
4	666	2373.898050054219	6
4	668	2384.667799393171	7
4	670	2395.227954387025	8
4	672	2396.21635539544	9
4	674	2397.212526855205	10
4	678	2414.204080140435	9
4	684	2431.145199228348	9
4	698	2463.688751157958	9
4	702	2469.8216218774	9
4	704	2472.233399923981	10
4	709	2495.885942310982	8
5	111	355.520524444615	11
5	112	358.242840793443	11
5	114	378.060610480392	11
5	115	378.842945036523	11
5	123	396.692920598649	11
5	133	436.681215499512	11
5	134	455.88421164466	10
5	136	478.959989115646	10
5	158	536.688628474242	11
5	161	549.826098765153	12
5	162	583.767121803153	12
5	164	588.136604001603	12
5	165	589.084057037559	12
5	176	636.867812167712	12
5	178	636.913048068107	13
5	180	641.124415625264	14
5	181	643.059045197495	14
5	183	655.85494892938	14
5	185	659.057710670902	15
5	186	659.72195236476	15
5	187	662.190127865383	14
5	188	662.725032769522	13
5	190	675.118631739324	13
5	191	678.412949422366	13
5	192	683.39951400313	12
5	193	684.303926903211	11
5	198	722.679326989198	11
5	206	735.965756852393	12
5	207	754.317526092983	12
5	209	759.026602277064	12
5	213	774.593375837186	12
5	214	781.592015135451	11
5	216	788.258528519959	11
5	217	791.899650824947	11
5	218	808.984039569027	10
5	219	817.850107543268	9
5	220	822.291466332263	8
5	221	824.068172199573	7
5	222	835.411886958364	6
5	226	848.814549680229	5
5	228	851.531482703812	5
5	230	855.035623301186	6
5	231	855.220578866541	6
5	233	867.213616135434	6
5	245	896.139637930847	7
5	252	912.70254009166	8
5	254	913.123127565178	9
5	255	916.293503006512	9
5	256	916.435363228519	8
5	257	925.619352537172	7
5	261	934.447660619808	6
5	262	937.430036960671	5
5	267	945.438826240054	5
5	269	948.344201772966	6
5	270	986.992566009776	6
5	274	1004.486108705135	5
5	276	1005.700702500235	5
5	278	1008.172844765871	6
5	280	1013.228393432145	7
5	285	1020.646698562959	8
5	296	1044.923106180073	9
5	297	1049.754284850855	9
5	305	1067.184592272824	9
5	307	1081.045339526901	10
5	315	1093.789365788123	11
5	319	1095.716469961294	11
5	321	1098.318865760587	11
5	331	1132.193557922902	12
5	333	1147.511484866292	12
5	335	1152.044285201824	12
5	336	1158.706456788743	12
5	338	1158.882454999683	12
5	339	1159.715944311896	12
5	341	1161.999133946455	12
5	346	1188.41870509817	13
5	348	1189.506805139327	14
5	349	1203.777504680534	14
5	350	1211.379250116766	13
5	352	1213.761853454868	13
5	354	1217.353193160112	14
5	356	1225.290322661293	15
5	357	1226.286103423008	15
5	358	1233.9688136358	14
5	359	1239.080121153487	13
5	370	1265.522477138954	13
5	372	1273.671244154035	14
5	374	1274.434186643546	15
5	375	1277.912635207407	15
5	385	1296.964826873919	14
5	386	1297.096135877596	13
5	387	1320.340354990238	12
5	388	1324.002027564084	11
5	393	1350.821311661569	11
5	394	1354.256384931948	11
5	396	1355.730159294163	11
5	400	1369.734943073374	11
5	401	1370.91600499815	10
5	403	1375.324469258133	10
5	417	1461.516574059746	11
5	418	1463.490114886252	11
5	422	1502.015130474118	10
5	423	1514.11555878919	9
5	425	1521.557024109541	9
5	426	1524.793238414784	9
5	428	1525.352219637898	9
5	429	1533.801518440656	9
5	431	1554.527426398746	9
5	432	1555.524308824682	9
5	434	1557.120577068146	9
5	442	1591.98102053577	10
5	447	1607.750566268338	11
5	448	1614.197131982246	11
5	450	1618.18965618605	11
5	451	1624.945797398625	11
5	453	1629.143751412532	11
5	454	1633.419053654426	11
5	456	1641.148126627449	11
5	458	1659.891165821179	12
5	460	1670.128743482055	13
5	461	1680.128058331985	13
5	465	1682.639165651823	12
5	466	1684.528670007689	11
5	467	1685.608813135408	10
5	471	1692.238357723536	9
5	473	1701.287151123098	9
5	477	1715.020684166746	9
5	484	1729.714461240914	8
5	485	1734.475358542834	7
5	486	1739.340473725455	6
5	490	1749.134464876963	5
5	491	1763.573931081856	4
5	492	1773.167910712558	3
5	512	1807.813893223261	3
5	513	1832.5588672476	3
5	514	1840.859889471927	2
5	515	1856.886951154739	1
5	517	1860.088986010643	1
5	519	1863.99868261738	2
5	521	1870.253915664685	3
5	522	1874.72052720804	3
5	523	1888.08203425989	2
5	528	1935.973953114543	2
5	529	1937.308681609247	2
5	531	1943.228802231947	2
5	532	1951.252332752507	2
5	534	1954.097509656944	2
5	535	1955.457482825928	2
5	536	1960.812297813312	1
5	537	1970.002012136489	0
5	539	1980.852410625115	0
5	541	1991.887184096345	1
5	542	1995.521327700798	1
5	543	1999.896532258163	0
5	545	2044.765183897454	0
5	546	2046.162171522303	0
5	551	2057.205873045751	0
5	553	2057.621611300024	1
5	554	2064.36028859598	1
5	556	2066.980866186527	1
5	563	2083.737187961615	1
5	564	2097.060359521725	0
5	572	2122.005803355867	0
5	573	2123.041708195175	0
5	575	2134.534577271549	0
5	580	2151.448931863915	1
5	582	2152.16496312165	2
5	584	2155.470036740384	3
5	586	2157.230769382897	4
5	587	2162.79819787584	4
5	589	2163.358628900231	4
5	590	2167.721228574154	4
5	591	2168.776237791457	3
5	598	2189.463159225518	2
5	600	2189.732890647778	2
5	601	2191.073506708212	2
5	602	2207.092230011885	1
5	603	2219.011960572814	0
5	605	2223.762460473156	0
5	609	2243.055405821381	0
5	611	2243.985480094767	0
5	612	2246.212737459714	0
5	621	2269.86791659606	0
5	623	2270.434008911961	1
5	625	2270.726103945471	2
5	631	2277.864462258799	3
5	636	2288.004207168192	3
5	641	2289.575430306716	3
5	642	2293.440709803145	3
5	646	2294.566528966546	3
5	651	2305.163824108413	3
5	652	2310.133697511137	2
5	654	2311.386748396007	2
5	658	2312.518578520339	3
5	661	2326.409413764685	4
5	662	2332.737615131937	4
5	664	2341.224509633941	4
5	666	2373.898050054219	5
5	668	2384.667799393171	6
5	670	2395.227954387025	7
5	672	2396.21635539544	8
5	674	2397.212526855205	9
5	675	2406.723017989416	9
5	676	2407.635533475201	8
5	678	2414.204080140435	8
5	682	2425.253723365406	8
5	684	2431.145199228348	8
5	685	2442.350160723367	8
5	698	2463.688751157958	8
5	700	2468.272739819103	8
5	702	2469.8216218774	8
5	704	2472.233399923981	9
5	705	2479.714076651384	9
5	706	2492.334791486313	8
5	707	2493.763431992011	7
5	709	2495.885942310982	7
6	112	358.242840793443	10
6	115	378.842945036523	11
6	133	436.681215499512	12
6	134	455.88421164466	13
6	162	583.767121803153	14
6	165	589.084057037559	15
6	181	643.059045197495	16
6	186	659.72195236476	17
6	187	662.190127865383	18
6	188	662.725032769522	19
6	191	678.412949422366	20
6	192	683.39951400313	21
6	193	684.303926903211	22
6	207	754.317526092983	23
6	213	774.593375837186	24
6	214	781.592015135451	25
6	217	791.899650824947	26
6	218	808.984039569027	27
6	219	817.850107543268	28
6	220	822.291466332263	29
6	221	824.068172199573	30
6	222	835.411886958364	31
6	226	848.814549680229	32
6	231	855.220578866541	33
6	255	916.293503006512	34
6	256	916.435363228519	35
6	257	925.619352537172	36
6	261	934.447660619808	37
6	262	937.430036960671	38
6	270	986.992566009776	39
6	274	1004.486108705135	40
6	297	1049.754284850855	41
6	319	1095.716469961294	42
6	333	1147.511484866292	43
6	336	1158.706456788743	44
6	339	1159.715944311896	45
6	349	1203.777504680534	46
6	350	1211.379250116766	47
6	357	1226.286103423008	48
6	358	1233.9688136358	49
6	359	1239.080121153487	50
6	375	1277.912635207407	51
6	385	1296.964826873919	52
6	386	1297.096135877596	53
6	387	1320.340354990238	54
6	388	1324.002027564084	55
6	394	1354.256384931948	56
6	400	1369.734943073374	57
6	401	1370.91600499815	58
6	418	1463.490114886252	59
6	422	1502.015130474118	60
6	423	1514.11555878919	61
6	426	1524.793238414784	62
6	429	1533.801518440656	63
6	432	1555.524308824682	64
6	448	1614.197131982246	65
6	451	1624.945797398625	66
6	454	1633.419053654426	67
6	461	1680.128058331985	68
6	465	1682.639165651823	69
6	466	1684.528670007689	70
6	467	1685.608813135408	71
6	471	1692.238357723536	72
6	477	1715.020684166746	73
6	484	1729.714461240914	74
6	485	1734.475358542834	75
6	486	1739.340473725455	76
6	490	1749.134464876963	77
6	491	1763.573931081856	78
6	492	1773.167910712558	79
6	513	1832.5588672476	80
6	514	1840.859889471927	81
6	515	1856.886951154739	82
6	522	1874.72052720804	83
6	523	1888.08203425989	84
6	529	1937.308681609247	85
6	532	1951.252332752507	86
6	535	1955.457482825928	87
6	536	1960.812297813312	88
6	537	1970.002012136489	89
6	542	1995.521327700798	90
6	543	1999.896532258163	91
6	546	2046.162171522303	92
6	554	2064.36028859598	93
6	563	2083.737187961615	94
6	564	2097.060359521725	95
6	573	2123.041708195175	96
6	587	2162.79819787584	97
6	590	2167.721228574154	98
6	591	2168.776237791457	99
6	598	2189.463159225518	100
6	601	2191.073506708212	101
6	602	2207.092230011885	102
6	603	2219.011960572814	103
6	609	2243.055405821381	104
6	612	2246.212737459714	105
6	636	2288.004207168192	106
6	642	2293.440709803145	107
6	651	2305.163824108413	108
6	652	2310.133697511137	109
6	662	2332.737615131937	110
6	675	2406.723017989416	111
6	676	2407.635533475201	112
6	682	2425.253723365406	113
6	685	2442.350160723367	114
6	700	2468.272739819103	115
6	705	2479.714076651384	116
6	706	2492.334791486313	117
6	707	2493.763431992011	118
7	112	358.242840793443	86.011629211297
7	115	378.842945036523	98.948878288504
7	133	436.681215499512	100.11995765808
7	134	455.88421164466	116.37129038615
7	162	583.767121803153	187.79542738569
7	165	589.084057037559	192.39113643891
7	181	643.059045197495	164.09905608185
7	186	659.72195236476	166.3810519897
7	187	662.190127865383	143.08230306511
7	188	662.725032769522	138.67463742751
7	191	678.412949422366	149.64749308221
7	192	683.39951400313	147.65690116243
7	193	684.303926903211	147.61529842897
7	207	754.317526092983	156.17281746661
7	213	774.593375837186	137.72556366947
7	214	781.592015135451	144.67896706734
7	217	791.899650824947	150.77523519968
7	218	808.984039569027	153.12909063965
7	219	817.850107543268	158.79239687237
7	220	822.291466332263	147.17283459294
7	221	824.068172199573	121.57816214391
7	222	835.411886958364	112.73255996917
7	226	848.814549680229	113.26541262185
7	231	855.220578866541	119.25482201415
7	255	916.293503006512	151.93872999478
7	256	916.435363228519	128.17683470856
7	257	925.619352537172	86.758875096942
7	261	934.447660619808	79.412037318622
7	262	937.430036960671	70.216420825237
7	270	986.992566009776	90.852928078929
7	274	1004.486108705135	91.362981139957
7	297	1049.754284850855	101.41008307789
7	319	1095.716469961294	75.069771398335
7	333	1147.511484866292	86.820354355521
7	336	1158.706456788743	95.512624303773
7	339	1159.715944311896	92.531352039072
7	349	1203.777504680534	119.18317196797
7	350	1211.379250116766	120.62508279773
7	357	1226.286103423008	132.49673763488
7	358	1233.9688136358	139.19659776465
7	359	1239.080121153487	140.7612553929
7	375	1277.912635207407	146.28015045195
7	385	1296.964826873919	144.92054167209
7	386	1297.096135877596	138.21368087791
7	387	1320.340354990238	158.34122104378
7	388	1324.002027564084	148.66684243308
7	394	1354.256384931948	164.74957979262
7	400	1369.734943073374	152.38174991326
7	401	1370.91600499815	145.62568233686
7	418	1463.490114886252	189.81887073222
7	422	1502.015130474118	215.67282901271
7	423	1514.11555878919	176.89183871358
7	426	1524.793238414784	173.97192675322
7	429	1533.801518440656	178.07135914649
7	432	1555.524308824682	192.00390750571
7	448	1614.197131982246	168.3676769043
7	451	1624.945797398625	163.42922333888
7	454	1633.419053654426	163.72539212592
7	461	1680.128058331985	158.57103422244
7	465	1682.639165651823	128.11173925308
7	466	1684.528670007689	127.40809293954
7	467	1685.608813135408	120.8347955771
7	471	1692.238357723536	100.25733718777
7	477	1715.020684166746	107.27011789841
7	484	1729.714461240914	88.566334613465
7	485	1734.475358542834	74.584192721655
7	486	1739.340473725455	69.2117302434
7	490	1749.134464876963	62.714618937045
7	491	1763.573931081856	62.286779958758
7	492	1773.167910712558	65.488200605875
7	513	1832.5588672476	44.263910651549
7	514	1840.859889471927	43.560703158917
7	515	1856.886951154739	50.120600420837
7	522	1874.72052720804	66.906633984779
7	523	1888.08203425989	27.993048249247
7	529	1937.308681609247	67.054765944562
7	532	1951.252332752507	33.32890561668
7	535	1955.457482825928	19.483529711385
7	536	1960.812297813312	17.583495581365
7	537	1970.002012136489	15.904502479545
7	542	1995.521327700798	14.668917075683
7	543	1999.896532258163	8.009348161818
7	546	2046.162171522303	1.396987624849
7	554	2064.36028859598	7.154415550229
7	563	2083.737187961615	8.428513374143
7	564	2097.060359521725	14.960810092409
7	573	2123.041708195175	1.035904839308
7	587	2162.79819787584	20.074514380394
7	590	2167.721228574154	16.272296710239
7	591	2168.776237791457	16.611274669807
7	598	2189.463159225518	26.104530325287
7	601	2191.073506708212	21.769069232295
7	602	2207.092230011885	29.864004887008
7	603	2219.011960572814	29.279069925036
7	609	2243.055405821381	8.293443639611
7	612	2246.212737459714	2.227257364947
7	636	2288.004207168192	17.570198256231
7	642	2293.440709803145	15.576247544346
7	651	2305.163824108413	15.588393801697
7	652	2310.133697511137	16.574847259046
7	662	2332.737615131937	34.497677869015
7	675	2406.723017989416	95.336269593409
7	676	2407.635533475201	95.541133288784
7	682	2425.253723365406	98.844309600721
7	685	2442.350160723367	101.12565108943
7	700	2468.272739819103	83.604940425932
7	705	2479.714076651384	84.486122264359
7	706	2492.334791486313	96.118436090873
7	707	2493.763431992011	96.550905136806
8	117	380.659473743649	1
8	120	395.971694417465	1
8	125	404.35044228479	1
8	128	410.037356174797	1
8	131	425.519679098172	1
8	138	493.340900375065	1
8	140	493.458722537011	2
8	143	496.742594609582	2
8	147	519.107824800269	1
8	150	524.050395342014	1
8	153	528.76545634016	1
8	156	535.742612840699	1
8	167	589.672238161967	1
8	170	598.144708626378	1
8	173	607.520627601297	1
8	195	702.49001005566	1
8	200	730.410353463151	1
8	203	735.549137058382	1
8	211	764.354773011734	1
8	224	838.86047744023	1
8	235	879.741882111558	1
8	237	882.113317559985	2
8	239	884.446492488943	3
8	241	888.24560307094	4
8	243	895.381730109802	5
8	259	927.517978306195	1
8	264	940.401529101434	1
8	272	990.909014986853	1
8	282	1013.261047276616	1
8	287	1028.545887104851	1
8	290	1034.503025313914	1
8	292	1036.534772003394	2
8	299	1060.691130510771	1
8	302	1063.19383248497	1
8	309	1084.594332712561	1
8	312	1090.754167319039	1
8	317	1094.772215871149	1
8	323	1120.122180825996	1
8	326	1127.896198946203	1
8	329	1131.632484755457	1
8	343	1175.335185131008	1
8	361	1256.60543472736	1
8	364	1258.346007673972	1
8	366	1258.889412571991	2
8	377	1286.342301461403	1
8	379	1286.57494181929	2
8	381	1287.862513521532	3
8	390	1337.223720075614	1
8	398	1363.520401318974	1
8	405	1406.512882744487	1
8	408	1433.648475926042	1
8	410	1435.347326120521	2
8	414	1445.829455077947	1
8	420	1469.693661528508	1
8	436	1564.774017558306	1
8	439	1588.196429206383	1
8	444	1600.231040489507	1
8	463	1682.208424127058	1
8	469	1686.419845939918	1
8	475	1707.679710106683	1
8	479	1716.345476470025	1
8	482	1720.55581185757	1
8	488	1745.64792178764	1
8	494	1779.449199170603	1
8	497	1788.294956596051	1
8	500	1797.29918631301	1
8	502	1798.359156213276	2
8	504	1799.172771781991	3
8	509	1806.766350733902	1
8	525	1917.923427135827	1
8	548	2052.509094390919	1
8	558	2075.308674587472	1
8	561	2082.099549429316	1
8	566	2108.685862315649	1
8	569	2121.076209533676	1
8	577	2142.723683495446	1
8	593	2169.304437475917	1
8	596	2177.228225124877	1
8	607	2234.76196218177	1
8	614	2260.983183628547	1
8	617	2264.84038493309	1
8	619	2268.90144810621	2
8	627	2273.677289607649	3
8	634	2285.719432706355	1
8	638	2288.561711981572	1
8	644	2293.558850252091	1
8	649	2298.239937262922	1
8	656	2312.094400186417	1
8	680	2421.021190455418	1
8	687	2446.030079873069	1
8	689	2451.694476261001	2
8	692	2455.678417661446	2
8	694	2458.010288498061	3
9	117	380.659473743649	19
9	120	395.971694417465	20
9	125	404.35044228479	21
9	128	410.037356174797	22
9	131	425.519679098172	23
9	138	493.340900375065	24
9	147	519.107824800269	25
9	150	524.050395342014	26
9	153	528.76545634016	27
9	156	535.742612840699	28
9	167	589.672238161967	29
9	170	598.144708626378	30
9	173	607.520627601297	31
9	195	702.49001005566	32
9	200	730.410353463151	33
9	203	735.549137058382	34
9	211	764.354773011734	35
9	224	838.86047744023	36
9	235	879.741882111558	37
9	259	927.517978306195	38
9	264	940.401529101434	39
9	272	990.909014986853	40
9	282	1013.261047276616	41
9	287	1028.545887104851	42
9	290	1034.503025313914	43
9	299	1060.691130510771	44
9	302	1063.19383248497	45
9	309	1084.594332712561	46
9	312	1090.754167319039	47
9	317	1094.772215871149	48
9	323	1120.122180825996	49
9	326	1127.896198946203	50
9	329	1131.632484755457	51
9	343	1175.335185131008	52
9	361	1256.60543472736	53
9	364	1258.346007673972	54
9	377	1286.342301461403	55
9	390	1337.223720075614	56
9	398	1363.520401318974	57
9	405	1406.512882744487	58
9	408	1433.648475926042	59
9	414	1445.829455077947	60
9	420	1469.693661528508	61
9	436	1564.774017558306	62
9	439	1588.196429206383	63
9	444	1600.231040489507	64
9	463	1682.208424127058	65
9	469	1686.419845939918	66
9	475	1707.679710106683	67
9	479	1716.345476470025	68
9	482	1720.55581185757	69
9	488	1745.64792178764	70
9	494	1779.449199170603	71
9	497	1788.294956596051	72
9	500	1797.29918631301	73
9	509	1806.766350733902	74
9	525	1917.923427135827	75
9	558	2075.308674587472	76
9	561	2082.099549429316	77
9	577	2142.723683495446	78
9	593	2169.304437475917	79
9	596	2177.228225124877	80
9	607	2234.76196218177	81
9	634	2285.719432706355	82
9	638	2288.561711981572	83
9	644	2293.558850252091	84
9	649	2298.239937262922	85
9	656	2312.094400186417	86
9	680	2421.021190455418	87
9	687	2446.030079873069	88
10	117	380.659473743649	0
10	120	395.971694417465	0
10	125	404.35044228479	0
10	128	410.037356174797	0
10	131	425.519679098172	0
10	138	493.340900375065	0
10	141	495.742314345848	2.283591808837
10	144	501.765687660453	5.023093050871
10	147	519.107824800269	0
10	150	524.050395342014	0
10	153	528.76545634016	0
10	156	535.742612840699	0
10	167	589.672238161967	0
10	170	598.144708626378	0
10	173	607.520627601297	0
10	195	702.49001005566	0
10	200	730.410353463151	0
10	203	735.549137058382	0
10	211	764.354773011734	0
10	224	838.86047744023	0
10	235	879.741882111558	0
10	246	899.336836141557	17.223518581572
10	247	904.538950422257	20.092457933314
10	248	905.93835756095	17.69275449001
10	249	906.838246675521	11.456516565719
10	259	927.517978306195	0
10	264	940.401529101434	0
10	272	990.909014986853	0
10	282	1013.261047276616	0
10	287	1028.545887104851	0
10	290	1034.503025313914	0
10	293	1043.206387743148	6.671615739754
10	299	1060.691130510771	0
10	302	1063.19383248497	0
10	309	1084.594332712561	0
10	312	1090.754167319039	0
10	317	1094.772215871149	0
10	323	1120.122180825996	0
10	326	1127.896198946203	0
10	329	1131.632484755457	0
10	343	1175.335185131008	0
10	361	1256.60543472736	0
10	364	1258.346007673972	0
10	367	1260.660924860756	1.771512288765
10	377	1286.342301461403	0
10	382	1289.628800670313	3.053858851023
10	383	1294.791351127446	6.928837605914
10	390	1337.223720075614	0
10	398	1363.520401318974	0
10	405	1406.512882744487	0
10	408	1433.648475926042	0
10	411	1436.736223392999	1.388897272478
10	414	1445.829455077947	0
10	420	1469.693661528508	0
10	436	1564.774017558306	0
10	439	1588.196429206383	0
10	444	1600.231040489507	0
10	463	1682.208424127058	0
10	469	1686.419845939918	0
10	475	1707.679710106683	0
10	479	1716.345476470025	0
10	482	1720.55581185757	0
10	488	1745.64792178764	0
10	494	1779.449199170603	0
10	497	1788.294956596051	0
10	500	1797.29918631301	0
10	505	1799.966006757196	1.60685054392
10	506	1803.53501168883	4.362239906839
10	509	1806.766350733902	0
10	525	1917.923427135827	0
10	548	2052.509094390919	0
10	558	2075.308674587472	0
10	561	2082.099549429316	0
10	566	2108.685862315649	0
10	569	2121.076209533676	0
10	577	2142.723683495446	0
10	593	2169.304437475917	0
10	596	2177.228225124877	0
10	607	2234.76196218177	0
10	614	2260.983183628547	0
10	617	2264.84038493309	0
10	628	2275.860187237594	6.958739131384
10	629	2277.106739085835	3.429449478186
10	634	2285.719432706355	0
10	638	2288.561711981572	0
10	644	2293.558850252091	0
10	649	2298.239937262922	0
10	656	2312.094400186417	0
10	680	2421.021190455418	0
10	687	2446.030079873069	0
10	690	2453.832944970379	2.138468709378
10	695	2458.25551792281	2.577100261364
10	696	2459.494560392133	1.484271894072
11	710	2500	0.0472
12	710	2500	0.0452

